@<TRIPOS>MOLECULE
ZINC01493890
   37    40     0     0     0
SMALL
USER_CHARGES

@<TRIPOS>ATOM
      1 C1         -0.0178    1.4608    0.0101 C.3       1 <0>         0.0734
      2 N1          0.0021   -0.0041    0.0020 N.pl3     1 <0>        -0.4737
      3 C2          0.0078   -0.7727   -1.1169 C.2       1 <0>         0.1075
      4 C3          0.0281   -2.0944   -0.7674 C.2       1 <0>        -0.1579
      5 C4          0.0354   -2.1366    0.7062 C.ar      1 <0>        -0.0717
      6 C5          0.0236   -0.7978    1.1309 C.ar      1 <0>         0.0936
      7 C6          0.0319   -0.5143    2.4922 C.ar      1 <0>        -0.1217
      8 C7          0.0548   -1.5434    3.4092 C.ar      1 <0>        -0.0984
      9 C8          0.0696   -2.8648    2.9882 C.ar      1 <0>        -0.1347
     10 C9          0.0537   -3.1664    1.6433 C.ar      1 <0>        -0.0758
     11 C10         0.0395   -3.2453   -1.6802 C.2       1 <0>         0.0076
     12 C11         1.1151   -3.7103   -2.4252 C.2       1 <0>        -0.0960
     13 C12         0.6209   -4.8797   -3.1750 C.2       1 <0>         0.5637
     14 O1          1.2771   -5.5582   -3.9404 O.2       1 <0>        -0.4429
     15 N2         -0.6738   -5.0723   -2.8722 N.am      1 <0>        -0.6877
     16 C13        -1.0937   -4.1509   -1.9885 C.2       1 <0>         0.5544
     17 O2         -2.2127   -4.0711   -1.5240 O.2       1 <0>        -0.4382
     18 C14         2.4796   -3.1466   -2.4599 C.ar      1 <0>        -0.0170
     19 C15         3.3545   -3.3599   -1.3914 C.ar      1 <0>        -0.0612
     20 C16         4.6271   -2.8314   -1.4301 C.ar      1 <0>        -0.1027
     21 C17         5.0400   -2.0893   -2.5251 C.ar      1 <0>        -0.0144
     22 C18         4.1789   -1.8735   -3.5878 C.ar      1 <0>        -0.1022
     23 C19         2.9039   -2.4018   -3.5647 C.ar      1 <0>        -0.0020
     24 Cl1         1.8274   -2.1362   -4.9005 Cl        1 <0>        -0.0460
     25 Cl2         6.6441   -1.4267   -2.5645 Cl        1 <0>        -0.0499
     26 H1          1.0048    1.8381    0.0023 H         1 <0>         0.0752
     27 H2         -0.5450    1.8219   -0.8730 H         1 <0>         0.0873
     28 H3         -0.5280    1.8123    0.9069 H         1 <0>         0.0858
     29 H4         -0.0026   -0.3972   -2.1295 H         1 <0>         0.1749
     30 H5          0.0209    0.5112    2.8309 H         1 <0>         0.1213
     31 H6          0.0616   -1.3185    4.4655 H         1 <0>         0.1280
     32 H7          0.0879   -3.6611    3.7175 H         1 <0>         0.1260
     33 H8          0.0668   -4.1961    1.3179 H         1 <0>         0.1197
     34 H9         -1.2273   -5.7803   -3.2375 H         1 <0>         0.4319
     35 H10         3.0343   -3.9374   -0.5368 H         1 <0>         0.1466
     36 H11         5.3039   -2.9958   -0.6047 H         1 <0>         0.1469
     37 H12         4.5068   -1.2939   -4.4381 H         1 <0>         0.1501
@<TRIPOS>BOND
     1    1    2 1
     2    1   26 1
     3    1   27 1
     4    1   28 1
     5    2    6 1
     6    2    3 1
     7    3    4 2
     8    3   29 1
     9    4    5 1
    10    4   11 1
    11    5   10 ar
    12    5    6 ar
    13    6    7 ar
    14    7    8 ar
    15    7   30 1
    16    8    9 ar
    17    8   31 1
    18    9   10 ar
    19    9   32 1
    20   10   33 1
    21   11   16 1
    22   11   12 2
    23   12   13 1
    24   12   18 1
    25   13   14 2
    26   13   15 am
    27   15   16 am
    28   15   34 1
    29   16   17 2
    30   18   23 ar
    31   18   19 ar
    32   19   20 ar
    33   19   35 1
    34   20   21 ar
    35   20   36 1
    36   21   22 ar
    37   21   25 1
    38   22   23 ar
    39   22   37 1
    40   23   24 1
@<TRIPOS>MOLECULE
ZINC40979326
   58    61     0     0     0
SMALL
USER_CHARGES

@<TRIPOS>ATOM
      1 C1          0.0313    0.4233    0.2594 C.3       1 <0>        -0.1531
      2 C2          0.2943   -1.0706    0.0598 C.3       1 <0>        -0.1280
      3 C3          1.0135   -1.2883   -1.2730 C.3       1 <0>         0.1684
      4 H1          0.4319   -0.8381   -2.0774 H         1 <0>         0.1039
      5 C4          1.1655   -2.7886   -1.5315 C.3       1 <0>         0.0631
      6 O1          1.8265   -3.3987   -0.4211 O.3       1 <0>        -0.5696
      7 N1          2.3383   -0.6651   -1.2204 N.pl3     1 <0>        -0.6797
      8 C5          2.9626   -0.2653   -2.3906 C.ar      1 <0>         0.6268
      9 N2          2.3380   -0.4527   -3.5463 N.ar      1 <0>        -0.6111
     10 C6          2.8951   -0.0864   -4.6951 C.ar      1 <0>         0.5347
     11 C7          4.1686    0.5082   -4.6654 C.ar      1 <0>        -0.1491
     12 C8          4.7913    0.6864   -3.4190 C.ar      1 <0>         0.3505
     13 N3          4.1589    0.2950   -2.3171 N.ar      1 <0>        -0.6084
     14 N4          6.0011    1.2778   -3.6812 N.pl3     1 <0>        -0.4705
     15 C9          6.0909    1.4434   -5.0326 C.2       1 <0>         0.2398
     16 N5          5.0151    0.9913   -5.6077 N.2       1 <0>        -0.4562
     17 C10         7.0111    1.6616   -2.6918 C.3       1 <0>         0.1342
     18 C11         8.3154    0.9151   -2.9785 C.3       1 <0>        -0.1631
     19 C12         7.2579    3.1694   -2.7734 C.3       1 <0>        -0.1628
     20 N6          2.2359   -0.2864   -5.8962 N.pl3     1 <0>        -0.6367
     21 C13         0.9236   -0.7682   -5.9015 C.ar      1 <0>         0.1541
     22 C14         0.0267   -0.3535   -4.9238 C.ar      1 <0>        -0.0986
     23 C15        -1.2712   -0.8272   -4.9261 C.ar      1 <0>        -0.1046
     24 C16        -1.6849   -1.7151   -5.8994 C.ar      1 <0>        -0.1149
     25 C17        -0.7925   -2.1364   -6.8837 C.ar      1 <0>        -0.0326
     26 C18         0.5144   -1.6556   -6.8855 C.ar      1 <0>        -0.1040
     27 C19        -1.2354   -3.0907   -7.9298 C.ar      1 <0>         0.1695
     28 C20        -2.5724   -3.4781   -7.9903 C.ar      1 <0>        -0.1627
     29 C21        -2.9706   -4.3690   -8.9717 C.ar      1 <0>        -0.0719
     30 C22        -2.0173   -4.8439   -9.8616 C.ar      1 <0>        -0.1760
     31 C23        -0.7076   -4.4172   -9.7437 C.ar      1 <0>         0.1055
     32 N7         -0.3562   -3.5639   -8.8031 N.ar      1 <0>        -0.4790
     33 H2          0.9792    0.9614    0.2659 H         1 <0>         0.0551
     34 H3         -0.5916    0.7945   -0.5544 H         1 <0>         0.0540
     35 H4         -0.4811    0.5783    1.2089 H         1 <0>         0.0566
     36 H5          0.9172   -1.4418    0.8736 H         1 <0>         0.0770
     37 H6         -0.6536   -1.6088    0.0532 H         1 <0>         0.0779
     38 H7          0.1802   -3.2370   -1.6589 H         1 <0>         0.0526
     39 H8          1.7550   -2.9437   -2.4351 H         1 <0>         0.0503
     40 H9          1.9570   -4.3521   -0.5164 H         1 <0>         0.3778
     41 H10         2.7784   -0.5324   -0.3662 H         1 <0>         0.4153
     42 H11         6.9307    1.8848   -5.5485 H         1 <0>         0.2161
     43 H12         6.6574    1.4048   -1.6933 H         1 <0>         0.1068
     44 H13         8.6691    1.1718   -3.9771 H         1 <0>         0.0658
     45 H14         9.0669    1.2006   -2.2424 H         1 <0>         0.0800
     46 H15         8.1396   -0.1591   -2.9204 H         1 <0>         0.0632
     47 H16         7.6115    3.4261   -3.7720 H         1 <0>         0.0658
     48 H17         6.3286    3.7012   -2.5692 H         1 <0>         0.0632
     49 H18         8.0093    3.4549   -2.0373 H         1 <0>         0.0800
     50 H19         2.6846   -0.0922   -6.7339 H         1 <0>         0.4288
     51 H20         0.3454    0.3405   -4.1601 H         1 <0>         0.1325
     52 H21        -1.9643   -0.5023   -4.1642 H         1 <0>         0.1293
     53 H22        -2.7001   -2.0834   -5.8978 H         1 <0>         0.1268
     54 H23         1.2084   -1.9760   -7.6485 H         1 <0>         0.1368
     55 H24        -3.2879   -3.0888   -7.2811 H         1 <0>         0.1385
     56 H25        -4.0000   -4.6877   -9.0433 H         1 <0>         0.1371
     57 H26        -2.2959   -5.5404  -10.6386 H         1 <0>         0.1365
     58 H27         0.0367   -4.7848  -10.4345 H         1 <0>         0.1583
@<TRIPOS>BOND
     1    1    2 1
     2    1   33 1
     3    1   34 1
     4    1   35 1
     5    2    3 1
     6    2   36 1
     7    2   37 1
     8    3    4 1
     9    3    5 1
    10    3    7 1
    11    5    6 1
    12    5   38 1
    13    5   39 1
    14    6   40 1
    15    7    8 1
    16    7   41 1
    17    8   13 ar
    18    8    9 ar
    19    9   10 ar
    20   10   11 ar
    21   10   20 1
    22   11   16 1
    23   11   12 ar
    24   12   13 ar
    25   12   14 1
    26   14   15 1
    27   14   17 1
    28   15   16 2
    29   15   42 1
    30   17   18 1
    31   17   19 1
    32   17   43 1
    33   18   44 1
    34   18   45 1
    35   18   46 1
    36   19   47 1
    37   19   48 1
    38   19   49 1
    39   20   21 1
    40   20   50 1
    41   21   26 ar
    42   21   22 ar
    43   22   23 ar
    44   22   51 1
    45   23   24 ar
    46   23   52 1
    47   24   25 ar
    48   24   53 1
    49   25   26 ar
    50   25   27 1
    51   26   54 1
    52   27   32 ar
    53   27   28 ar
    54   28   29 ar
    55   28   55 1
    56   29   30 ar
    57   29   56 1
    58   30   31 ar
    59   30   57 1
    60   31   32 ar
    61   31   58 1
@<TRIPOS>MOLECULE
ZINC49033750
   58    61     0     0     0
SMALL
USER_CHARGES

@<TRIPOS>ATOM
      1 C1         -0.3258    0.6123    0.0085 C.3       1 <0>        -0.1534
      2 C2         -0.1194   -0.8977   -0.1256 C.3       1 <0>        -0.1280
      3 C3          0.6808   -1.1923   -1.3960 C.3       1 <0>         0.1679
      4 H1          1.6121   -0.6262   -1.3783 H         1 <0>         0.1037
      5 C4          0.9944   -2.6882   -1.4658 C.3       1 <0>         0.0630
      6 O1         -0.2205   -3.4345   -1.3717 O.3       1 <0>        -0.5696
      7 N1         -0.1052   -0.8029   -2.5694 N.pl3     1 <0>        -0.6797
      8 C5          0.5342   -0.4782   -3.7546 C.ar      1 <0>         0.6263
      9 N2          1.8591   -0.5326   -3.8035 N.ar      1 <0>        -0.6112
     10 C6          2.5180   -0.2307   -4.9167 C.ar      1 <0>         0.5337
     11 C7          1.7813    0.1507   -6.0517 C.ar      1 <0>        -0.1486
     12 C8          0.3809    0.1940   -5.9528 C.ar      1 <0>         0.3505
     13 N3         -0.1975   -0.1296   -4.8003 N.ar      1 <0>        -0.6078
     14 N4         -0.0737    0.5901   -7.1851 N.pl3     1 <0>        -0.4704
     15 C9          1.0173    0.7743   -7.9835 C.2       1 <0>         0.2402
     16 N5          2.1041    0.5161   -7.3166 N.2       1 <0>        -0.4563
     17 C10        -1.4736    0.7800   -7.5729 C.3       1 <0>         0.1341
     18 C11        -1.6895    2.2301   -8.0104 C.3       1 <0>        -0.1629
     19 C12        -1.8135   -0.1585   -8.7324 C.3       1 <0>        -0.1631
     20 N6          3.9007   -0.2899   -4.9582 N.pl3     1 <0>        -0.6346
     21 C13         4.6242   -0.5570   -3.7922 C.ar      1 <0>         0.1542
     22 C14         4.1533   -0.1085   -2.5637 C.ar      1 <0>        -0.1027
     23 C15         4.8654   -0.3710   -1.4091 C.ar      1 <0>        -0.1043
     24 C16         6.0487   -1.0802   -1.4689 C.ar      1 <0>        -0.1166
     25 C17         6.5286   -1.5339   -2.6963 C.ar      1 <0>        -0.0318
     26 C18         5.8090   -1.2745   -3.8601 C.ar      1 <0>        -0.1067
     27 C19         7.7999   -2.2956   -2.7622 C.ar      1 <0>         0.1696
     28 C20         8.4546   -2.6505   -1.5846 C.ar      1 <0>        -0.1627
     29 C21         9.6398   -3.3610   -1.6620 C.ar      1 <0>        -0.0719
     30 C22        10.1320   -3.6938   -2.9162 C.ar      1 <0>        -0.1761
     31 C23         9.4304   -3.3094   -4.0437 C.ar      1 <0>         0.1055
     32 N7          8.3013   -2.6379   -3.9417 N.ar      1 <0>        -0.4791
     33 H2          0.6434    1.1078    0.0664 H         1 <0>         0.0540
     34 H3         -0.8720    0.9828   -0.8590 H         1 <0>         0.0552
     35 H4         -0.8958    0.8222    0.9136 H         1 <0>         0.0567
     36 H5          0.4268   -1.2682    0.7419 H         1 <0>         0.0781
     37 H6         -1.0885   -1.3932   -0.1835 H         1 <0>         0.0771
     38 H7          1.4863   -2.9125   -2.4123 H         1 <0>         0.0505
     39 H8          1.6528   -2.9602   -0.6408 H         1 <0>         0.0527
     40 H9         -0.0973   -4.3929   -1.4091 H         1 <0>         0.3778
     41 H10        -1.0732   -0.7724   -2.5164 H         1 <0>         0.4155
     42 H11         0.9836    1.0879   -9.0164 H         1 <0>         0.2163
     43 H12        -2.1194    0.5568   -6.7235 H         1 <0>         0.1068
     44 H13        -1.0438    2.4533   -8.8597 H         1 <0>         0.0659
     45 H14        -2.7311    2.3714   -8.2988 H         1 <0>         0.0800
     46 H15        -1.4474    2.8987   -7.1843 H         1 <0>         0.0633
     47 H16        -1.1678    0.0647   -9.5817 H         1 <0>         0.0659
     48 H17        -1.6597   -1.1916   -8.4207 H         1 <0>         0.0632
     49 H18        -2.8551   -0.0173   -9.0209 H         1 <0>         0.0801
     50 H19         4.3674   -0.1461   -5.7963 H         1 <0>         0.4291
     51 H20         3.2286    0.4470   -2.5115 H         1 <0>         0.1380
     52 H21         4.4957   -0.0201   -0.4570 H         1 <0>         0.1291
     53 H22         6.6027   -1.2832   -0.5643 H         1 <0>         0.1265
     54 H23         6.1747   -1.6275   -4.8130 H         1 <0>         0.1367
     55 H24         8.0432   -2.3747   -0.6249 H         1 <0>         0.1384
     56 H25        10.1699   -3.6498   -0.7664 H         1 <0>         0.1371
     57 H26        11.0544   -4.2475   -3.0105 H         1 <0>         0.1364
     58 H27         9.8106   -3.5668   -5.0212 H         1 <0>         0.1584
@<TRIPOS>BOND
     1    1    2 1
     2    1   33 1
     3    1   34 1
     4    1   35 1
     5    2    3 1
     6    2   36 1
     7    2   37 1
     8    3    4 1
     9    3    5 1
    10    3    7 1
    11    5    6 1
    12    5   38 1
    13    5   39 1
    14    6   40 1
    15    7    8 1
    16    7   41 1
    17    8   13 ar
    18    8    9 ar
    19    9   10 ar
    20   10   11 ar
    21   10   20 1
    22   11   16 1
    23   11   12 ar
    24   12   13 ar
    25   12   14 1
    26   14   15 1
    27   14   17 1
    28   15   16 2
    29   15   42 1
    30   17   18 1
    31   17   19 1
    32   17   43 1
    33   18   44 1
    34   18   45 1
    35   18   46 1
    36   19   47 1
    37   19   48 1
    38   19   49 1
    39   20   21 1
    40   20   50 1
    41   21   26 ar
    42   21   22 ar
    43   22   23 ar
    44   22   51 1
    45   23   24 ar
    46   23   52 1
    47   24   25 ar
    48   24   53 1
    49   25   26 ar
    50   25   27 1
    51   26   54 1
    52   27   32 ar
    53   27   28 ar
    54   28   29 ar
    55   28   55 1
    56   29   30 ar
    57   29   56 1
    58   30   31 ar
    59   30   57 1
    60   31   32 ar
    61   31   58 1
@<TRIPOS>MOLECULE
ZINC44136098
   50    53     0     0     0
SMALL
USER_CHARGES

@<TRIPOS>ATOM
      1 C1         -0.2091    0.5158    0.9417 C.ar      1 <0>        -0.1104
      2 C2          1.0375    1.1055    0.9791 C.ar      1 <0>        -0.0063
      3 C3          1.4681    1.8891   -0.0913 C.ar      1 <0>        -0.0306
      4 C4          0.6336    2.0719   -1.1958 C.ar      1 <0>         0.0152
      5 C5         -0.6119    1.4766   -1.2220 C.ar      1 <0>        -0.1149
      6 C6         -1.0331    0.7001   -0.1559 C.ar      1 <0>        -0.0042
      7 Cl1        -2.6001   -0.0459   -0.1955 Cl        1 <0>        -0.0575
      8 Cl2         1.1606    3.0459   -2.5327 Cl        1 <0>        -0.0503
      9 C7          2.8047    2.5249   -0.0564 C.ar      1 <0>         0.3017
     10 C8          3.9688    1.7418    0.0894 C.ar      1 <0>        -0.1664
     11 C9          5.2042    2.3949    0.1154 C.ar      1 <0>         0.2094
     12 N1          5.2379    3.7111    0.0036 N.ar      1 <0>        -0.5578
     13 C10         4.1233    4.4165   -0.1322 C.ar      1 <0>         0.5766
     14 N2          2.9299    3.8443   -0.1676 N.ar      1 <0>        -0.5385
     15 N3          4.2105    5.7921   -0.2451 N.pl3     1 <0>        -0.6907
     16 C11         5.5200    6.4481   -0.2138 C.3       1 <0>         0.1271
     17 C12         5.3365    7.9603   -0.3567 C.3       1 <0>         0.1087
     18 N4          6.6460    8.6163   -0.3255 N.pl3     1 <0>        -0.7021
     19 C13         6.7336    9.9988   -0.4390 C.ar      1 <0>         0.4894
     20 C14         5.5738   10.7526   -0.5761 C.ar      1 <0>        -0.2837
     21 C15         5.6707   12.1298   -0.6881 C.ar      1 <0>         0.0629
     22 C16         6.9283   12.7105   -0.6592 C.ar      1 <0>        -0.2238
     23 C17         8.0480   11.8993   -0.5197 C.ar      1 <0>         0.5165
     24 N5          7.9212   10.5850   -0.4098 N.ar      1 <0>        -0.5877
     25 N6          9.3136   12.4731   -0.4902 N.pl3     1 <0>        -0.8255
     26 N7          7.0776   14.1783   -0.7762 N.pl3     1 <0>         0.0562
     27 O1          6.2781   14.9117   -0.2427 O.2       1 <0>        -0.1530
     28 O2          7.9991   14.6440   -1.4053 O.3       1 <0>        -0.1888
     29 C18         3.8846    0.2727    0.2115 C.2       1 <0>         0.2544
     30 N8          4.9258   -0.5682    0.4793 N.pl3     1 <0>        -0.5651
     31 H1          5.8507   -0.3138    0.6233 H         1 <0>         0.4195
     32 C19         4.4166   -1.8400    0.5058 C.2       1 <0>        -0.0393
     33 C20         3.0953   -1.7418    0.2568 C.2       1 <0>        -0.0208
     34 N9          2.7921   -0.4494    0.0866 N.2       1 <0>        -0.4626
     35 H2         -0.5413   -0.0947    1.7683 H         1 <0>         0.1406
     36 H3          1.6787    0.9611    1.8361 H         1 <0>         0.1326
     37 H4         -1.2587    1.6170   -2.0754 H         1 <0>         0.1449
     38 H5          6.1189    1.8314    0.2259 H         1 <0>         0.1668
     39 H6          3.4046    6.3226   -0.3450 H         1 <0>         0.4197
     40 H7          6.0132    6.2299    0.7334 H         1 <0>         0.0804
     41 H8          6.1320    6.0771   -1.0360 H         1 <0>         0.0801
     42 H9          4.8433    8.1786   -1.3040 H         1 <0>         0.0814
     43 H10         4.7245    8.3314    0.4654 H         1 <0>         0.0819
     44 H11         7.4519    8.0859   -0.2255 H         1 <0>         0.4142
     45 H12         4.6079   10.2698   -0.5955 H         1 <0>         0.1512
     46 H13         4.7848   12.7380   -0.7960 H         1 <0>         0.1576
     47 H14         9.4166   13.4278   -0.6276 H         1 <0>         0.4222
     48 H15        10.0938   11.9188   -0.3322 H         1 <0>         0.4141
     49 H16         4.9693   -2.7492    0.6909 H         1 <0>         0.1812
     50 H17         2.3989   -2.5658    0.2075 H         1 <0>         0.1736
@<TRIPOS>BOND
     1    1    6 ar
     2    1    2 ar
     3    1   35 1
     4    2    3 ar
     5    2   36 1
     6    3    4 ar
     7    3    9 1
     8    4    5 ar
     9    4    8 1
    10    5    6 ar
    11    5   37 1
    12    6    7 1
    13    9   14 ar
    14    9   10 ar
    15   10   11 ar
    16   10   29 1
    17   11   12 ar
    18   11   38 1
    19   12   13 ar
    20   13   14 ar
    21   13   15 1
    22   15   16 1
    23   15   39 1
    24   16   17 1
    25   16   40 1
    26   16   41 1
    27   17   18 1
    28   17   42 1
    29   17   43 1
    30   18   19 1
    31   18   44 1
    32   19   24 ar
    33   19   20 ar
    34   20   21 ar
    35   20   45 1
    36   21   22 ar
    37   21   46 1
    38   22   23 ar
    39   22   26 1
    40   23   24 ar
    41   23   25 1
    42   25   47 1
    43   25   48 1
    44   26   27 2
    45   26   28 1
    46   29   34 2
    47   29   30 1
    48   30   31 1
    49   30   32 1
    50   32   33 2
    51   32   49 1
    52   33   34 1
    53   33   50 1
@<TRIPOS>MOLECULE
ZINC44136098
   51    54     0     0     0
SMALL
USER_CHARGES

@<TRIPOS>ATOM
      1 C1          2.1874   -0.7993   -1.1271 C.ar      1 <0>        -0.1049
      2 C2          3.2997    0.0019   -0.9718 C.ar      1 <0>        -0.0773
      3 C3          3.2672    1.0701   -0.0756 C.ar      1 <0>        -0.0955
      4 C4          2.1073    1.3222    0.6599 C.ar      1 <0>         0.0143
      5 C5          1.0003    0.5135    0.4960 C.ar      1 <0>        -0.1002
      6 C6          1.0395   -0.5452   -0.3953 C.ar      1 <0>         0.0019
      7 Cl1        -0.3561   -1.5578   -0.5969 Cl        1 <0>        -0.0219
      8 Cl2         2.0575    2.6491    1.7782 Cl        1 <0>        -0.0181
      9 C7          4.4580    1.9330    0.0956 C.ar      1 <0>         0.3309
     10 C8          5.7146    1.3702    0.4023 C.ar      1 <0>        -0.2746
     11 C9          6.8045    2.2321    0.5529 C.ar      1 <0>         0.2648
     12 N1          6.6212    3.5320    0.4039 N.ar      1 <0>        -0.5506
     13 C10         5.4253    4.0273    0.1154 C.ar      1 <0>         0.6084
     14 N2          4.3635    3.2523   -0.0425 N.ar      1 <0>        -0.5332
     15 N3          5.2840    5.3950   -0.0302 N.pl3     1 <0>        -0.6653
     16 C11         6.4452    6.2729    0.1342 C.3       1 <0>         0.1159
     17 C12         6.0191    7.7271   -0.0775 C.3       1 <0>         0.1094
     18 N4          7.1803    8.6051    0.0869 N.pl3     1 <0>        -0.7068
     19 C13         7.0383    9.9799   -0.0595 C.ar      1 <0>         0.4879
     20 C14         5.7901   10.5148   -0.3562 C.ar      1 <0>        -0.2865
     21 C15         5.6579   11.8860   -0.4998 C.ar      1 <0>         0.0651
     22 C16         6.7818   12.6807   -0.3416 C.ar      1 <0>        -0.2200
     23 C17         8.0005   12.0823   -0.0454 C.ar      1 <0>         0.5169
     24 N5          8.0928   10.7675    0.0906 N.ar      1 <0>        -0.5864
     25 N6          9.1334   12.8715    0.1146 N.pl3     1 <0>        -0.8224
     26 N7          6.6855   14.1504   -0.4869 N.pl3     1 <0>         0.0537
     27 O1          5.7055   14.7345   -0.0869 O.2       1 <0>        -0.1487
     28 O2          7.5870   14.7669   -1.0055 O.3       1 <0>        -0.1849
     29 C18         5.8740   -0.0892    0.5605 C.cat     1 <0>         0.3950
     30 N8          4.9806   -0.9159    1.1051 N.pl3     1 <0>        -0.4886
     31 H1          4.1162   -0.6627    1.4651 H         1 <0>         0.4601
     32 C19         5.4875   -2.1654    1.0686 C.2       1 <0>         0.0211
     33 C20         6.7056   -2.0947    0.4935 C.2       1 <0>         0.0238
     34 N9          6.9330   -0.8032    0.1775 N.pl3     1 <0>        -0.4884
     35 H2          2.2105   -1.6239   -1.8242 H         1 <0>         0.1564
     36 H3          4.1942   -0.1979   -1.5430 H         1 <0>         0.1437
     37 H4          0.1024    0.7071    1.0640 H         1 <0>         0.1618
     38 H5          7.7832    1.8408    0.7881 H         1 <0>         0.1840
     39 H6          4.4160    5.7732   -0.2411 H         1 <0>         0.4278
     40 H7          6.8501    6.1556    1.1394 H         1 <0>         0.0904
     41 H8          7.2079    6.0076   -0.5980 H         1 <0>         0.0905
     42 H9          5.6143    7.8445   -1.0826 H         1 <0>         0.0829
     43 H10         5.2565    7.9925    0.6547 H         1 <0>         0.0830
     44 H11         8.0483    8.2269    0.2979 H         1 <0>         0.4141
     45 H12         4.9330    9.8683   -0.4738 H         1 <0>         0.1494
     46 H13         4.6991   12.3265   -0.7306 H         1 <0>         0.1591
     47 H14         9.0817   13.8292   -0.0306 H         1 <0>         0.4238
     48 H15         9.9756   12.4646    0.3715 H         1 <0>         0.4150
     49 H16         5.0056   -3.0602    1.4339 H         1 <0>         0.2285
     50 H17         7.3755   -2.9227    0.3146 H         1 <0>         0.2302
     51 H18         7.7297   -0.4541   -0.2518 H         1 <0>         0.4644
@<TRIPOS>BOND
     1    1    6 ar
     2    1    2 ar
     3    1   35 1
     4    2    3 ar
     5    2   36 1
     6    3    4 ar
     7    3    9 1
     8    4    5 ar
     9    4    8 1
    10    5    6 ar
    11    5   37 1
    12    6    7 1
    13    9   14 ar
    14    9   10 ar
    15   10   11 ar
    16   10   29 1
    17   11   12 ar
    18   11   38 1
    19   12   13 ar
    20   13   14 ar
    21   13   15 1
    22   15   16 1
    23   15   39 1
    24   16   17 1
    25   16   40 1
    26   16   41 1
    27   17   18 1
    28   17   42 1
    29   17   43 1
    30   18   19 1
    31   18   44 1
    32   19   24 ar
    33   19   20 ar
    34   20   21 ar
    35   20   45 1
    36   21   22 ar
    37   21   46 1
    38   22   23 ar
    39   22   26 1
    40   23   24 ar
    41   23   25 1
    42   25   47 1
    43   25   48 1
    44   26   27 2
    45   26   28 1
    46   29   34 2
    47   29   30 1
    48   30   31 1
    49   30   32 1
    50   32   33 2
    51   32   49 1
    52   33   34 1
    53   33   50 1
    54   34   51 1
@<TRIPOS>MOLECULE
ZINC12504456
   53    55     0     0     0
SMALL
USER_CHARGES

@<TRIPOS>ATOM
      1 C1         -0.0187    1.5258    0.0104 C.3       1 <0>        -0.1530
      2 C2          0.0021   -0.0041    0.0020 C.3       1 <0>        -0.1278
      3 C3          0.7421   -0.5109    1.2415 C.3       1 <0>         0.1693
      4 H1          1.7350   -0.0630    1.2804 H         1 <0>         0.1025
      5 C4          0.8719   -2.0337    1.1708 C.3       1 <0>         0.0627
      6 O1         -0.4227   -2.6149    1.0028 O.3       1 <0>        -0.5690
      7 N1         -0.0083   -0.1401    2.4439 N.pl3     1 <0>        -0.6822
      8 C5          0.6480   -0.0075    3.6565 C.ar      1 <0>         0.6304
      9 N2          1.9579   -0.2164    3.7024 N.ar      1 <0>        -0.6269
     10 C6          2.6319   -0.1015    4.8410 C.ar      1 <0>         0.5424
     11 C7          1.9280    0.2482    6.0067 C.ar      1 <0>        -0.1553
     12 C8          0.5430    0.4594    5.9101 C.ar      1 <0>         0.3481
     13 N3         -0.0514    0.3282    4.7280 N.ar      1 <0>        -0.6168
     14 N4          0.1199    0.7821    7.1746 N.pl3     1 <0>        -0.4704
     15 C9          1.2142    0.7624    7.9893 C.2       1 <0>         0.2308
     16 N5          2.2736    0.4491    7.3023 N.2       1 <0>        -0.4537
     17 C10        -1.2545    1.0917    7.5763 C.3       1 <0>         0.1345
     18 C11        -1.7141    0.0890    8.6365 C.3       1 <0>        -0.1626
     19 C12        -1.3101    2.5071    8.1548 C.3       1 <0>        -0.1624
     20 N6          3.9973   -0.3216    4.8792 N.pl3     1 <0>        -0.6835
     21 C13         4.7151   -0.6857    3.6551 C.3       1 <0>         0.1803
     22 C14         6.1784   -0.8678    3.9660 C.ar      1 <0>        -0.1412
     23 C15         7.0757    0.1451    3.6870 C.ar      1 <0>        -0.0826
     24 C16         8.4183   -0.0214    3.9716 C.ar      1 <0>        -0.1305
     25 C17         8.8666   -1.2014    4.5364 C.ar      1 <0>        -0.0933
     26 C18         7.9735   -2.2168    4.8176 C.ar      1 <0>        -0.1485
     27 C19         6.6247   -2.0501    4.5378 C.ar      1 <0>         0.1259
     28 O2          5.7431   -3.0455    4.8188 O.3       1 <0>        -0.4924
     29 H2          1.0039    1.9031    0.0027 H         1 <0>         0.0535
     30 H3         -0.5459    1.8868   -0.8726 H         1 <0>         0.0561
     31 H4         -0.5289    1.8773    0.9072 H         1 <0>         0.0554
     32 H5         -1.0205   -0.3814    0.0098 H         1 <0>         0.0768
     33 H6          0.5123   -0.3556   -0.8948 H         1 <0>         0.0771
     34 H7          1.5047   -2.3056    0.3260 H         1 <0>         0.0516
     35 H8          1.3192   -2.4035    2.0935 H         1 <0>         0.0505
     36 H9         -0.4165   -3.5805    0.9499 H         1 <0>         0.3775
     37 H10        -0.9647    0.0126    2.3909 H         1 <0>         0.4143
     38 H11         1.2028    0.9760    9.0479 H         1 <0>         0.2135
     39 H12        -1.9099    1.0282    6.7077 H         1 <0>         0.1060
     40 H13        -1.0587    0.1525    9.5051 H         1 <0>         0.0654
     41 H14        -2.7367    0.3194    8.9354 H         1 <0>         0.0791
     42 H15        -1.6745   -0.9193    8.2244 H         1 <0>         0.0629
     43 H16        -0.6547    2.5706    9.0233 H         1 <0>         0.0653
     44 H17        -0.9827    3.2214    7.3994 H         1 <0>         0.0628
     45 H18        -2.3327    2.7375    8.4536 H         1 <0>         0.0790
     46 H19         4.4793   -0.2349    5.7164 H         1 <0>         0.4197
     47 H20         4.3092   -1.6167    3.2592 H         1 <0>         0.0750
     48 H21         4.5966    0.1059    2.9153 H         1 <0>         0.0762
     49 H22         6.7281    1.0676    3.2460 H         1 <0>         0.1291
     50 H23         9.1182    0.7713    3.7521 H         1 <0>         0.1282
     51 H24         9.9159   -1.3292    4.7575 H         1 <0>         0.1289
     52 H25         8.3241   -3.1382    5.2587 H         1 <0>         0.1307
     53 H26         5.6163   -3.6744    4.0952 H         1 <0>         0.3907
@<TRIPOS>BOND
     1    1    2 1
     2    1   29 1
     3    1   30 1
     4    1   31 1
     5    2    3 1
     6    2   32 1
     7    2   33 1
     8    3    4 1
     9    3    5 1
    10    3    7 1
    11    5    6 1
    12    5   34 1
    13    5   35 1
    14    6   36 1
    15    7    8 1
    16    7   37 1
    17    8   13 ar
    18    8    9 ar
    19    9   10 ar
    20   10   11 ar
    21   10   20 1
    22   11   16 1
    23   11   12 ar
    24   12   13 ar
    25   12   14 1
    26   14   15 1
    27   14   17 1
    28   15   16 2
    29   15   38 1
    30   17   18 1
    31   17   19 1
    32   17   39 1
    33   18   40 1
    34   18   41 1
    35   18   42 1
    36   19   43 1
    37   19   44 1
    38   19   45 1
    39   20   21 1
    40   20   46 1
    41   21   22 1
    42   21   47 1
    43   21   48 1
    44   22   27 ar
    45   22   23 ar
    46   23   24 ar
    47   23   49 1
    48   24   25 ar
    49   24   50 1
    50   25   26 ar
    51   25   51 1
    52   26   27 ar
    53   26   52 1
    54   27   28 1
    55   28   53 1
@<TRIPOS>MOLECULE
ZINC06920405
   66    68     0     0     0
SMALL
USER_CHARGES

@<TRIPOS>ATOM
      1 C1          3.0864    1.5328    1.7299 C.3       1 <0>         0.0889
      2 C2          2.7073    0.0877    1.3996 C.3       1 <0>         0.1023
      3 H1          2.7508   -0.0619    0.3208 H         1 <0>         0.0944
      4 C3          1.2872   -0.1941    1.8972 C.3       1 <0>         0.0912
      5 H2          0.5832    0.4546    1.3761 H         1 <0>         0.0812
      6 C4          0.9376   -1.6588    1.6169 C.3       1 <0>         0.0818
      7 H3          0.9435   -1.8357    0.5414 H         1 <0>         0.0835
      8 C5          1.9787   -2.5586    2.2899 C.3       1 <0>         0.0662
      9 H4          1.9383   -2.4176    3.3700 H         1 <0>         0.0929
     10 C6          3.3721   -2.1855    1.7771 C.3       1 <0>         0.2140
     11 H5          4.1210   -2.7936    2.2844 H         1 <0>         0.1041
     12 O1          3.6215   -0.8034    2.0416 O.3       1 <0>        -0.3636
     13 O2          3.4407   -2.4212    0.3693 O.3       1 <0>        -0.3776
     14 C7          4.7479   -2.2580   -0.1843 C.3       1 <0>         0.0783
     15 C8          4.7405   -2.7011   -1.6487 C.3       1 <0>         0.1054
     16 H6          4.3929   -3.7321   -1.7148 H         1 <0>         0.0845
     17 C9          6.1579   -2.6028   -2.2190 C.3       1 <0>         0.0947
     18 H7          6.5217   -1.5805   -2.1162 H         1 <0>         0.0726
     19 C10         6.1316   -2.9902   -3.7008 C.3       1 <0>         0.0856
     20 H8          5.8151   -4.0284   -3.8007 H         1 <0>         0.0830
     21 C11         5.1440   -2.0802   -4.4377 C.3       1 <0>         0.0560
     22 H9          5.4874   -1.0474   -4.3797 H         1 <0>         0.0823
     23 C12         3.7659   -2.1987   -3.7817 C.3       1 <0>         0.2105
     24 H10         3.0690   -1.5212   -4.2749 H         1 <0>         0.1458
     25 O3          3.8668   -1.8546   -2.3984 O.3       1 <0>        -0.3501
     26 O4          3.2931   -3.5416   -3.9054 O.3       1 <0>        -0.3507
     27 C13         1.9325   -3.6419   -4.3305 C.3       1 <0>         0.2779
     28 C14         1.4521   -5.1040   -4.2082 C.3       1 <0>         0.1049
     29 H11         0.7774   -5.3603   -5.0250 H         1 <0>         0.0952
     30 C15         0.6969   -5.0903   -2.8512 C.3       1 <0>         0.0453
     31 H12         1.3859   -5.2213   -2.0168 H         1 <0>         0.0954
     32 C16         0.0984   -3.6611   -2.8621 C.3       1 <0>         0.0551
     33 H13        -0.8233   -3.6413   -3.4436 H         1 <0>         0.0910
     34 O5          1.0990   -2.8403   -3.4854 O.3       1 <0>        -0.3426
     35 C17        -0.1664   -3.1854   -1.4322 C.3       1 <0>         0.0768
     36 O6         -0.8427   -1.9270   -1.4665 O.3       1 <0>        -0.5602
     37 O7         -0.3330   -6.0806   -2.8249 O.3       1 <0>        -0.5495
     38 O8          2.5625   -6.0025   -4.1678 O.3       1 <0>        -0.5279
     39 C18         1.8061   -3.1717   -5.7810 C.3       1 <0>         0.0559
     40 O9          2.0894   -1.7730   -5.8547 O.3       1 <0>        -0.5613
     41 O10         5.0582   -2.4787   -5.8073 O.3       1 <0>        -0.5491
     42 O11         7.4375   -2.8327   -4.2593 O.3       1 <0>        -0.5637
     43 O12         7.0217   -3.4911   -1.5072 O.3       1 <0>        -0.5525
     44 O13         1.7031   -3.9252    1.9760 O.3       1 <0>        -0.5550
     45 O14        -0.3592   -1.9497    2.1421 O.3       1 <0>        -0.5610
     46 O15         1.2155    0.0548    3.3026 O.3       1 <0>        -0.5494
     47 O16         4.3644    1.8311    1.1645 O.3       1 <0>        -0.5664
     48 H14         2.3387    2.2085    1.3147 H         1 <0>         0.0616
     49 H15         3.1293    1.6589    2.8117 H         1 <0>         0.0655
     50 H16         5.0401   -1.2097   -0.1234 H         1 <0>         0.0678
     51 H17         5.4582   -2.8663    0.3758 H         1 <0>         0.0752
     52 H18        -0.7867   -3.9172   -0.9148 H         1 <0>         0.0553
     53 H19         0.7810   -3.0744   -0.9048 H         1 <0>         0.0683
     54 H20        -1.0015   -1.5419   -0.5938 H         1 <0>         0.3790
     55 H21        -0.8310   -6.1082   -1.9965 H         1 <0>         0.3887
     56 H22         2.3125   -6.9335   -4.0913 H         1 <0>         0.3874
     57 H23         2.5140   -3.7191   -6.4034 H         1 <0>         0.0777
     58 H24         0.7921   -3.3563   -6.1357 H         1 <0>         0.0640
     59 H25         2.0281   -1.4058   -6.7471 H         1 <0>         0.3841
     60 H26         4.4491   -1.9442   -6.3350 H         1 <0>         0.3814
     61 H27         7.4943   -3.0610   -5.1972 H         1 <0>         0.3913
     62 H28         7.9379   -3.4806   -1.8165 H         1 <0>         0.3914
     63 H29         2.3247   -4.5523    2.3702 H         1 <0>         0.3865
     64 H30        -0.6455   -2.8624    1.9999 H         1 <0>         0.3897
     65 H31         0.3421   -0.1038    3.6860 H         1 <0>         0.3864
     66 H32         4.6690    2.7330    1.3347 H         1 <0>         0.3824
@<TRIPOS>BOND
     1    1    2 1
     2    1   47 1
     3    1   48 1
     4    1   49 1
     5    2    3 1
     6    2   12 1
     7    2    4 1
     8    4    5 1
     9    4    6 1
    10    4   46 1
    11    6    7 1
    12    6    8 1
    13    6   45 1
    14    8    9 1
    15    8   10 1
    16    8   44 1
    17   10   11 1
    18   10   12 1
    19   10   13 1
    20   13   14 1
    21   14   15 1
    22   14   50 1
    23   14   51 1
    24   15   16 1
    25   15   25 1
    26   15   17 1
    27   17   18 1
    28   17   19 1
    29   17   43 1
    30   19   20 1
    31   19   21 1
    32   19   42 1
    33   21   22 1
    34   21   23 1
    35   21   41 1
    36   23   24 1
    37   23   25 1
    38   23   26 1
    39   26   27 1
    40   27   34 1
    41   27   28 1
    42   27   39 1
    43   28   29 1
    44   28   30 1
    45   28   38 1
    46   30   31 1
    47   30   32 1
    48   30   37 1
    49   32   33 1
    50   32   34 1
    51   32   35 1
    52   35   36 1
    53   35   52 1
    54   35   53 1
    55   36   54 1
    56   37   55 1
    57   38   56 1
    58   39   40 1
    59   39   57 1
    60   39   58 1
    61   40   59 1
    62   41   60 1
    63   42   61 1
    64   43   62 1
    65   44   63 1
    66   45   64 1
    67   46   65 1
    68   47   66 1
@<TRIPOS>MOLECULE
ZINC40164424
   66    68     0     0     0
SMALL
USER_CHARGES

@<TRIPOS>ATOM
      1 C1          0.2390    1.1241   -0.6543 C.3       1 <0>         0.0888
      2 C2          0.1432   -0.3941   -0.4903 C.3       1 <0>         0.1109
      3 H1          0.6825   -0.8822   -1.3021 H         1 <0>         0.0837
      4 C3         -1.3269   -0.8197   -0.5254 C.3       1 <0>         0.0877
      5 H2         -1.7555   -0.5693   -1.4958 H         1 <0>         0.0843
      6 C4         -1.4180   -2.3322   -0.3004 C.3       1 <0>         0.0852
      7 H3         -0.9120   -2.8529   -1.1134 H         1 <0>         0.0741
      8 C5         -0.7435   -2.6809    1.0299 C.3       1 <0>         0.0617
      9 H4         -1.2800   -2.1996    1.8475 H         1 <0>         0.0899
     10 C6          0.7041   -2.1834    1.0049 C.3       1 <0>         0.2296
     11 H5          1.2507   -2.6950    0.2128 H         1 <0>         0.0599
     12 O1          0.7186   -0.7754    0.7610 O.3       1 <0>        -0.3733
     13 O2          1.3233   -2.4556    2.2637 O.3       1 <0>        -0.3533
     14 C7          2.7144   -2.1318    2.3093 C.3       1 <0>         0.0856
     15 C8          3.2699   -2.4625    3.6960 C.3       1 <0>         0.1197
     16 H6          2.6877   -1.9398    4.4549 H         1 <0>         0.0820
     17 C9          4.7327   -2.0186    3.7792 C.3       1 <0>         0.0895
     18 H7          5.3077   -2.5101    2.9945 H         1 <0>         0.0756
     19 C10         5.2989   -2.4071    5.1484 C.3       1 <0>         0.0870
     20 H8          4.7561   -1.8773    5.9312 H         1 <0>         0.0757
     21 C11         5.1376   -3.9176    5.3455 C.3       1 <0>         0.0558
     22 H9          5.7208   -4.4475    4.5923 H         1 <0>         0.0789
     23 C12         3.6592   -4.2881    5.2018 C.3       1 <0>         0.2380
     24 H10         3.0821   -3.7895    5.9805 H         1 <0>         0.0820
     25 O3          3.1874   -3.8716    3.9188 O.3       1 <0>        -0.3532
     26 O4          3.5081   -5.7034    5.3289 O.3       1 <0>        -0.3338
     27 C13         2.2075   -6.1130    5.7565 C.3       1 <0>         0.2782
     28 C14         2.1986   -7.6335    6.0232 C.3       1 <0>         0.1055
     29 H11         1.2469   -8.0740    5.7258 H         1 <0>         0.0988
     30 C15         2.3803   -7.6989    7.5642 C.3       1 <0>         0.0434
     31 H12         3.4331   -7.6324    7.8388 H         1 <0>         0.0938
     32 C16         1.6069   -6.4310    8.0056 C.3       1 <0>         0.0510
     33 H13         0.5386   -6.6401    8.0626 H         1 <0>         0.0949
     34 O5          1.8703   -5.4562    6.9839 O.3       1 <0>        -0.3486
     35 C17         2.1234   -5.9379    9.3588 C.3       1 <0>         0.0781
     36 O6          1.3230   -4.8407    9.8032 O.3       1 <0>        -0.5614
     37 O7          1.7845   -8.8805    8.1034 O.3       1 <0>        -0.5479
     38 O8          3.2850   -8.2741    5.3513 O.3       1 <0>        -0.5295
     39 C18         1.1750   -5.7666    4.6818 C.3       1 <0>         0.0621
     40 O9          1.0641   -4.3464    4.5680 O.3       1 <0>        -0.5306
     41 O10         5.5978   -4.2810    6.6486 O.3       1 <0>        -0.5560
     42 O11         6.6839   -2.0606    5.2088 O.3       1 <0>        -0.5573
     43 O12         4.8119   -0.6015    3.6130 O.3       1 <0>        -0.5483
     44 O13        -0.7597   -4.0976    1.2165 O.3       1 <0>        -0.5576
     45 O14        -2.7906   -2.7277   -0.2606 O.3       1 <0>        -0.5559
     46 O15        -2.0461   -0.1383    0.5044 O.3       1 <0>        -0.5450
     47 O16         1.6127    1.5085   -0.7378 O.3       1 <0>        -0.5674
     48 H14        -0.2784    1.4244   -1.5655 H         1 <0>         0.0641
     49 H15        -0.2234    1.6121    0.2036 H         1 <0>         0.0692
     50 H16         3.2475   -2.7124    1.5564 H         1 <0>         0.0571
     51 H17         2.8467   -1.0685    2.1090 H         1 <0>         0.0910
     52 H18         2.0663   -6.7475   10.0864 H         1 <0>         0.0599
     53 H19         3.1591   -5.6140    9.2562 H         1 <0>         0.0578
     54 H20         1.5940   -4.4766   10.6570 H         1 <0>         0.3839
     55 H21         1.8736   -8.9634    9.0627 H         1 <0>         0.3892
     56 H22         3.3228   -9.2307    5.4879 H         1 <0>         0.3886
     57 H23         1.4915   -6.1840    3.7259 H         1 <0>         0.0703
     58 H24         0.2077   -6.1855    4.9588 H         1 <0>         0.0534
     59 H25         0.3711   -4.0535    3.9606 H         1 <0>         0.3744
     60 H26         5.5249   -5.2256    6.8422 H         1 <0>         0.3892
     61 H27         7.1077   -2.2790    6.0501 H         1 <0>         0.3928
     62 H28         5.7119   -0.2503    3.6546 H         1 <0>         0.3918
     63 H29        -0.3479   -4.3904    2.0410 H         1 <0>         0.3873
     64 H30        -2.9230   -3.6753   -0.1207 H         1 <0>         0.3945
     65 H31        -2.9865   -0.3607    0.5406 H         1 <0>         0.3882
     66 H32         1.7492    2.4600   -0.8430 H         1 <0>         0.3845
@<TRIPOS>BOND
     1    1    2 1
     2    1   47 1
     3    1   48 1
     4    1   49 1
     5    2    3 1
     6    2   12 1
     7    2    4 1
     8    4    5 1
     9    4    6 1
    10    4   46 1
    11    6    7 1
    12    6    8 1
    13    6   45 1
    14    8    9 1
    15    8   10 1
    16    8   44 1
    17   10   11 1
    18   10   12 1
    19   10   13 1
    20   13   14 1
    21   14   15 1
    22   14   50 1
    23   14   51 1
    24   15   16 1
    25   15   25 1
    26   15   17 1
    27   17   18 1
    28   17   19 1
    29   17   43 1
    30   19   20 1
    31   19   21 1
    32   19   42 1
    33   21   22 1
    34   21   23 1
    35   21   41 1
    36   23   24 1
    37   23   25 1
    38   23   26 1
    39   26   27 1
    40   27   34 1
    41   27   28 1
    42   27   39 1
    43   28   29 1
    44   28   30 1
    45   28   38 1
    46   30   31 1
    47   30   32 1
    48   30   37 1
    49   32   33 1
    50   32   34 1
    51   32   35 1
    52   35   36 1
    53   35   52 1
    54   35   53 1
    55   36   54 1
    56   37   55 1
    57   38   56 1
    58   39   40 1
    59   39   57 1
    60   39   58 1
    61   40   59 1
    62   41   60 1
    63   42   61 1
    64   43   62 1
    65   44   63 1
    66   45   64 1
    67   46   65 1
    68   47   66 1
@<TRIPOS>MOLECULE
ZINC40164425
   66    68     0     0     0
SMALL
USER_CHARGES

@<TRIPOS>ATOM
      1 C1         -1.4418    1.8957   -1.2757 C.3       1 <0>         0.0889
      2 C2         -1.1242    0.4222   -1.0132 C.3       1 <0>         0.1034
      3 H1         -0.3335    0.0949   -1.6883 H         1 <0>         0.0945
      4 C3         -2.3797   -0.4209   -1.2506 C.3       1 <0>         0.0899
      5 H2         -2.6849   -0.3343   -2.2934 H         1 <0>         0.0779
      6 C4         -2.0701   -1.8859   -0.9278 C.3       1 <0>         0.0900
      7 H3         -1.3011   -2.2542   -1.6069 H         1 <0>         0.0741
      8 C5         -1.5683   -1.9841    0.5161 C.3       1 <0>         0.0655
      9 H4         -2.3555   -1.6623    1.1980 H         1 <0>         0.0923
     10 C6         -0.3441   -1.0806    0.6853 C.3       1 <0>         0.2148
     11 H5         -0.0084   -1.1135    1.7218 H         1 <0>         0.1046
     12 O1         -0.6925    0.2615    0.3396 O.3       1 <0>        -0.3629
     13 O2          0.7060   -1.5358   -0.1704 O.3       1 <0>        -0.3776
     14 C7          1.9508   -0.8629    0.0287 C.3       1 <0>         0.0803
     15 C8          2.9781   -1.3820   -0.9794 C.3       1 <0>         0.1223
     16 H6          3.0489   -2.4668   -0.9003 H         1 <0>         0.0806
     17 C9          4.3444   -0.7582   -0.6832 C.3       1 <0>         0.0888
     18 H7          4.2650    0.3282   -0.7222 H         1 <0>         0.0768
     19 C10         5.3532   -1.2356   -1.7323 C.3       1 <0>         0.0875
     20 H8          5.4700   -2.3170   -1.6603 H         1 <0>         0.0750
     21 C11         4.8361   -0.8678   -3.1265 C.3       1 <0>         0.0558
     22 H9          4.7666    0.2164   -3.2148 H         1 <0>         0.0791
     23 C12         3.4508   -1.4874   -3.3283 C.3       1 <0>         0.2394
     24 H10         3.5279   -2.5736   -3.2801 H         1 <0>         0.0819
     25 O3          2.5699   -1.0263   -2.3019 O.3       1 <0>        -0.3538
     26 O4          2.9379   -1.1022   -4.6052 O.3       1 <0>        -0.3334
     27 C13         1.9417   -1.9867   -5.1223 C.3       1 <0>         0.2788
     28 C14         1.4830   -1.5022   -6.5146 C.3       1 <0>         0.1056
     29 H11         0.4166   -1.6787   -6.6548 H         1 <0>         0.0978
     30 C15         2.3213   -2.3972   -7.4676 C.3       1 <0>         0.0434
     31 H12         3.3164   -1.9806   -7.6237 H         1 <0>         0.0941
     32 C16         2.3884   -3.7131   -6.6522 C.3       1 <0>         0.0511
     33 H13         1.4813   -4.2983   -6.8032 H         1 <0>         0.0944
     34 O5          2.4924   -3.2995   -5.2805 O.3       1 <0>        -0.3479
     35 C17         3.6184   -4.5273   -7.0583 C.3       1 <0>         0.0784
     36 O6          3.6007   -5.7862   -6.3824 O.3       1 <0>        -0.5614
     37 O7          1.6484   -2.5955   -8.7126 O.3       1 <0>        -0.5480
     38 O8          1.7964   -0.1206   -6.7010 O.3       1 <0>        -0.5286
     39 C18         0.7466   -2.0366   -4.1683 C.3       1 <0>         0.0649
     40 O9          1.1366   -2.6716   -2.9490 O.3       1 <0>        -0.5341
     41 O10         5.7346   -1.3710   -4.1172 O.3       1 <0>        -0.5562
     42 O11         6.6142   -0.6026   -1.5059 O.3       1 <0>        -0.5576
     43 O12         4.7804   -1.1588    0.6174 O.3       1 <0>        -0.5515
     44 O13        -1.2090   -3.3365    0.8059 O.3       1 <0>        -0.5522
     45 O14        -3.2557   -2.6694   -1.0780 O.3       1 <0>        -0.5621
     46 O15        -3.4337    0.0433   -0.4045 O.3       1 <0>        -0.5489
     47 O16        -0.2443    2.6678   -1.1673 O.3       1 <0>        -0.5648
     48 H14        -1.8552    2.0052   -2.2783 H         1 <0>         0.0597
     49 H15        -2.1682    2.2470   -0.5428 H         1 <0>         0.0650
     50 H16         1.8114    0.2087   -0.1138 H         1 <0>         0.0694
     51 H17         2.3080   -1.0514    1.0411 H         1 <0>         0.0763
     52 H18         3.6050   -4.6931   -8.1355 H         1 <0>         0.0598
     53 H19         4.5217   -3.9814   -6.7859 H         1 <0>         0.0577
     54 H20         4.3530   -6.3562   -6.5927 H         1 <0>         0.3838
     55 H21         2.1351   -3.1484   -9.3390 H         1 <0>         0.3891
     56 H22         1.5281    0.2311   -7.5609 H         1 <0>         0.3882
     57 H23         0.4074   -1.0224   -3.9575 H         1 <0>         0.0679
     58 H24        -0.0631   -2.6020   -4.6296 H         1 <0>         0.0510
     59 H25         0.4073   -2.8185   -2.3313 H         1 <0>         0.3772
     60 H26         5.4685   -1.1741   -5.0258 H         1 <0>         0.3894
     61 H27         7.3019   -0.8594   -2.1353 H         1 <0>         0.3928
     62 H28         5.6414   -0.7993    0.8716 H         1 <0>         0.3922
     63 H29        -0.8818   -3.4724    1.7056 H         1 <0>         0.3867
     64 H30        -3.1323   -3.6097   -0.8889 H         1 <0>         0.3937
     65 H31        -4.2615   -0.4468   -0.5024 H         1 <0>         0.3869
     66 H32        -0.3709    3.6139   -1.3219 H         1 <0>         0.3821
@<TRIPOS>BOND
     1    1    2 1
     2    1   47 1
     3    1   48 1
     4    1   49 1
     5    2    3 1
     6    2   12 1
     7    2    4 1
     8    4    5 1
     9    4    6 1
    10    4   46 1
    11    6    7 1
    12    6    8 1
    13    6   45 1
    14    8    9 1
    15    8   10 1
    16    8   44 1
    17   10   11 1
    18   10   12 1
    19   10   13 1
    20   13   14 1
    21   14   15 1
    22   14   50 1
    23   14   51 1
    24   15   16 1
    25   15   25 1
    26   15   17 1
    27   17   18 1
    28   17   19 1
    29   17   43 1
    30   19   20 1
    31   19   21 1
    32   19   42 1
    33   21   22 1
    34   21   23 1
    35   21   41 1
    36   23   24 1
    37   23   25 1
    38   23   26 1
    39   26   27 1
    40   27   34 1
    41   27   28 1
    42   27   39 1
    43   28   29 1
    44   28   30 1
    45   28   38 1
    46   30   31 1
    47   30   32 1
    48   30   37 1
    49   32   33 1
    50   32   34 1
    51   32   35 1
    52   35   36 1
    53   35   52 1
    54   35   53 1
    55   36   54 1
    56   37   55 1
    57   38   56 1
    58   39   40 1
    59   39   57 1
    60   39   58 1
    61   40   59 1
    62   41   60 1
    63   42   61 1
    64   43   62 1
    65   44   63 1
    66   45   64 1
    67   46   65 1
    68   47   66 1
@<TRIPOS>MOLECULE
ZINC40164426
   66    68     0     0     0
SMALL
USER_CHARGES

@<TRIPOS>ATOM
      1 C1          0.4868    2.1113    1.2441 C.3       1 <0>         0.0893
      2 C2          0.8641    0.6796    0.8582 C.3       1 <0>         0.1099
      3 H1          1.6957    0.7002    0.1539 H         1 <0>         0.0839
      4 C3         -0.3392   -0.0076    0.2073 C.3       1 <0>         0.0875
      5 H2         -0.6064    0.5173   -0.7098 H         1 <0>         0.0850
      6 C4          0.0273   -1.4582   -0.1213 C.3       1 <0>         0.0845
      7 H3          0.8395   -1.4734   -0.8481 H         1 <0>         0.0754
      8 C5          0.4754   -2.1634    1.1626 C.3       1 <0>         0.0613
      9 H4         -0.3529   -2.1918    1.8706 H         1 <0>         0.0843
     10 C6          1.6471   -1.3929    1.7765 C.3       1 <0>         0.2257
     11 H5          2.4891   -1.3996    1.0843 H         1 <0>         0.0621
     12 O1          1.2487   -0.0439    2.0289 O.3       1 <0>        -0.3716
     13 O2          2.0345   -2.0132    3.0042 O.3       1 <0>        -0.3531
     14 C7          3.3241   -1.6162    3.4745 C.3       1 <0>         0.0783
     15 C8          3.5841   -2.2472    4.8438 C.3       1 <0>         0.1041
     16 H6          2.7710   -1.9904    5.5227 H         1 <0>         0.0852
     17 C9          4.9058   -1.7183    5.4070 C.3       1 <0>         0.0954
     18 H7          5.7135   -1.9391    4.7091 H         1 <0>         0.0714
     19 C10         5.1888   -2.3995    6.7495 C.3       1 <0>         0.0850
     20 H8          4.4069   -2.1386    7.4627 H         1 <0>         0.0838
     21 C11         5.2100   -3.9174    6.5449 C.3       1 <0>         0.0576
     22 H9          6.0238   -4.1826    5.8700 H         1 <0>         0.0838
     23 C12         3.8766   -4.3613    5.9377 C.3       1 <0>         0.2026
     24 H10         3.9020   -5.4348    5.7502 H         1 <0>         0.1505
     25 O3          3.6603   -3.6676    4.7072 O.3       1 <0>        -0.3518
     26 O4          2.8156   -4.0614    6.8468 O.3       1 <0>        -0.3502
     27 C13         1.7440   -5.0063    6.8215 C.3       1 <0>         0.2761
     28 C14         0.5613   -4.4796    7.6626 C.3       1 <0>         0.1048
     29 H11         0.0641   -5.2958    8.1866 H         1 <0>         0.0952
     30 C15        -0.3690   -3.8709    6.5781 C.3       1 <0>         0.0439
     31 H12        -0.0651   -2.8552    6.3249 H         1 <0>         0.0939
     32 C16        -0.1165   -4.8404    5.3961 C.3       1 <0>         0.0554
     33 H13        -0.7284   -5.7359    5.5040 H         1 <0>         0.0906
     34 O5          1.2777   -5.1764    5.4779 O.3       1 <0>        -0.3361
     35 C17        -0.4207   -4.1473    4.0665 C.3       1 <0>         0.0733
     36 O6         -0.3256   -5.0960    3.0021 O.3       1 <0>        -0.5607
     37 O7         -1.7360   -3.9078    6.9926 O.3       1 <0>        -0.5496
     38 O8          0.9985   -3.4783    8.5837 O.3       1 <0>        -0.5283
     39 C18         2.2224   -6.3485    7.3788 C.3       1 <0>         0.0551
     40 O9          3.1731   -6.9253    6.4812 O.3       1 <0>        -0.5576
     41 O10         5.4027   -4.5663    7.8034 O.3       1 <0>        -0.5483
     42 O11         6.4553   -1.9649    7.2485 O.3       1 <0>        -0.5636
     43 O12         4.8123   -0.3051    5.5975 O.3       1 <0>        -0.5497
     44 O13         0.8874   -3.4969    0.8560 O.3       1 <0>        -0.5613
     45 O14        -1.1123   -2.1280   -0.6639 O.3       1 <0>        -0.5557
     46 O15        -1.4470    0.0136    1.1097 O.3       1 <0>        -0.5458
     47 O16         1.6406    2.7894    1.7449 O.3       1 <0>        -0.5670
     48 H14         0.1088    2.6364    0.3669 H         1 <0>         0.0643
     49 H15        -0.2842    2.0887    2.0143 H         1 <0>         0.0684
     50 H16         4.0862   -1.9496    2.7702 H         1 <0>         0.0596
     51 H17         3.3604   -0.5303    3.5620 H         1 <0>         0.0887
     52 H18        -1.4285   -3.7330    4.0950 H         1 <0>         0.0528
     53 H19         0.2977   -3.3442    3.9026 H         1 <0>         0.0730
     54 H20        -0.4812   -4.7199    2.1249 H         1 <0>         0.3784
     55 H21        -2.3531   -3.5380    6.3464 H         1 <0>         0.3890
     56 H22         0.2917   -3.1159    9.1353 H         1 <0>         0.3876
     57 H23         2.6892   -6.1925    8.3513 H         1 <0>         0.0754
     58 H24         1.3714   -7.0208    7.4879 H         1 <0>         0.0643
     59 H25         3.5200   -7.7799    6.7715 H         1 <0>         0.3833
     60 H26         5.4265   -5.5314    7.7488 H         1 <0>         0.3827
     61 H27         6.6991   -2.3575    8.0979 H         1 <0>         0.3917
     62 H28         5.6162    0.0979    5.9530 H         1 <0>         0.3911
     63 H29         1.2840   -3.9674    1.6020 H         1 <0>         0.3975
     64 H30        -0.9516   -3.0531   -0.8953 H         1 <0>         0.3953
     65 H31        -2.2458   -0.4060    0.7618 H         1 <0>         0.3877
     66 H32         1.4749    3.7046    2.0096 H         1 <0>         0.3846
@<TRIPOS>BOND
     1    1    2 1
     2    1   47 1
     3    1   48 1
     4    1   49 1
     5    2    3 1
     6    2   12 1
     7    2    4 1
     8    4    5 1
     9    4    6 1
    10    4   46 1
    11    6    7 1
    12    6    8 1
    13    6   45 1
    14    8    9 1
    15    8   10 1
    16    8   44 1
    17   10   11 1
    18   10   12 1
    19   10   13 1
    20   13   14 1
    21   14   15 1
    22   14   50 1
    23   14   51 1
    24   15   16 1
    25   15   25 1
    26   15   17 1
    27   17   18 1
    28   17   19 1
    29   17   43 1
    30   19   20 1
    31   19   21 1
    32   19   42 1
    33   21   22 1
    34   21   23 1
    35   21   41 1
    36   23   24 1
    37   23   25 1
    38   23   26 1
    39   26   27 1
    40   27   34 1
    41   27   28 1
    42   27   39 1
    43   28   29 1
    44   28   30 1
    45   28   38 1
    46   30   31 1
    47   30   32 1
    48   30   37 1
    49   32   33 1
    50   32   34 1
    51   32   35 1
    52   35   36 1
    53   35   52 1
    54   35   53 1
    55   36   54 1
    56   37   55 1
    57   38   56 1
    58   39   40 1
    59   39   57 1
    60   39   58 1
    61   40   59 1
    62   41   60 1
    63   42   61 1
    64   43   62 1
    65   44   63 1
    66   45   64 1
    67   46   65 1
    68   47   66 1
@<TRIPOS>MOLECULE
ZINC01661760
   33    36     0     0     0
SMALL
NO_CHARGES

@<TRIPOS>ATOM
      1 C1         -0.0168    1.3885    0.0097 C.ar      1 <0>        -0.0975
      2 C2          1.1670    2.0942    0.0022 C.ar      1 <0>        -0.0849
      3 C3          2.3877    1.4300   -0.0135 C.ar      1 <0>        -0.0425
      4 C4          2.4244    0.0400   -0.0218 C.ar      1 <0>         0.0462
      5 C5          1.2097   -0.6720   -0.0136 C.ar      1 <0>        -0.2092
      6 C6          0.0021   -0.0041    0.0020 C.ar      1 <0>        -0.0305
      7 C7          1.5961   -2.1091   -0.0262 C.2       1 <0>         0.4018
      8 O1          0.8671   -3.0787   -0.0245 O.2       1 <0>        -0.3613
      9 C8          3.0863   -2.0810   -0.0414 C.2       1 <0>         0.0800
     10 C9          3.9915   -3.2858   -0.0579 C.3       1 <0>        -0.0168
     11 C10         5.4408   -2.8587   -0.0975 C.ar      1 <0>        -0.0824
     12 C11         6.1792   -2.1349   -1.0066 C.ar      1 <0>         0.0199
     13 C12         7.5215   -1.8947   -0.7704 C.ar      1 <0>        -0.4726
     14 C13         8.1159   -2.3833    0.3789 C.ar      1 <0>        -0.0017
     15 C14         7.3783   -3.1088    1.2913 C.ar      1 <0>        -0.0935
     16 C15         6.0261   -3.3547    1.0603 C.ar      1 <0>         0.2851
     17 N1          5.0830   -4.0496    1.8183 N.am      1 <0>        -0.5426
     18 C16         3.8707   -4.0579    1.2387 C.2       1 <0>         0.5203
     19 O2          2.8681   -4.5844    1.6729 O.2       1 <0>        -0.3680
     20 S1          8.4709   -0.9694   -1.9310 S.o2      1 <0>         2.6470
     21 O3          9.8375   -1.4605   -1.8459 O.2       1 <0>        -1.0122
     22 O4          7.8875   -1.2105   -3.2416 O.2       1 <0>        -1.0122
     23 O5          8.3704    0.4282   -1.5403 O.3       1 <0>        -1.0012
     24 N2          3.4689   -0.8476   -0.0379 N.2       1 <0>        -0.3552
     25 H1         -0.9594    1.9155    0.0260 H         1 <0>         0.1474
     26 H2          1.1458    3.1739    0.0082 H         1 <0>         0.1491
     27 H3          3.3087    1.9941   -0.0197 H         1 <0>         0.1490
     28 H4         -0.9244   -0.5590    0.0083 H         1 <0>         0.1417
     29 H5          5.7115   -1.7553   -1.9031 H         1 <0>         0.1860
     30 H6          9.1635   -2.1961    0.5628 H         1 <0>         0.1929
     31 H7          7.8498   -3.4873    2.1862 H         1 <0>         0.1809
     32 H8          5.2798   -4.4776    2.6662 H         1 <0>         0.4460
     33 H9          3.7568   -3.9270   -0.9076 H         1 <0>         0.1911
@<TRIPOS>BOND
     1    1    6 ar
     2    1    2 ar
     3    1   25 1
     4    2    3 ar
     5    2   26 1
     6    3    4 ar
     7    3   27 1
     8    4    5 ar
     9    4   24 1
    10    5    6 ar
    11    5    7 1
    12    6   28 1
    13    7    8 2
    14    7    9 1
    15    9   24 2
    16    9   10 1
    17   10   18 1
    18   10   11 1
    19   10   33 1
    20   11   16 ar
    21   11   12 ar
    22   12   13 ar
    23   12   29 1
    24   13   14 ar
    25   13   20 1
    26   14   15 ar
    27   14   30 1
    28   15   16 ar
    29   15   31 1
    30   16   17 1
    31   17   18 am
    32   17   32 1
    33   18   19 2
    34   20   21 2
    35   20   22 2
    36   20   23 1
@<TRIPOS>MOLECULE
ZINC01661760
   32    35     0     0     0
SMALL
USER_CHARGES

@<TRIPOS>ATOM
      1 C1         -0.0167    1.3810    0.0096 C.ar      1 <0>        -0.1552
      2 C2          1.1698    2.0922    0.0021 C.ar      1 <0>        -0.0822
      3 C3          2.3879    1.4369   -0.0135 C.ar      1 <0>        -0.1092
      4 C4          2.4316    0.0419   -0.0219 C.ar      1 <0>         0.1238
      5 C5          1.2160   -0.6755   -0.0137 C.ar      1 <0>        -0.2467
      6 C6          0.0021   -0.0041    0.0020 C.ar      1 <0>        -0.0313
      7 C7          1.5937   -2.1060   -0.0257 C.2       1 <0>         0.3784
      8 O1          0.8595   -3.0723   -0.0237 O.2       1 <0>        -0.3866
      9 C8          3.0913   -2.0862   -0.0407 C.2       1 <0>         0.3404
     10 N1          3.4775   -0.8309   -0.0375 N.2       1 <0>        -0.4667
     11 C9          3.9392   -3.2185   -0.0554 C.2       1 <0>        -0.4076
     12 C10         4.4633   -3.9181   -1.2434 C.ar      1 <0>        -0.0220
     13 C11         4.3180   -3.7259   -2.6152 C.ar      1 <0>        -0.0281
     14 C12         4.9542   -4.5760   -3.4950 C.ar      1 <0>        -0.6697
     15 C13         5.7346   -5.6177   -3.0181 C.ar      1 <0>        -0.0615
     16 C14         5.8858   -5.8187   -1.6614 C.ar      1 <0>        -0.1488
     17 C15         5.2535   -4.9721   -0.7589 C.ar      1 <0>         0.0960
     18 N2          5.2219   -4.9294    0.6255 N.pl3     1 <0>        -0.6252
     19 H1          5.6874   -5.5497    1.2081 H         1 <0>         0.3954
     20 C16         4.4544   -3.8965    1.0531 C.2       1 <0>         0.4816
     21 O2          4.2222   -3.5761    2.3436 O.3       1 <0>        -0.7076
     22 S1          4.7740   -4.3378   -5.2315 S.o2      1 <0>         2.7072
     23 O3          4.8861   -5.6489   -5.8516 O.2       1 <0>        -1.0776
     24 O4          3.4616   -3.7472   -5.4429 O.2       1 <0>        -1.0743
     25 O5          5.8448   -3.4460   -5.6488 O.3       1 <0>        -1.0759
     26 H2         -0.9599    1.9069    0.0260 H         1 <0>         0.1263
     27 H3          1.1449    3.1719    0.0082 H         1 <0>         0.1276
     28 H4          3.3062    2.0053   -0.0196 H         1 <0>         0.1315
     29 H5         -0.9244   -0.5590    0.0083 H         1 <0>         0.1253
     30 H6          3.7097   -2.9151   -2.9881 H         1 <0>         0.1145
     31 H7          6.2286   -6.2785   -3.7150 H         1 <0>         0.1217
     32 H8          6.4957   -6.6339   -1.3010 H         1 <0>         0.1064
@<TRIPOS>BOND
     1    1    6 ar
     2    1    2 ar
     3    1   26 1
     4    2    3 ar
     5    2   27 1
     6    3    4 ar
     7    3   28 1
     8    4   10 1
     9    4    5 ar
    10    5    6 ar
    11    5    7 1
    12    6   29 1
    13    7    8 2
    14    7    9 1
    15    9   10 2
    16    9   11 1
    17   11   20 2
    18   11   12 1
    19   12   17 ar
    20   12   13 ar
    21   13   14 ar
    22   13   30 1
    23   14   15 ar
    24   14   22 1
    25   15   16 ar
    26   15   31 1
    27   16   17 ar
    28   16   32 1
    29   17   18 1
    30   18   19 1
    31   18   20 1
    32   20   21 1
    33   22   23 2
    34   22   24 2
    35   22   25 1
@<TRIPOS>MOLECULE
ZINC01661760
   33    36     0     0     0
SMALL
USER_CHARGES
3-(3-hydroxy-1H-indol-2-yl)-2-oxo-indole-5-sulfonic acid
@<TRIPOS>ATOM
      1 C1          2.5834    2.3675   -3.4097 C.ar      1 <0>        -0.1784
      2 C2          3.7496    2.9775   -2.9658 C.ar      1 <0>        -0.0327
      3 C3          4.0114    3.1002   -1.6166 C.ar      1 <0>        -0.1664
      4 C4          3.1029    2.6105   -0.6840 C.ar      1 <0>         0.2077
      5 C5          1.9191    1.9920   -1.1373 C.ar      1 <0>        -0.2352
      6 C6          1.6748    1.8787   -2.5167 C.ar      1 <0>         0.0044
      7 C7          1.1803    1.5904   -0.0007 C.2       1 <0>         0.3668
      8 C8          1.9663    1.9989    1.1675 C.2       1 <0>         0.1739
      9 N1          3.1180    2.6034    0.6985 N.pl3     1 <0>        -0.6427
     10 H1          3.9690    3.0404    1.2415 H         1 <0>         0.4631
     11 C9          1.6207    1.8114    2.4945 C.2       1 <0>        -0.1122
     12 C10         2.3838    2.2011    3.6912 C.ar      1 <0>        -0.1534
     13 C11         3.6011    2.8482    3.8879 C.ar      1 <0>         0.0357
     14 C12         4.0529    3.0809    5.1727 C.ar      1 <0>        -0.6850
     15 C13         3.2967    2.6782    6.2620 C.ar      1 <0>         0.0176
     16 C14         2.0840    2.0402    6.0859 C.ar      1 <0>        -0.1669
     17 C15         1.6036    1.7930    4.7983 C.ar      1 <0>         0.1780
     18 N2          0.4648    1.1950    4.3570 N.am      1 <0>        -0.6477
     19 C16         0.3902    1.1612    3.0398 C.2       1 <0>         0.5629
     20 O1         -0.5214    0.6842    2.3836 O.2       1 <0>        -0.4663
     21 S1          5.5962    3.8920    5.4271 S.o2      1 <0>         2.6987
     22 O2          5.8524    4.6544    4.2556 O.2       1 <0>        -1.0570
     23 O3          5.5385    4.4785    6.7202 O.2       1 <0>        -1.0526
     24 O4          6.6676    2.8126    5.4865 O.3       1 <0>        -1.0732
     25 O5         -0.0110    0.9628    0.0073 O.3       1 <0>        -0.4331
     26 H2          2.3942    2.2797   -4.4694 H         1 <0>         0.1324
     27 H3          4.4591    3.3602   -3.6845 H         1 <0>         0.1363
     28 H4          4.9220    3.5767   -1.2845 H         1 <0>         0.1386
     29 H5          0.7698    1.4063   -2.8691 H         1 <0>         0.1342
     30 H6          4.1917    3.1624    3.0400 H         1 <0>         0.1275
     31 H7          3.6600    2.8658    7.2616 H         1 <0>         0.1463
     32 H8          1.5067    1.7327    6.9453 H         1 <0>         0.1325
     33 H9         -0.2678    0.8061    5.0796 H         1 <0>         0.4459
@<TRIPOS>BOND
     1    1    6 ar
     2    1    2 ar
     3    1   26 1
     4    2    3 ar
     5    2   27 1
     6    3    4 ar
     7    3   28 1
     8    4    9 1
     9    4    5 ar
    10    5    6 ar
    11    5    7 1
    12    6   29 1
    13    7    8 2
    14    7   25 1
    15    8    9 1
    16    8   11 1
    17    9   10 1
    18   11   19 1
    19   11   12 2
    20   12   17 ar
    21   12   13 ar
    22   13   14 ar
    23   13   30 1
    24   14   15 ar
    25   14   21 1
    26   15   16 ar
    27   15   31 1
    28   16   17 ar
    29   16   32 1
    30   17   18 2
    31   18   19 am
    32   18   33 1
    33   19   20 2
    34   21   22 2
    35   21   23 2
    36   21   24 1
@<TRIPOS>MOLECULE
ZINC58638454
   36    39     0     0     0
SMALL
USER_CHARGES

@<TRIPOS>ATOM
      1 C1          1.0856   -0.4596    0.7542 C.ar      1 <0>        -0.0832
      2 C2          2.2742    0.2440    0.7408 C.ar      1 <0>        -0.1072
      3 C3          2.3814    1.4102   -0.0062 C.ar      1 <0>         0.1804
      4 C4          1.2919    1.8655   -0.7379 C.ar      1 <0>        -0.1496
      5 C5          0.1054    1.1571   -0.7204 C.ar      1 <0>        -0.0148
      6 C6          0.0026   -0.0047    0.0253 C.ar      1 <0>        -0.1319
      7 Cl1        -1.2573    1.7249   -1.6338 Cl        1 <0>        -0.0755
      8 N1          3.5827    2.1243   -0.0212 N.pl3     1 <0>        -0.6509
      9 C7          4.7876    1.4521    0.0681 C.ar      1 <0>         0.4153
     10 C8          6.0341    2.2096    0.1758 C.ar      1 <0>        -0.0765
     11 C9          6.0766    3.6057    0.1939 C.ar      1 <0>        -0.1369
     12 C10         7.2943    4.2214    0.2981 C.ar      1 <0>         0.0773
     13 N2          8.4194    3.5315    0.3811 N.ar      1 <0>        -0.4714
     14 C11         8.4464    2.2147    0.3695 C.ar      1 <0>         0.1272
     15 C12         7.2551    1.5004    0.2664 C.ar      1 <0>        -0.0441
     16 C13         7.1958    0.0359    0.2463 C.ar      1 <0>        -0.1077
     17 C14         8.3565   -0.7366    0.3320 C.ar      1 <0>        -0.1123
     18 C15         8.2776   -2.0965    0.3119 C.ar      1 <0>        -0.0757
     19 C16         7.0321   -2.7341    0.2047 C.ar      1 <0>        -0.1079
     20 C17         5.8644   -1.9869    0.1182 C.ar      1 <0>        -0.0623
     21 C18         5.9309   -0.5872    0.1382 C.ar      1 <0>         0.1355
     22 N3          4.8025    0.1408    0.0611 N.ar      1 <0>        -0.5111
     23 C19         6.9625   -4.2076    0.1833 C.2       1 <0>         0.5195
     24 O1          7.9882   -4.8693    0.2588 O.co2     1 <0>        -0.6816
     25 O2          5.8791   -4.7673    0.0900 O.co2     1 <0>        -0.6793
     26 H1          1.0036   -1.3687    1.3314 H         1 <0>         0.1366
     27 H2          3.1195   -0.1121    1.3110 H         1 <0>         0.1448
     28 H3          1.3719    2.7720   -1.3194 H         1 <0>         0.1316
     29 H4         -0.9254   -0.5569    0.0374 H         1 <0>         0.1318
     30 H5          3.5711    3.0914   -0.0942 H         1 <0>         0.4165
     31 H6          5.1685    4.1865    0.1268 H         1 <0>         0.1362
     32 H7          7.3377    5.3004    0.3126 H         1 <0>         0.1575
     33 H8          9.3884    1.6910    0.4392 H         1 <0>         0.1690
     34 H9          9.3193   -0.2543    0.4140 H         1 <0>         0.1236
     35 H10         9.1791   -2.6874    0.3786 H         1 <0>         0.1360
     36 H11         4.9085   -2.4828    0.0363 H         1 <0>         0.1412
@<TRIPOS>BOND
     1    1    6 ar
     2    1    2 ar
     3    1   26 1
     4    2    3 ar
     5    2   27 1
     6    3    4 ar
     7    3    8 1
     8    4    5 ar
     9    4   28 1
    10    5    6 ar
    11    5    7 1
    12    6   29 1
    13    8    9 1
    14    8   30 1
    15    9   22 ar
    16    9   10 ar
    17   10   15 ar
    18   10   11 ar
    19   11   12 ar
    20   11   31 1
    21   12   13 ar
    22   12   32 1
    23   13   14 ar
    24   14   15 ar
    25   14   33 1
    26   15   16 ar
    27   16   21 ar
    28   16   17 ar
    29   17   18 ar
    30   17   34 1
    31   18   19 ar
    32   18   35 1
    33   19   20 ar
    34   19   23 1
    35   20   21 ar
    36   20   36 1
    37   21   22 ar
    38   23   24 2
    39   23   25 1
@<TRIPOS>MOLECULE
ZINC16990709
   28    28     0     0     0
SMALL
USER_CHARGES

@<TRIPOS>ATOM
      1 C1          1.0245   -0.3512    0.8983 C.ar      1 <0>        -0.0598
      2 C2          2.2136    0.3509    0.8813 C.ar      1 <0>        -0.0752
      3 C3          2.3806    1.4097   -0.0018 C.ar      1 <0>         0.1634
      4 C4          1.3504    1.7589   -0.8653 C.ar      1 <0>        -0.1267
      5 C5          0.1637    1.0527   -0.8433 C.ar      1 <0>        -0.0622
      6 C6          0.0007   -0.0010    0.0372 C.ar      1 <0>        -0.1800
      7 C7         -1.2954   -0.7697    0.0581 C.3       1 <0>         0.5088
      8 F1         -2.1745   -0.1769    0.9708 F         1 <0>        -0.1765
      9 F2         -1.8677   -0.7537   -1.2183 F         1 <0>        -0.1769
     10 F3         -1.0471   -2.0921    0.4413 F         1 <0>        -0.1749
     11 N1          3.5837    2.1232   -0.0212 N.pl3     1 <0>        -0.6379
     12 C8          4.7578    1.4672    0.0657 C.2       1 <0>         0.5520
     13 S1          4.7845   -0.2446    0.0571 S.2       1 <0>        -0.6055
     14 N2          5.9108    2.1587    0.1595 N.pl3     1 <0>        -0.6678
     15 C9          7.1870    1.4455    0.2541 C.3       1 <0>         0.1221
     16 C10         8.3308    2.4572    0.3492 C.3       1 <0>         0.0590
     17 O1          8.2168    3.1917    1.5697 O.3       1 <0>        -0.5741
     18 H1          0.8956   -1.1775    1.5817 H         1 <0>         0.1424
     19 H2          3.0127    0.0771    1.5543 H         1 <0>         0.1541
     20 H3          1.4770    2.5820   -1.5530 H         1 <0>         0.1368
     21 H4         -0.6379    1.3240   -1.5142 H         1 <0>         0.1416
     22 H5          3.5729    3.0902   -0.0973 H         1 <0>         0.4100
     23 H6          5.8957    3.1285    0.1644 H         1 <0>         0.4027
     24 H7          7.1855    0.8142    1.1427 H         1 <0>         0.1000
     25 H8          7.3232    0.8254   -0.6319 H         1 <0>         0.1060
     26 H9          9.2847    1.9301    0.3300 H         1 <0>         0.0760
     27 H10         8.2787    3.1449   -0.4949 H         1 <0>         0.0549
     28 H11         8.9108    3.8529    1.6971 H         1 <0>         0.3874
@<TRIPOS>BOND
     1    1    6 ar
     2    1    2 ar
     3    1   18 1
     4    2    3 ar
     5    2   19 1
     6    3    4 ar
     7    3   11 1
     8    4    5 ar
     9    4   20 1
    10    5    6 ar
    11    5   21 1
    12    6    7 1
    13    7    8 1
    14    7    9 1
    15    7   10 1
    16   11   12 1
    17   11   22 1
    18   12   13 2
    19   12   14 1
    20   14   15 1
    21   14   23 1
    22   15   16 1
    23   15   24 1
    24   15   25 1
    25   16   17 1
    26   16   26 1
    27   16   27 1
    28   17   28 1
@<TRIPOS>MOLECULE
ZINC06500199
   24    24     0     0     0
SMALL
USER_CHARGES
2-hydroxyethyl N-(3,4-dichlorophenyl)carbamodithioate
@<TRIPOS>ATOM
      1 C1         -3.2162    1.8291   -1.1913 C.ar      1 <0>        -0.0981
      2 C2         -4.3979    1.1212   -1.2948 C.ar      1 <0>        -0.0943
      3 C3         -4.7729    0.2475   -0.2900 C.ar      1 <0>        -0.0215
      4 C4         -3.9615    0.0750    0.8194 C.ar      1 <0>        -0.0255
      5 C5         -2.7754    0.7764    0.9245 C.ar      1 <0>        -0.0514
      6 C6         -2.3978    1.6543   -0.0832 C.ar      1 <0>         0.1209
      7 N1         -1.1974    2.3657    0.0206 N.pl3     1 <0>        -0.5869
      8 C7         -0.0703    1.7336    0.4036 C.2       1 <0>         0.2891
      9 S1         -0.1281    0.0866    0.8673 S.2       1 <0>        -0.5206
     10 S2          1.4637    2.6002    0.4201 S.3       1 <0>        -0.0095
     11 C8          2.5639    1.2809    0.9902 C.3       1 <0>        -0.1090
     12 C9          3.9946    1.8150    1.0845 C.3       1 <0>         0.1012
     13 O1          4.8632    0.7734    1.5346 O.3       1 <0>        -0.5930
     14 Cl1        -4.4345   -1.0231    2.0779 Cl        1 <0>        -0.0355
     15 Cl2        -6.2624   -0.6347   -0.4198 Cl        1 <0>        -0.0404
     16 H1         -2.9269    2.5149   -1.9738 H         1 <0>         0.1440
     17 H2         -5.0323    1.2539   -2.1588 H         1 <0>         0.1513
     18 H3         -2.1429    0.6422    1.7896 H         1 <0>         0.1645
     19 H4         -1.1735    3.4409   -0.2104 H         1 <0>         0.4477
     20 H5          2.2364    0.9329    1.9810 H         1 <0>         0.1200
     21 H6          2.5315    0.4431    0.2781 H         1 <0>         0.1202
     22 H7          4.3221    2.1630    0.0937 H         1 <0>         0.0532
     23 H8          4.0271    2.6528    1.7966 H         1 <0>         0.0533
     24 H9          5.9376    0.9707    1.6640 H         1 <0>         0.4205
@<TRIPOS>BOND
     1    1    6 ar
     2    1    2 ar
     3    1   16 1
     4    2    3 ar
     5    2   17 1
     6    3    4 ar
     7    3   15 1
     8    4    5 ar
     9    4   14 1
    10    5    6 ar
    11    5   18 1
    12    6    7 1
    13    7    8 1
    14    7   19 1
    15    8    9 2
    16    8   10 1
    17   10   11 1
    18   11   12 1
    19   11   20 1
    20   11   21 1
    21   12   13 1
    22   12   22 1
    23   12   23 1
    24   13   24 1
@<TRIPOS>MOLECULE
ZINC01689026
   27    27     0     0     0
SMALL
USER_CHARGES
5-chloro-2-hydroxy-N-(3-hydroxypropyl)benzamide
@<TRIPOS>ATOM
      1 C1         -1.2183    1.7489    0.0173 C.ar      1 <0>        -0.0652
      2 C2         -0.0126    1.0758    0.0080 C.ar      1 <0>        -0.1417
      3 C3          1.1793    1.7843    0.0004 C.ar      1 <0>         0.1771
      4 C4          1.1548    3.1857    0.0077 C.ar      1 <0>        -0.1574
      5 C5         -0.0711    3.8548    0.0225 C.ar      1 <0>        -0.0626
      6 C6         -1.2474    3.1346    0.0299 C.ar      1 <0>        -0.0551
      7 Cl1        -2.7707    3.9671    0.0477 Cl        1 <0>        -0.0564
      8 C7          2.4169    3.9497   -0.0008 C.2       1 <0>         0.5610
      9 O1          3.4822    3.3638   -0.0141 O.2       1 <0>        -0.5144
     10 N1          2.3890    5.2972    0.0063 N.am      1 <0>        -0.7280
     11 C8          3.6423    6.0558   -0.0021 C.3       1 <0>         0.1228
     12 C9          3.3316    7.5539    0.0085 C.3       1 <0>        -0.1350
     13 C10         4.6405    8.3463   -0.0003 C.3       1 <0>         0.0791
     14 O2          4.3503    9.7455    0.0096 O.3       1 <0>        -0.5749
     15 O3          2.3643    1.1238   -0.0145 O.3       1 <0>        -0.4742
     16 H1         -2.1439    1.1924    0.0187 H         1 <0>         0.1452
     17 H2          0.0021   -0.0041    0.0020 H         1 <0>         0.1487
     18 H3         -0.0979    4.9345    0.0278 H         1 <0>         0.1401
     19 H4          1.5392    5.7647    0.0169 H         1 <0>         0.4006
     20 H5          4.2278    5.8000    0.8810 H         1 <0>         0.0734
     21 H6          4.2105    5.8089   -0.8989 H         1 <0>         0.0732
     22 H7          2.7461    7.8098   -0.8746 H         1 <0>         0.0783
     23 H8          2.7634    7.8009    0.9053 H         1 <0>         0.0784
     24 H9          5.2260    8.0904    0.8828 H         1 <0>         0.0508
     25 H10         5.2087    8.0993   -0.8971 H         1 <0>         0.0506
     26 H11         5.1354   10.3100    0.0048 H         1 <0>         0.3848
     27 H12         2.6994    0.9371   -0.9021 H         1 <0>         0.4004
@<TRIPOS>BOND
     1    1    6 ar
     2    1    2 ar
     3    1   16 1
     4    2    3 ar
     5    2   17 1
     6    3    4 ar
     7    3   15 1
     8    4    5 ar
     9    4    8 1
    10    5    6 ar
    11    5   18 1
    12    6    7 1
    13    8    9 2
    14    8   10 am
    15   10   11 1
    16   10   19 1
    17   11   12 1
    18   11   20 1
    19   11   21 1
    20   12   13 1
    21   12   22 1
    22   12   23 1
    23   13   14 1
    24   13   24 1
    25   13   25 1
    26   14   26 1
    27   15   27 1
@<TRIPOS>MOLECULE
ZINC13284403
   38    39     0     0     0
SMALL
USER_CHARGES

@<TRIPOS>ATOM
      1 C1          0.3092    1.9477    0.1954 C.ar      1 <0>        -0.1431
      2 C2          1.5500    2.5151    0.2667 C.ar      1 <0>        -0.0588
      3 C3          2.6716    1.6672    0.2142 C.ar      1 <0>        -0.0750
      4 C4          3.9792    2.1783    0.2823 C.ar      1 <0>        -0.0100
      5 C5          5.0409    1.3258    0.2287 C.ar      1 <0>        -0.0915
      6 C6          4.8502   -0.0481    0.1066 C.ar      1 <0>        -0.1639
      7 C7          3.5948   -0.5809    0.0375 C.ar      1 <0>         0.1847
      8 C8          2.4712    0.2703    0.0904 C.ar      1 <0>         0.1093
      9 N1          1.2306   -0.2207    0.0258 N.ar      1 <0>        -0.4541
     10 C9          0.1828    0.5660    0.0745 C.ar      1 <0>         0.1487
     11 O1          3.4288   -1.9242   -0.0819 O.3       1 <0>        -0.4779
     12 C10         6.0477   -0.9611    0.0492 C.3       1 <0>         0.0475
     13 N2          6.2433   -1.4262   -1.3304 N.4       1 <0>        -0.3806
     14 C11         6.5936   -0.2852   -2.1868 C.3       1 <0>        -0.0114
     15 C12         6.6751   -0.7467   -3.6432 C.3       1 <0>         0.0469
     16 O2          5.3818   -1.1663   -4.0830 O.3       1 <0>        -0.5746
     17 C13         7.3287   -2.4154   -1.3645 C.3       1 <0>        -0.0125
     18 C14         6.9020   -3.6674   -0.5954 C.3       1 <0>         0.0471
     19 O3          5.7827   -4.2693   -1.2488 O.3       1 <0>        -0.5720
     20 Cl1         4.2403    3.8879    0.4335 Cl        1 <0>        -0.0291
     21 H1         -0.5728    2.5696    0.2374 H         1 <0>         0.1548
     22 H2          1.6666    3.5847    0.3603 H         1 <0>         0.1538
     23 H3          6.0445    1.7214    0.2813 H         1 <0>         0.1511
     24 H4         -0.8043    0.1310    0.0196 H         1 <0>         0.1753
     25 H5          3.3647   -2.3893    0.7634 H         1 <0>         0.4069
     26 H6          6.9340   -0.4190    0.3790 H         1 <0>         0.1412
     27 H7          5.8826   -1.8184    0.7017 H         1 <0>         0.1388
     28 H8          5.8307    0.4876   -2.0926 H         1 <0>         0.1357
     29 H9          7.5585    0.1175   -1.8787 H         1 <0>         0.1433
     30 H10         7.0211    0.0777   -4.2668 H         1 <0>         0.0943
     31 H11         7.3736   -1.5798   -3.7219 H         1 <0>         0.0711
     32 H12         5.3584   -1.4728   -4.9998 H         1 <0>         0.4071
     33 H13         7.5460   -2.6810   -2.3991 H         1 <0>         0.1385
     34 H14         8.2208   -1.9920   -0.9030 H         1 <0>         0.1432
     35 H15         7.7299   -4.3758   -0.5665 H         1 <0>         0.0942
     36 H16         6.6239   -3.3918    0.4218 H         1 <0>         0.0693
     37 H17         5.4579   -5.0702   -0.8148 H         1 <0>         0.4069
     38 H18         5.3914   -1.8498   -1.6665 H         1 <0>         0.4444
@<TRIPOS>BOND
     1    1   10 ar
     2    1    2 ar
     3    1   21 1
     4    2    3 ar
     5    2   22 1
     6    3    8 ar
     7    3    4 ar
     8    4    5 ar
     9    4   20 1
    10    5    6 ar
    11    5   23 1
    12    6    7 ar
    13    6   12 1
    14    7    8 ar
    15    7   11 1
    16    8    9 ar
    17    9   10 ar
    18   10   24 1
    19   11   25 1
    20   12   13 1
    21   12   26 1
    22   12   27 1
    23   13   14 1
    24   13   17 1
    25   13   38 1
    26   14   15 1
    27   14   28 1
    28   14   29 1
    29   15   16 1
    30   15   30 1
    31   15   31 1
    32   16   32 1
    33   17   18 1
    34   17   33 1
    35   17   34 1
    36   18   19 1
    37   18   35 1
    38   18   36 1
    39   19   37 1
@<TRIPOS>MOLECULE
ZINC27415684
   54    56     0     0     0
SMALL
USER_CHARGES

@<TRIPOS>ATOM
      1 C1         -0.1780    1.4896    0.0162 C.3       1 <0>        -0.1198
      2 C2         -0.0809   -0.0142    0.0079 C.2       1 <0>        -0.1375
      3 C3          0.1206   -0.6637    1.1276 C.2       1 <0>        -0.1539
      4 C4          0.1232    0.0784    2.4392 C.3       1 <0>        -0.0513
      5 C5         -0.8640   -0.5621    3.3807 C.ar      1 <0>        -0.1052
      6 C6         -0.4213   -1.4255    4.3642 C.ar      1 <0>        -0.0808
      7 C7         -1.3264   -2.0138    5.2279 C.ar      1 <0>        -0.0925
      8 C8         -2.6767   -1.7395    5.1101 C.ar      1 <0>        -0.0921
      9 C9         -3.1243   -0.8766    4.1288 C.ar      1 <0>        -0.1500
     10 C10        -2.2173   -0.2808    3.2641 C.ar      1 <0>         0.1030
     11 O1         -2.6546    0.5728    2.3013 O.3       1 <0>        -0.4953
     12 C11        -0.8409   -2.9560    6.2991 C.3       1 <0>        -0.0649
     13 C12        -0.5299   -2.1649    7.5713 C.3       1 <0>         0.2106
     14 C13        -0.0056   -3.0919    8.6429 C.2       1 <0>        -0.4342
     15 C14         1.2425   -2.6626    8.9461 C.2       1 <0>         0.2241
     16 C15         1.5511   -1.4971    8.1179 C.2       1 <0>         0.4688
     17 O2          2.5964   -0.8763    8.1486 O.2       1 <0>        -0.4593
     18 O3          0.5076   -1.2134    7.3164 O.3       1 <0>        -0.3137
     19 O4          2.0712   -3.2219    9.8680 O.3       1 <0>        -0.6404
     20 C16        -0.7114   -4.2353    9.2393 C.ar      1 <0>         0.0723
     21 C17        -1.0339   -5.3483    8.4545 C.ar      1 <0>        -0.1134
     22 C18        -1.6952   -6.4166    9.0180 C.ar      1 <0>        -0.1431
     23 C19        -2.0423   -6.3909   10.3636 C.ar      1 <0>         0.0689
     24 C20        -1.7243   -5.2881   11.1473 C.ar      1 <0>        -0.1423
     25 C21        -1.0581   -4.2169   10.5951 C.ar      1 <0>        -0.0959
     26 O5         -2.6946   -7.4468   10.9143 O.3       1 <0>        -0.5042
     27 C22        -1.7700   -1.4600    8.0574 C.2       1 <0>         0.4809
     28 O6         -2.8617   -1.8904    7.7695 O.2       1 <0>        -0.5004
     29 O7         -1.6618   -0.3539    8.8102 O.3       1 <0>        -0.3420
     30 C23        -2.8785    0.2627    9.2360 C.3       1 <0>         0.0332
     31 C24        -0.2157   -0.7709   -1.2883 C.3       1 <0>        -0.1156
     32 H1          0.7122    1.9086    0.4853 H         1 <0>         0.0636
     33 H2         -0.2547    1.8544   -1.0081 H         1 <0>         0.0559
     34 H3         -1.0616    1.7936    0.5773 H         1 <0>         0.0738
     35 H4          0.2849   -1.7310    1.1107 H         1 <0>         0.1075
     36 H5          1.1206    0.0392    2.8769 H         1 <0>         0.0792
     37 H6         -0.1585    1.1176    2.2692 H         1 <0>         0.0850
     38 H7          0.6327   -1.6414    4.4582 H         1 <0>         0.1260
     39 H8         -3.3819   -2.2005    5.7858 H         1 <0>         0.1415
     40 H9         -4.1789   -0.6627    4.0372 H         1 <0>         0.1228
     41 H10        -2.8739    0.1420    1.4638 H         1 <0>         0.3812
     42 H11        -1.6137   -3.6950    6.5106 H         1 <0>         0.1034
     43 H12         0.0616   -3.4619    5.9562 H         1 <0>         0.0933
     44 H13        -0.7650   -5.3691    7.4087 H         1 <0>         0.1212
     45 H14        -1.9449   -7.2759    8.4132 H         1 <0>         0.1184
     46 H15        -1.9966   -5.2729   12.1924 H         1 <0>         0.1179
     47 H16        -0.8075   -3.3623   11.2060 H         1 <0>         0.1194
     48 H17        -2.1089   -8.1234   11.2807 H         1 <0>         0.3796
     49 H18        -3.4609    0.5582    8.3632 H         1 <0>         0.0565
     50 H19        -3.4538   -0.4438    9.8344 H         1 <0>         0.0586
     51 H20        -2.6491    1.1439    9.8350 H         1 <0>         0.0966
     52 H21        -0.3777   -0.0671   -2.1047 H         1 <0>         0.0593
     53 H22         0.6958   -1.3390   -1.4739 H         1 <0>         0.0625
     54 H23        -1.0628   -1.4539   -1.2240 H         1 <0>         0.0630
@<TRIPOS>BOND
     1    1    2 1
     2    1   32 1
     3    1   33 1
     4    1   34 1
     5    2    3 2
     6    2   31 1
     7    3    4 1
     8    3   35 1
     9    4    5 1
    10    4   36 1
    11    4   37 1
    12    5   10 ar
    13    5    6 ar
    14    6    7 ar
    15    6   38 1
    16    7    8 ar
    17    7   12 1
    18    8    9 ar
    19    8   39 1
    20    9   10 ar
    21    9   40 1
    22   10   11 1
    23   11   41 1
    24   12   13 1
    25   12   42 1
    26   12   43 1
    27   13   18 1
    28   13   14 1
    29   13   27 1
    30   14   15 2
    31   14   20 1
    32   15   16 1
    33   15   19 1
    34   16   17 2
    35   16   18 1
    36   20   25 ar
    37   20   21 ar
    38   21   22 ar
    39   21   44 1
    40   22   23 ar
    41   22   45 1
    42   23   24 ar
    43   23   26 1
    44   24   25 ar
    45   24   46 1
    46   25   47 1
    47   26   48 1
    48   27   28 2
    49   27   29 1
    50   29   30 1
    51   30   49 1
    52   30   50 1
    53   30   51 1
    54   31   52 1
    55   31   53 1
    56   31   54 1
@<TRIPOS>MOLECULE
ZINC01706243
   45    46     0     0     0
SMALL
USER_CHARGES
2-[3-[(7-chloro-4-quinolyl)amino]propyl-ethyl-amino]ethanol
@<TRIPOS>ATOM
      1 C1         -6.1130   10.0389    2.1733 C.3       1 <0>        -0.1890
      2 C2         -5.9171   10.3075    0.6798 C.3       1 <0>        -0.0140
      3 C3         -4.9187    8.1858    0.0763 C.3       1 <0>        -0.0039
      4 C4         -3.5711    7.4614    0.0800 C.3       1 <0>        -0.1685
      5 C5         -3.8047    5.9494    0.0629 C.3       1 <0>         0.1035
      6 N1         -2.5143    5.2558    0.0665 N.pl3     1 <0>        -0.6838
      7 C6         -2.4721    3.8701    0.0530 C.ar      1 <0>         0.3619
      8 C7         -3.6373    3.1194    0.0188 C.ar      1 <0>        -0.2615
      9 C8         -3.5622    1.7338    0.0063 C.ar      1 <0>         0.2478
     10 C9         -1.2477    1.7620    0.0364 C.ar      1 <0>         0.1890
     11 C10        -1.2382    3.1773    0.0561 C.ar      1 <0>        -0.1301
     12 C11        -0.0161    3.8641    0.0724 C.ar      1 <0>        -0.0475
     13 C12         1.1513    3.1622    0.0749 C.ar      1 <0>        -0.1017
     14 C13         1.1462    1.7683    0.0614 C.ar      1 <0>         0.0430
     15 C14        -0.0242    1.0708    0.0449 C.ar      1 <0>        -0.1448
     16 Cl1         2.6540    0.9079    0.0650 Cl        1 <0>        -0.0024
     17 C15        -4.2185   10.2153   -1.0432 C.3       1 <0>        -0.0039
     18 C16        -3.7648   11.6557   -0.7975 C.3       1 <0>         0.0416
     19 O1         -2.6328   11.6564    0.0746 O.3       1 <0>        -0.5842
     20 H1         -6.2983    8.9763    2.3302 H         1 <0>         0.0785
     21 H2         -5.2157   10.3354    2.7165 H         1 <0>         0.0811
     22 H3         -6.9646   10.6138    2.5372 H         1 <0>         0.1105
     23 H4         -5.8232   11.3805    0.5129 H         1 <0>         0.1324
     24 H5         -6.7759    9.9274    0.1266 H         1 <0>         0.1350
     25 H6         -5.4357    7.9866   -0.8624 H         1 <0>         0.1391
     26 H7         -5.5256    7.8285    0.9082 H         1 <0>         0.1370
     27 H8         -3.0150    7.7330    0.9773 H         1 <0>         0.1014
     28 H9         -3.0005    7.7509   -0.8025 H         1 <0>         0.1016
     29 H10        -4.3607    5.6778   -0.8344 H         1 <0>         0.0990
     30 H11        -4.3752    5.6600    0.9454 H         1 <0>         0.0985
     31 H12        -1.6895    5.7661    0.0783 H         1 <0>         0.4214
     32 H13        -4.5991    3.6107    0.0110 H         1 <0>         0.1800
     33 H14        -4.4763    1.1589   -0.0113 H         1 <0>         0.1996
     34 H15        -0.0003    4.9439    0.0834 H         1 <0>         0.1532
     35 H16         2.0923    3.6920    0.0878 H         1 <0>         0.1636
     36 H17        -0.0115   -0.0090    0.0338 H         1 <0>         0.1683
     37 H18        -3.3798    9.6294   -1.4193 H         1 <0>         0.1338
     38 H19        -5.0246   10.2085   -1.7769 H         1 <0>         0.1464
     39 H20        -3.4927   12.1178   -1.7464 H         1 <0>         0.0981
     40 H21        -4.5772   12.2193   -0.3386 H         1 <0>         0.0747
     41 H22        -2.2908   12.5385    0.2745 H         1 <0>         0.4137
     42 N2         -4.6777    9.6352    0.2364 N.4       1 <0>        -0.3955
     43 H23        -3.9496    9.7758    0.9466 H         1 <0>         0.4347
     44 N3         -2.4111    1.0224    0.0140 N.ar      1 <0>        -0.5330
     45 H24        -2.4045   -0.0043    0.0038 H         1 <0>         0.4755
@<TRIPOS>BOND
     1    1    2 1
     2    1   20 1
     3    1   21 1
     4    1   22 1
     5    2   23 1
     6    2   24 1
     7    2   42 1
     8    3    4 1
     9    3   25 1
    10    3   26 1
    11    3   42 1
    12    4    5 1
    13    4   27 1
    14    4   28 1
    15    5    6 1
    16    5   29 1
    17    5   30 1
    18    6    7 1
    19    6   31 1
    20    7   11 ar
    21    7    8 ar
    22    8    9 ar
    23    8   32 1
    24    9   33 1
    25    9   44 ar
    26   10   15 ar
    27   10   11 ar
    28   10   44 ar
    29   11   12 ar
    30   12   13 ar
    31   12   34 1
    32   13   14 ar
    33   13   35 1
    34   14   15 ar
    35   14   16 1
    36   15   36 1
    37   17   18 1
    38   17   37 1
    39   17   38 1
    40   17   42 1
    41   18   19 1
    42   18   39 1
    43   18   40 1
    44   19   41 1
    45   42   43 1
    46   44   45 1
@<TRIPOS>MOLECULE
ZINC01726038
   51    52     0     0     0
SMALL
USER_CHARGES
methyl 5-acetylamino-2-(4-acetylamino-2-methoxycarbonyl-phenyl)sulfonyl-benzoate
@<TRIPOS>ATOM
      1 C1         -4.5888    4.8071   -0.8706 C.3       1 <0>        -0.1694
      2 C2         -3.1798    4.2859   -0.7516 C.2       1 <0>         0.5106
      3 O1         -2.2647    4.8870   -1.2735 O.2       1 <0>        -0.5170
      4 N1         -2.9365    3.1518   -0.0653 N.am      1 <0>        -0.6768
      5 C3         -1.6441    2.6155   -0.0353 C.ar      1 <0>         0.1844
      6 C4         -1.4635    1.2373   -0.0338 C.ar      1 <0>        -0.1425
      7 C5         -0.1894    0.7024    0.0011 C.ar      1 <0>         0.0239
      8 C6          0.9125    1.5331    0.0240 C.ar      1 <0>        -0.6164
      9 C7          0.7420    2.9189    0.0174 C.ar      1 <0>        -0.0201
     10 C8         -0.5445    3.4586   -0.0125 C.ar      1 <0>        -0.0897
     11 C9          1.9196    3.8107    0.0423 C.2       1 <0>         0.4888
     12 O2          3.0385    3.3387    0.0687 O.2       1 <0>        -0.4717
     13 O3          1.7525    5.1474    0.0359 O.3       1 <0>        -0.3425
     14 C10         2.9541    5.9621    0.0615 C.3       1 <0>         0.0349
     15 S1          2.5341    0.8449    0.0611 S.o2      1 <0>         2.6071
     16 O4          3.2350    1.5128    1.1012 O.2       1 <0>        -0.9208
     17 O5          2.3768   -0.5671    0.0330 O.2       1 <0>        -0.9206
     18 C11         3.3251    1.2937   -1.4481 C.ar      1 <0>        -0.6179
     19 C12         4.4245    2.1276   -1.4297 C.ar      1 <0>         0.0264
     20 C13         5.0488    2.4822   -2.6108 C.ar      1 <0>        -0.1446
     21 C14         4.5737    2.0015   -3.8253 C.ar      1 <0>         0.1881
     22 C15         3.4698    1.1642   -3.8552 C.ar      1 <0>        -0.0907
     23 C16         2.8431    0.8010   -2.6624 C.ar      1 <0>        -0.0182
     24 C17         1.6703   -0.0972   -2.6849 C.2       1 <0>         0.4884
     25 O6          1.1236   -0.4083   -1.6458 O.2       1 <0>        -0.4706
     26 O7          1.2072   -0.5712   -3.8578 O.3       1 <0>        -0.3432
     27 C18         0.0515   -1.4485   -3.8041 C.3       1 <0>         0.0350
     28 N2          5.2099    2.3634   -5.0182 N.am      1 <0>        -0.6768
     29 C19         4.4893    2.5157   -6.1470 C.2       1 <0>         0.5103
     30 O8          3.2800    2.4302   -6.1106 O.2       1 <0>        -0.5160
     31 C20         5.1862    2.7924   -7.4542 C.3       1 <0>        -0.1697
     32 H1         -5.2690    4.1395   -0.3418 H         1 <0>         0.0809
     33 H2         -4.6455    5.8041   -0.4336 H         1 <0>         0.1026
     34 H3         -4.8709    4.8548   -1.9224 H         1 <0>         0.1024
     35 H4         -3.6572    2.7072    0.4079 H         1 <0>         0.4179
     36 H5         -2.3217    0.5821   -0.0558 H         1 <0>         0.1431
     37 H6         -0.0556   -0.3692    0.0059 H         1 <0>         0.1705
     38 H7         -0.6828    4.5297   -0.0181 H         1 <0>         0.1616
     39 H8          2.6784    7.0166    0.0532 H         1 <0>         0.1047
     40 H9          3.5228    5.7424    0.9651 H         1 <0>         0.0713
     41 H10         3.5632    5.7389   -0.8144 H         1 <0>         0.0657
     42 H11         4.7986    2.5041   -0.4891 H         1 <0>         0.1706
     43 H12         5.9090    3.1349   -2.5898 H         1 <0>         0.1432
     44 H13         3.0992    0.7896   -4.7980 H         1 <0>         0.1572
     45 H14        -0.2174   -1.7574   -4.8142 H         1 <0>         0.1047
     46 H15         0.2906   -2.3282   -3.2066 H         1 <0>         0.0714
     47 H16        -0.7863   -0.9184   -3.3511 H         1 <0>         0.0657
     48 H17         6.1695    2.5046   -5.0326 H         1 <0>         0.4179
     49 H18         6.2630    2.8339   -7.2903 H         1 <0>         0.0811
     50 H19         4.9570    1.9971   -8.1635 H         1 <0>         0.1033
     51 H20         4.8426    3.7463   -7.8544 H         1 <0>         0.1018
@<TRIPOS>BOND
     1    1    2 1
     2    1   32 1
     3    1   33 1
     4    1   34 1
     5    2    3 2
     6    2    4 am
     7    4    5 1
     8    4   35 1
     9    5   10 ar
    10    5    6 ar
    11    6    7 ar
    12    6   36 1
    13    7    8 ar
    14    7   37 1
    15    8    9 ar
    16    8   15 1
    17    9   10 ar
    18    9   11 1
    19   10   38 1
    20   11   12 2
    21   11   13 1
    22   13   14 1
    23   14   39 1
    24   14   40 1
    25   14   41 1
    26   15   16 2
    27   15   17 2
    28   15   18 1
    29   18   23 ar
    30   18   19 ar
    31   19   20 ar
    32   19   42 1
    33   20   21 ar
    34   20   43 1
    35   21   22 ar
    36   21   28 1
    37   22   23 ar
    38   22   44 1
    39   23   24 1
    40   24   25 2
    41   24   26 1
    42   26   27 1
    43   27   45 1
    44   27   46 1
    45   27   47 1
    46   28   29 am
    47   28   48 1
    48   29   30 2
    49   29   31 1
    50   31   49 1
    51   31   50 1
    52   31   51 1
@<TRIPOS>MOLECULE
ZINC02022139
   46    47     0     0     0
SMALL
USER_CHARGES
5-[6-(3-formyl-4-hydroxy-phenyl)hexyl]-2-hydroxy-benzaldehyde
@<TRIPOS>ATOM
      1 C1         -0.3511   -0.1368    3.0508 C.ar      1 <0>        -0.0666
      2 C2          0.3119   -0.6093    4.1660 C.ar      1 <0>        -0.1591
      3 C3          1.3296    0.1384    4.7390 C.ar      1 <0>         0.1627
      4 C4          1.6854    1.3749    4.1757 C.ar      1 <0>        -0.2194
      5 C5          1.0076    1.8377    3.0415 C.ar      1 <0>        -0.0524
      6 C6          0.0000    1.0800    2.4877 C.ar      1 <0>        -0.1055
      7 C7         -0.7288    1.5792    1.2668 C.3       1 <0>        -0.0807
      8 C8         -0.0127    1.0858    0.0080 C.3       1 <0>        -0.1152
      9 C9         -0.7527    1.5927   -1.2315 C.3       1 <0>        -0.1207
     10 C10        -0.0366    1.0992   -2.4903 C.3       1 <0>        -0.1207
     11 C11        -0.7766    1.6061   -3.7298 C.3       1 <0>        -0.1152
     12 C12        -0.0604    1.1126   -4.9886 C.3       1 <0>        -0.0807
     13 C13        -0.7893    1.6119   -6.2095 C.ar      1 <0>        -0.1055
     14 C14        -1.7997    0.8465   -6.7703 C.ar      1 <0>        -0.0666
     15 C15        -2.4798    1.2941   -7.8855 C.ar      1 <0>        -0.1591
     16 C16        -2.1477    2.5114   -8.4608 C.ar      1 <0>         0.1627
     17 C17        -1.1207    3.2881   -7.8998 C.ar      1 <0>        -0.2194
     18 C18        -0.4442    2.8234   -6.7656 C.ar      1 <0>        -0.0524
     19 C19        -0.7587    4.5783   -8.4991 C.2       1 <0>         0.3767
     20 O1         -1.3474    4.9771   -9.4818 O.2       1 <0>        -0.4441
     21 O2         -2.8114    2.9497   -9.5590 O.3       1 <0>        -0.4823
     22 C20         2.7604    2.1767    4.7724 C.2       1 <0>         0.3767
     23 O3          3.3450    1.7719    5.7551 O.2       1 <0>        -0.4441
     24 O4          1.9781   -0.3220    5.8373 O.3       1 <0>        -0.4823
     25 H1         -1.1460   -0.7214    2.6118 H         1 <0>         0.1310
     26 H2          0.0343   -1.5605    4.5956 H         1 <0>         0.1350
     27 H3          1.2744    2.7875    2.6018 H         1 <0>         0.1357
     28 H4         -0.7436    2.6691    1.2728 H         1 <0>         0.0751
     29 H5         -1.7514    1.2020    1.2746 H         1 <0>         0.0746
     30 H6          0.0021   -0.0041    0.0020 H         1 <0>         0.0638
     31 H7          1.0099    1.4631    0.0003 H         1 <0>         0.0643
     32 H8         -1.7753    1.2154   -1.2238 H         1 <0>         0.0627
     33 H9         -0.7675    2.6825   -1.2255 H         1 <0>         0.0633
     34 H10         0.9860    1.4765   -2.4981 H         1 <0>         0.0633
     35 H11        -0.0218    0.0093   -2.4963 H         1 <0>         0.0628
     36 H12        -1.7991    1.2288   -3.7221 H         1 <0>         0.0638
     37 H13        -0.7913    2.6960   -3.7239 H         1 <0>         0.0644
     38 H14         0.9622    1.4899   -4.9964 H         1 <0>         0.0751
     39 H15        -0.0456    0.0228   -4.9946 H         1 <0>         0.0746
     40 H16        -2.0597   -0.1045   -6.3294 H         1 <0>         0.1311
     41 H17        -3.2685    0.6930   -8.3132 H         1 <0>         0.1349
     42 H18         0.3470    3.4138   -6.3278 H         1 <0>         0.1357
     43 H19         0.0319    5.1725   -8.0650 H         1 <0>         0.1048
     44 H20        -2.4143    2.6714  -10.3957 H         1 <0>         0.3962
     45 H21         3.0309    3.1271    4.3365 H         1 <0>         0.1048
     46 H22         1.5768   -0.0498    6.6739 H         1 <0>         0.3962
@<TRIPOS>BOND
     1    1    6 ar
     2    1    2 ar
     3    1   25 1
     4    2    3 ar
     5    2   26 1
     6    3    4 ar
     7    3   24 1
     8    4    5 ar
     9    4   22 1
    10    5    6 ar
    11    5   27 1
    12    6    7 1
    13    7    8 1
    14    7   28 1
    15    7   29 1
    16    8    9 1
    17    8   30 1
    18    8   31 1
    19    9   10 1
    20    9   32 1
    21    9   33 1
    22   10   11 1
    23   10   34 1
    24   10   35 1
    25   11   12 1
    26   11   36 1
    27   11   37 1
    28   12   13 1
    29   12   38 1
    30   12   39 1
    31   13   18 ar
    32   13   14 ar
    33   14   15 ar
    34   14   40 1
    35   15   16 ar
    36   15   41 1
    37   16   17 ar
    38   16   21 1
    39   17   18 ar
    40   17   19 1
    41   18   42 1
    42   19   20 2
    43   19   43 1
    44   21   44 1
    45   22   23 2
    46   22   45 1
    47   24   46 1
@<TRIPOS>MOLECULE
ZINC11616526
   46    47     0     0     0
SMALL
USER_CHARGES

@<TRIPOS>ATOM
      1 C1         -0.0187    1.5258    0.0104 C.3       1 <0>        -0.1819
      2 C2          0.0021   -0.0041    0.0020 C.3       1 <0>         0.0310
      3 H1         -1.0205   -0.3814    0.0098 H         1 <0>         0.1608
      4 C3          0.7182   -0.4975   -1.2568 C.3       1 <0>         0.0301
      5 O1          2.0188    0.0904   -1.3262 O.3       1 <0>        -0.3260
      6 C4          2.7919   -0.2461   -2.3921 C.ar      1 <0>         0.1107
      7 C5          2.3064   -1.1196   -3.3544 C.ar      1 <0>        -0.2036
      8 C6          3.0940   -1.4597   -4.4372 C.ar      1 <0>        -0.0776
      9 C7          4.3653   -0.9307   -4.5621 C.ar      1 <0>        -0.1403
     10 C8          4.8517   -0.0603   -3.6041 C.ar      1 <0>        -0.0771
     11 C9          4.0657    0.2878   -2.5227 C.ar      1 <0>        -0.1426
     12 N1          0.7126   -0.4907    1.1921 N.4       1 <0>        -0.5130
     13 C10        -0.0398   -0.1189    2.3978 C.3       1 <0>        -0.0116
     14 H2         -0.2092    0.9579    2.4027 H         1 <0>         0.1540
     15 C11        -1.3855   -0.8468    2.4039 C.3       1 <0>        -0.1789
     16 C12         0.7599   -0.5150    3.6405 C.3       1 <0>         0.1416
     17 H3          0.2016   -0.2391    4.5351 H         1 <0>         0.1537
     18 C13         2.0854    0.2020    3.6345 C.ar      1 <0>        -0.1704
     19 C14         3.1223   -0.2709    2.8516 C.ar      1 <0>        -0.1286
     20 C15         4.3385    0.3844    2.8447 C.ar      1 <0>        -0.1273
     21 C16         4.5187    1.5180    3.6238 C.ar      1 <0>         0.1333
     22 C17         3.4766    1.9907    4.4081 C.ar      1 <0>        -0.1299
     23 C18         2.2607    1.3349    4.4075 C.ar      1 <0>        -0.0751
     24 O2          5.7143    2.1641    3.6190 O.3       1 <0>        -0.4928
     25 O3          0.9820   -1.9266    3.6340 O.3       1 <0>        -0.5269
     26 H4          1.0039    1.9031    0.0027 H         1 <0>         0.0907
     27 H5         -0.5459    1.8868   -0.8726 H         1 <0>         0.1095
     28 H6         -0.5289    1.8773    0.9072 H         1 <0>         0.0845
     29 H7          0.8116   -1.5829   -1.2198 H         1 <0>         0.0875
     30 H8          0.1430   -0.2121   -2.1375 H         1 <0>         0.1121
     31 H9          1.3137   -1.5336   -3.2569 H         1 <0>         0.1271
     32 H10         2.7165   -2.1396   -5.1865 H         1 <0>         0.1316
     33 H11         4.9797   -1.1981   -5.4091 H         1 <0>         0.1318
     34 H12         5.8452    0.3513   -3.7038 H         1 <0>         0.1364
     35 H13         4.4444    0.9711   -1.7770 H         1 <0>         0.1314
     36 H14         0.7982   -1.4950    1.1455 H         1 <0>         0.4197
     37 H15        -1.9553   -0.5646    1.5185 H         1 <0>         0.0837
     38 H16        -1.2162   -1.9236    2.3989 H         1 <0>         0.0905
     39 H17        -1.9438   -0.5709    3.2985 H         1 <0>         0.1114
     40 H18         2.9815   -1.1534    2.2453 H         1 <0>         0.1177
     41 H19         5.1484    0.0142    2.2335 H         1 <0>         0.1412
     42 H20         3.6145    2.8730    5.0155 H         1 <0>         0.1430
     43 H21         1.4477    1.7050    5.0145 H         1 <0>         0.1394
     44 H22         5.7849    2.8558    2.9470 H         1 <0>         0.4019
     45 H23         1.4745   -2.2438    2.8647 H         1 <0>         0.3671
     46 H24         1.6317   -0.0761    1.2281 H         1 <0>         0.4301
@<TRIPOS>BOND
     1    1    2 1
     2    1   26 1
     3    1   27 1
     4    1   28 1
     5    2    3 1
     6    2    4 1
     7    2   12 1
     8    4    5 1
     9    4   29 1
    10    4   30 1
    11    5    6 1
    12    6   11 ar
    13    6    7 ar
    14    7    8 ar
    15    7   31 1
    16    8    9 ar
    17    8   32 1
    18    9   10 ar
    19    9   33 1
    20   10   11 ar
    21   10   34 1
    22   11   35 1
    23   12   13 1
    24   12   36 1
    25   12   46 1
    26   13   14 1
    27   13   15 1
    28   13   16 1
    29   15   37 1
    30   15   38 1
    31   15   39 1
    32   16   17 1
    33   16   18 1
    34   16   25 1
    35   18   23 ar
    36   18   19 ar
    37   19   20 ar
    38   19   40 1
    39   20   21 ar
    40   20   41 1
    41   21   22 ar
    42   21   24 1
    43   22   23 ar
    44   22   42 1
    45   23   43 1
    46   24   44 1
    47   25   45 1
@<TRIPOS>MOLECULE
ZINC13831531
   50    51     0     0     0
SMALL
USER_CHARGES

@<TRIPOS>ATOM
      1 C1         -0.4109    1.5660   -0.8601 C.3       1 <0>         0.0946
      2 N1         -0.3248    0.1037   -0.8874 N.am      1 <0>        -0.6191
      3 C2          0.6377   -0.5569   -1.7725 C.3       1 <0>         0.0791
      4 C3         -1.1311   -0.6337   -0.0984 C.2       1 <0>         0.5339
      5 O1         -1.9994   -0.0924    0.5586 O.2       1 <0>        -0.4590
      6 C4         -0.9602   -2.0982   -0.0318 C.ar      1 <0>        -0.0371
      7 C5          0.3089   -2.6466    0.1737 C.ar      1 <0>        -0.0974
      8 C6          0.4647   -4.0128    0.2357 C.ar      1 <0>        -0.1100
      9 C7         -0.6393   -4.8478    0.0936 C.ar      1 <0>         0.1289
     10 C8         -1.9038   -4.3052   -0.1110 C.ar      1 <0>        -0.0323
     11 C9         -2.0676   -2.9393   -0.1683 C.ar      1 <0>        -0.5762
     12 S1         -3.6707   -2.2530   -0.4204 S.o2      1 <0>         2.6777
     13 O2         -3.5443   -1.2991   -1.4660 O.2       1 <0>        -0.9960
     14 O3         -4.5743   -3.3473   -0.4927 O.2       1 <0>        -1.0028
     15 N2         -4.0615   -1.4062    0.9481 N.2       1 <0>        -1.0585
     16 C10        -5.2053   -0.7928    1.0287 C.2       1 <0>         0.6801
     17 O4         -6.0747   -0.8463   -0.0039 O.3       1 <0>        -0.6874
     18 N3         -5.5302   -0.0888    2.1665 N.pl3     1 <0>        -0.6038
     19 C11        -6.7507    0.5658    2.2525 C.ar      1 <0>         0.6346
     20 N4         -7.5924    0.4978    1.2326 N.ar      1 <0>        -0.5490
     21 C12        -8.7701    1.1118    1.2802 C.ar      1 <0>         0.4059
     22 C13        -9.1126    1.8316    2.4193 C.ar      1 <0>        -0.3234
     23 C14        -8.2034    1.8806    3.4700 C.ar      1 <0>         0.4088
     24 N5         -7.0459    1.2379    3.3545 N.ar      1 <0>        -0.6381
     25 O5         -8.4958    2.5706    4.5993 O.3       1 <0>        -0.3023
     26 C15        -7.5087    2.5721    5.6326 C.3       1 <0>         0.0398
     27 O6         -9.6258    1.0376    0.2318 O.3       1 <0>        -0.3047
     28 C16        -9.1991    0.2789   -0.9015 C.3       1 <0>         0.0421
     29 N6         -0.4778   -6.2314    0.1561 N.am      1 <0>        -0.6814
     30 C17        -1.4236   -6.9947    0.7385 C.2       1 <0>         0.4821
     31 O7         -2.4470   -6.4868    1.1453 O.2       1 <0>        -0.5152
     32 H1          0.3125    1.9856   -1.5591 H         1 <0>         0.0708
     33 H2         -1.4156    1.8762   -1.1471 H         1 <0>         0.0653
     34 H3         -0.1937    1.9240    0.1463 H         1 <0>         0.0585
     35 H4          1.6010   -0.6346   -1.2683 H         1 <0>         0.0530
     36 H5          0.2766   -1.5547   -2.0218 H         1 <0>         0.0722
     37 H6          0.7517    0.0270   -2.6858 H         1 <0>         0.0694
     38 H7          1.1663   -1.9991    0.2833 H         1 <0>         0.1368
     39 H8          1.4451   -4.4372    0.3945 H         1 <0>         0.1345
     40 H9         -2.7587   -4.9561   -0.2209 H         1 <0>         0.1592
     41 H10        -4.9059   -0.0504    2.9079 H         1 <0>         0.4186
     42 H11       -10.0625    2.3411    2.4863 H         1 <0>         0.1473
     43 H12        -7.8682    3.1591    6.4777 H         1 <0>         0.0936
     44 H13        -7.3192    1.5485    5.9556 H         1 <0>         0.0607
     45 H14        -6.5856    3.0099    5.2526 H         1 <0>         0.0607
     46 H15        -9.0152   -0.7523   -0.6000 H         1 <0>         0.0690
     47 H16        -9.9752    0.3009   -1.6666 H         1 <0>         0.0884
     48 H17        -8.2815    0.7094   -1.3024 H         1 <0>         0.0689
     49 H18         0.3154   -6.6445   -0.2197 H         1 <0>         0.4120
     50 H19        -1.2701   -8.0586    0.8431 H         1 <0>         0.1473
@<TRIPOS>BOND
     1    1    2 1
     2    1   32 1
     3    1   33 1
     4    1   34 1
     5    2    3 1
     6    2    4 am
     7    3   35 1
     8    3   36 1
     9    3   37 1
    10    4    5 2
    11    4    6 1
    12    6   11 ar
    13    6    7 ar
    14    7    8 ar
    15    7   38 1
    16    8    9 ar
    17    8   39 1
    18    9   10 ar
    19    9   29 1
    20   10   11 ar
    21   10   40 1
    22   11   12 1
    23   12   13 2
    24   12   14 2
    25   12   15 1
    26   15   16 2
    27   16   17 1
    28   16   18 1
    29   18   19 1
    30   18   41 1
    31   19   24 ar
    32   19   20 ar
    33   20   21 ar
    34   21   22 ar
    35   21   27 1
    36   22   23 ar
    37   22   42 1
    38   23   24 ar
    39   23   25 1
    40   25   26 1
    41   26   43 1
    42   26   44 1
    43   26   45 1
    44   27   28 1
    45   28   46 1
    46   28   47 1
    47   28   48 1
    48   29   30 am
    49   29   49 1
    50   30   31 2
    51   30   50 1
@<TRIPOS>MOLECULE
ZINC18230030
   32    35     0     0     0
SMALL
USER_CHARGES

@<TRIPOS>ATOM
      1 C1         -0.0024    1.3636   -0.3852 C.ar      1 <0>        -0.1425
      2 C2          1.1843    2.0764   -0.3355 C.ar      1 <0>        -0.0866
      3 C3          2.3918    1.4233   -0.1939 C.ar      1 <0>        -0.1380
      4 C4          2.4281    0.0365   -0.0988 C.ar      1 <0>         0.1367
      5 C5          1.2250   -0.6816   -0.1490 C.ar      1 <0>        -0.0800
      6 C6          0.0127   -0.0131   -0.2925 C.ar      1 <0>        -0.0826
      7 C7          1.5867   -2.1097   -0.0238 C.2       1 <0>        -0.2056
      8 C8          0.7284   -3.2007   -0.0213 C.2       1 <0>         0.2986
      9 C9         -0.7457   -3.1540    0.0907 C.2       1 <0>         0.1829
     10 N1         -1.5003   -2.0946    0.2062 N.2       1 <0>        -0.2631
     11 O1         -2.9062   -2.2339    0.3026 O.3       1 <0>        -0.3834
     12 C10        -1.1809   -4.5701    0.0427 C.ar      1 <0>        -0.1642
     13 C11        -2.4307   -5.1782    0.1013 C.ar      1 <0>        -0.0259
     14 C12        -2.5280   -6.5532    0.0311 C.ar      1 <0>        -0.1512
     15 C13        -1.3849   -7.3243   -0.0969 C.ar      1 <0>        -0.0586
     16 C14        -0.1407   -6.7311   -0.1555 C.ar      1 <0>        -0.1447
     17 C15        -0.0228   -5.3458   -0.0871 C.ar      1 <0>         0.1647
     18 N2          1.0909   -4.5168   -0.1279 N.pl3     1 <0>        -0.6175
     19 C16         3.0493   -2.1247    0.0967 C.2       1 <0>         0.5684
     20 O2          3.7472   -3.1157    0.2192 O.2       1 <0>        -0.5230
     21 N3          3.4842   -0.8541    0.0471 N.am      1 <0>        -0.6490
     22 H1         -0.9413    1.8865   -0.4922 H         1 <0>         0.1273
     23 H2          1.1645    3.1537   -0.4088 H         1 <0>         0.1294
     24 H3          3.3103    1.9903   -0.1572 H         1 <0>         0.1266
     25 H4         -0.9122   -0.5695   -0.3311 H         1 <0>         0.1639
     26 H5         -3.3798   -1.3948    0.3850 H         1 <0>         0.4132
     27 H6         -3.3218   -4.5764    0.2018 H         1 <0>         0.1385
     28 H7         -3.4969   -7.0283    0.0763 H         1 <0>         0.1358
     29 H8         -1.4681   -8.3998   -0.1510 H         1 <0>         0.1377
     30 H9          0.7438   -7.3428   -0.2549 H         1 <0>         0.1344
     31 H10         2.0048   -4.8291   -0.2181 H         1 <0>         0.4389
     32 H11         4.4164   -0.5923    0.1057 H         1 <0>         0.4189
@<TRIPOS>BOND
     1    1    6 ar
     2    1    2 ar
     3    1   22 1
     4    2    3 ar
     5    2   23 1
     6    3    4 ar
     7    3   24 1
     8    4   21 1
     9    4    5 ar
    10    5    6 ar
    11    5    7 1
    12    6   25 1
    13    7    8 2
    14    7   19 1
    15    8   18 1
    16    8    9 1
    17    9   10 2
    18    9   12 1
    19   10   11 1
    20   11   26 1
    21   12   17 ar
    22   12   13 ar
    23   13   14 ar
    24   13   27 1
    25   14   15 ar
    26   14   28 1
    27   15   16 ar
    28   15   29 1
    29   16   17 ar
    30   16   30 1
    31   17   18 1
    32   18   31 1
    33   19   20 2
    34   19   21 am
    35   21   32 1
@<TRIPOS>MOLECULE
ZINC18230030
   32    35     0     0     0
SMALL
USER_CHARGES

@<TRIPOS>ATOM
      1 C1         -0.0166    1.3748    0.0096 C.ar      1 <0>        -0.1225
      2 C2          1.1716    2.0888    0.0021 C.ar      1 <0>        -0.0962
      3 C3          2.3849    1.4332   -0.0130 C.ar      1 <0>        -0.1155
      4 C4          2.4239    0.0437   -0.0209 C.ar      1 <0>         0.0981
      5 C5          1.2204   -0.6769   -0.0133 C.ar      1 <0>        -0.0528
      6 C6          0.0021   -0.0041    0.0020 C.ar      1 <0>        -0.0805
      7 C7          1.5974   -2.1049   -0.0246 C.2       1 <0>        -0.2093
      8 C8          2.9936   -2.1364   -0.0381 C.2       1 <0>         0.3333
      9 N1          3.4675   -0.8669   -0.0358 N.pl3     1 <0>        -0.5789
     10 H1          4.4078   -0.6287   -0.0438 H         1 <0>         0.4230
     11 O1          3.7505   -3.2537   -0.0509 O.3       1 <0>        -0.4537
     12 C9          0.7262   -3.2100   -0.0222 C.2       1 <0>         0.3448
     13 C10         0.1967   -3.8930    1.1657 C.2       1 <0>        -0.1671
     14 C11        -0.6625   -4.9778    0.6376 C.ar      1 <0>        -0.0626
     15 C12        -1.4332   -5.9613    1.2492 C.ar      1 <0>        -0.0741
     16 C13        -2.1438   -6.8553    0.4745 C.ar      1 <0>        -0.1171
     17 C14        -2.0895   -6.7734   -0.9072 C.ar      1 <0>        -0.1048
     18 C15        -1.3281   -5.8025   -1.5238 C.ar      1 <0>        -0.1132
     19 C16        -0.6049   -4.8915   -0.7591 C.ar      1 <0>         0.0632
     20 N2          0.2180   -3.8346   -1.1211 N.pl3     1 <0>        -0.5424
     21 H2          0.4086   -3.5762   -2.0364 H         1 <0>         0.4251
     22 N3          0.4346   -3.6041    2.4257 N.2       1 <0>        -0.2807
     23 O2         -0.0801   -4.2653    3.3097 O.2       1 <0>         0.0258
     24 H3         -0.9601    1.9001    0.0260 H         1 <0>         0.1313
     25 H4          1.1469    3.1685    0.0078 H         1 <0>         0.1340
     26 H5          3.3046    1.9993   -0.0191 H         1 <0>         0.1285
     27 H6         -0.9243   -0.5592    0.0083 H         1 <0>         0.1229
     28 H7          3.9627   -3.5749   -0.9380 H         1 <0>         0.4047
     29 H8         -1.4750   -6.0251    2.3265 H         1 <0>         0.1455
     30 H9         -2.7428   -7.6202    0.9462 H         1 <0>         0.1335
     31 H10        -2.6482   -7.4764   -1.5072 H         1 <0>         0.1325
     32 H11        -1.2933   -5.7487   -2.6019 H         1 <0>         0.1251
@<TRIPOS>BOND
     1    1    6 ar
     2    1    2 ar
     3    1   24 1
     4    2    3 ar
     5    2   25 1
     6    3    4 ar
     7    3   26 1
     8    4    9 1
     9    4    5 ar
    10    5    6 ar
    11    5    7 1
    12    6   27 1
    13    7    8 2
    14    7   12 1
    15    8    9 1
    16    8   11 1
    17    9   10 1
    18   11   28 1
    19   12   20 1
    20   12   13 2
    21   13   14 1
    22   13   22 1
    23   14   19 ar
    24   14   15 ar
    25   15   16 ar
    26   15   29 1
    27   16   17 ar
    28   16   30 1
    29   17   18 ar
    30   17   31 1
    31   18   19 ar
    32   18   32 1
    33   19   20 1
    34   20   21 1
    35   22   23 2
@<TRIPOS>MOLECULE
ZINC18230030
   32    35     0     0     0
SMALL
USER_CHARGES

@<TRIPOS>ATOM
      1 C1         -0.0166    1.3757    0.0096 C.ar      1 <0>        -0.1357
      2 C2          1.1722    2.0867    0.0021 C.ar      1 <0>        -0.0871
      3 C3          2.3853    1.4289   -0.0135 C.ar      1 <0>        -0.1330
      4 C4          2.4252    0.0389   -0.0214 C.ar      1 <0>         0.1465
      5 C5          1.2200   -0.6774   -0.0133 C.ar      1 <0>        -0.0875
      6 C6          0.0021   -0.0041    0.0020 C.ar      1 <0>        -0.0793
      7 C7          1.5867   -2.1097   -0.0238 C.2       1 <0>        -0.2136
      8 C8          0.7284   -3.2007   -0.0213 C.2       1 <0>         0.3077
      9 C9          1.1246   -4.6257   -0.0260 C.2       1 <0>         0.1435
     10 N1          2.3359   -5.1133   -0.0337 N.2       1 <0>        -0.2047
     11 O1          2.5348   -6.5152   -0.0374 O.3       1 <0>        -0.3879
     12 C10        -0.1511   -5.3804   -0.0197 C.ar      1 <0>        -0.1524
     13 C11        -0.4460   -6.7399   -0.0207 C.ar      1 <0>        -0.0325
     14 C12        -1.7620   -7.1560   -0.0139 C.ar      1 <0>        -0.1476
     15 C13        -2.7850   -6.2226   -0.0067 C.ar      1 <0>        -0.0650
     16 C14        -2.5032   -4.8720   -0.0061 C.ar      1 <0>        -0.1436
     17 C15        -1.1821   -4.4335   -0.0119 C.ar      1 <0>         0.1573
     18 N2         -0.6401   -3.1547   -0.0078 N.pl3     1 <0>        -0.6231
     19 C16         3.0542   -2.1288   -0.0380 C.2       1 <0>         0.5661
     20 O2          3.7569   -3.1240   -0.0505 O.2       1 <0>        -0.4814
     21 N3          3.4872   -0.8566   -0.0360 N.am      1 <0>        -0.6546
     22 H1         -0.9596    1.9020    0.0260 H         1 <0>         0.1299
     23 H2          1.1495    3.1665    0.0081 H         1 <0>         0.1317
     24 H3          3.3053    1.9946   -0.0200 H         1 <0>         0.1287
     25 H4         -0.9244   -0.5591    0.0079 H         1 <0>         0.1145
     26 H5          3.4646   -6.7806   -0.0431 H         1 <0>         0.4151
     27 H6          0.3522   -7.4674   -0.0270 H         1 <0>         0.1376
     28 H7         -1.9942   -8.2107   -0.0147 H         1 <0>         0.1348
     29 H8         -3.8126   -6.5549   -0.0018 H         1 <0>         0.1367
     30 H9         -3.3094   -4.1534   -0.0008 H         1 <0>         0.1326
     31 H10        -1.1620   -2.3371    0.0014 H         1 <0>         0.4278
     32 H11         4.4217   -0.5969   -0.0438 H         1 <0>         0.4186
@<TRIPOS>BOND
     1    1    6 ar
     2    1    2 ar
     3    1   22 1
     4    2    3 ar
     5    2   23 1
     6    3    4 ar
     7    3   24 1
     8    4   21 1
     9    4    5 ar
    10    5    6 ar
    11    5    7 1
    12    6   25 1
    13    7    8 2
    14    7   19 1
    15    8   18 1
    16    8    9 1
    17    9   10 2
    18    9   12 1
    19   10   11 1
    20   11   26 1
    21   12   17 ar
    22   12   13 ar
    23   13   14 ar
    24   13   27 1
    25   14   15 ar
    26   14   28 1
    27   15   16 ar
    28   15   29 1
    29   16   17 ar
    30   16   30 1
    31   17   18 1
    32   18   31 1
    33   19   20 2
    34   19   21 am
    35   21   32 1
@<TRIPOS>MOLECULE
ZINC20149036
   46    50     0     0     0
SMALL
USER_CHARGES

@<TRIPOS>ATOM
      1 C1         -0.0167    1.3788    0.0096 C.ar      1 <0>        -0.0397
      2 C2          1.1946    2.0581    0.0017 C.ar      1 <0>        -0.2015
      3 C3          2.3728    1.3394   -0.0134 C.ar      1 <0>         0.1467
      4 N1          2.3606    0.0197   -0.0204 N.ar      1 <0>        -0.5267
      5 C4          1.2269   -0.6641   -0.0132 C.ar      1 <0>         0.3792
      6 C5          0.0021   -0.0041    0.0020 C.ar      1 <0>        -0.1980
      7 N2          1.2605   -2.0537   -0.0210 N.pl3     1 <0>        -1.0350
      8 S1          2.7142   -2.8466   -0.0391 S.o2      1 <0>         2.6953
      9 O1          2.4190   -4.2364   -0.0167 O.2       1 <0>        -0.9521
     10 O2          3.4899   -2.2491   -1.0689 O.2       1 <0>        -0.9261
     11 C6          3.5267   -2.4798    1.4807 C.ar      1 <0>        -0.7002
     12 C7          4.3558   -1.3766    1.5710 C.ar      1 <0>         0.0443
     13 C8          4.9945   -1.0865    2.7605 C.ar      1 <0>        -0.1824
     14 C9          4.8031   -1.9040    3.8673 C.ar      1 <0>         0.2126
     15 C10         3.9692   -3.0111    3.7732 C.ar      1 <0>        -0.1953
     16 C11         3.3295   -3.2925    2.5821 C.ar      1 <0>         0.0197
     17 N3          5.4482   -1.6136    5.0723 N.pl3     1 <0>        -0.6271
     18 C12         5.2595   -2.4161    6.1565 C.2       1 <0>         0.2554
     19 C13         5.8897   -2.1324    7.3338 C.2       1 <0>        -0.2847
     20 C14         5.8079   -2.8909    8.6045 C.ar      1 <0>        -0.0205
     21 C15         6.6255   -2.2129    9.5174 C.ar      1 <0>         0.1568
     22 C16         6.7394   -2.7115   10.8156 C.ar      1 <0>        -0.1136
     23 C17         6.0798   -3.8325   11.2108 C.ar      1 <0>        -0.0301
     24 C18         5.2468   -4.5428   10.3178 C.ar      1 <0>         0.0608
     25 C19         5.1365   -4.0308    9.0074 C.ar      1 <0>        -0.1244
     26 S2          4.0294   -5.1909    8.2496 S.3       1 <0>         0.0729
     27 C20         3.7928   -6.1942    9.5801 C.2       1 <0>         0.0769
     28 N4          4.5185   -5.6612   10.5190 N.2       1 <0>        -0.4987
     29 N5          7.1905   -1.1079    8.8930 N.am      1 <0>        -0.6412
     30 C21         6.7986   -1.0149    7.6113 C.2       1 <0>         0.5680
     31 O3          7.1365   -0.1525    6.8194 O.2       1 <0>        -0.5274
     32 H1         -0.9522    1.9182    0.0259 H         1 <0>         0.1408
     33 H2          1.2145    3.1379    0.0070 H         1 <0>         0.1401
     34 H3          3.3170    1.8637   -0.0200 H         1 <0>         0.1659
     35 H4         -0.9214   -0.5640    0.0078 H         1 <0>         0.1397
     36 H5          0.4325   -2.5589   -0.0158 H         1 <0>         0.4355
     37 H6          4.5041   -0.7415    0.7101 H         1 <0>         0.1599
     38 H7          5.6424   -0.2252    2.8301 H         1 <0>         0.1403
     39 H8          3.8182   -3.6487    4.6317 H         1 <0>         0.1376
     40 H9          2.6779   -4.1507    2.5094 H         1 <0>         0.1471
     41 H10         6.0305   -0.8404    5.1367 H         1 <0>         0.4318
     42 H11         4.6112   -3.2769    6.0848 H         1 <0>         0.1664
     43 H12         7.3682   -2.1936   11.5247 H         1 <0>         0.1414
     44 H13         6.1947   -4.1863   12.2247 H         1 <0>         0.1439
     45 H14         3.1788   -7.0807    9.6403 H         1 <0>         0.2249
     46 H15         7.7946   -0.4848    9.3263 H         1 <0>         0.4212
@<TRIPOS>BOND
     1    1    6 ar
     2    1    2 ar
     3    1   32 1
     4    2    3 ar
     5    2   33 1
     6    3    4 ar
     7    3   34 1
     8    4    5 ar
     9    5    6 ar
    10    5    7 1
    11    6   35 1
    12    7    8 1
    13    7   36 1
    14    8    9 2
    15    8   10 2
    16    8   11 1
    17   11   16 ar
    18   11   12 ar
    19   12   13 ar
    20   12   37 1
    21   13   14 ar
    22   13   38 1
    23   14   15 ar
    24   14   17 1
    25   15   16 ar
    26   15   39 1
    27   16   40 1
    28   17   18 1
    29   17   41 1
    30   18   19 2
    31   18   42 1
    32   19   30 1
    33   19   20 1
    34   20   25 ar
    35   20   21 ar
    36   21   22 ar
    37   21   29 1
    38   22   23 ar
    39   22   43 1
    40   23   24 ar
    41   23   44 1
    42   24   28 1
    43   24   25 ar
    44   25   26 1
    45   26   27 1
    46   27   28 2
    47   27   45 1
    48   29   30 am
    49   29   46 1
    50   30   31 2
@<TRIPOS>MOLECULE
ZINC20149036
   44    48     0     0     0
SMALL
USER_CHARGES

@<TRIPOS>ATOM
      1 C1         -0.0167    1.3788    0.0096 C.ar      1 <0>        -0.0531
      2 C2          1.1946    2.0581    0.0017 C.ar      1 <0>        -0.2961
      3 C3          2.3728    1.3394   -0.0134 C.ar      1 <0>         0.1474
      4 N1          2.3606    0.0197   -0.0204 N.ar      1 <0>        -0.5987
      5 C4          1.2269   -0.6641   -0.0132 C.ar      1 <0>         0.4429
      6 C5          0.0021   -0.0041    0.0020 C.ar      1 <0>        -0.2213
      7 N2          1.2605   -2.0537   -0.0210 N.2       1 <0>        -1.0739
      8 S1          2.7142   -2.8466   -0.0391 S.o2      1 <0>         2.6379
      9 O1          3.3226   -2.5509   -1.2888 O.2       1 <0>        -1.0292
     10 O2          3.3464   -2.5642    1.2018 O.2       1 <0>        -1.0289
     11 C6          2.3654   -4.5738   -0.0451 C.ar      1 <0>        -0.6637
     12 C7          2.2349   -5.2540    1.1528 C.ar      1 <0>        -0.0078
     13 C8          1.9615   -6.6059    1.1558 C.ar      1 <0>        -0.1579
     14 C9          1.8164   -7.2883   -0.0544 C.ar      1 <0>         0.1739
     15 C10         1.9494   -6.5952   -1.2599 C.ar      1 <0>        -0.2080
     16 C11         2.2177   -5.2423   -1.2476 C.ar      1 <0>        -0.0028
     17 N3          1.5456   -8.6294   -0.0590 N.2       1 <0>        -0.5366
     18 C12         0.6258   -9.1089   -0.8582 C.2       1 <0>         0.2815
     19 C13         0.3454  -10.4976   -0.8630 C.2       1 <0>        -0.3521
     20 C14        -0.6489  -11.1963   -1.7008 C.ar      1 <0>         0.0184
     21 C15        -0.5617  -12.5532   -1.3526 C.ar      1 <0>         0.0932
     22 C16        -1.3966  -13.4702   -1.9914 C.ar      1 <0>        -0.1011
     23 C17        -2.2878  -13.0802   -2.9393 C.ar      1 <0>        -0.0907
     24 C18        -2.4059  -11.7223   -3.3186 C.ar      1 <0>         0.0488
     25 C19        -1.5592  -10.8022   -2.6675 C.ar      1 <0>        -0.1316
     26 S2         -2.0289   -9.2681   -3.4236 S.3       1 <0>         0.0692
     27 C20        -3.2095   -9.8692   -4.4616 C.2       1 <0>         0.0350
     28 N4         -3.2216  -11.1490   -4.2282 N.2       1 <0>        -0.5066
     29 N5          0.4098  -12.6809   -0.3770 N.pl3     1 <0>        -0.6232
     30 H1          0.6689  -13.5180    0.0388 H         1 <0>         0.3998
     31 C21         0.9546  -11.4706   -0.0862 C.2       1 <0>         0.4860
     32 O3          1.9341  -11.2498    0.8199 O.3       1 <0>        -0.6382
     33 H2         -0.9522    1.9182    0.0259 H         1 <0>         0.1092
     34 H3          1.2145    3.1379    0.0070 H         1 <0>         0.1059
     35 H4          3.3170    1.8637   -0.0200 H         1 <0>         0.1282
     36 H5         -0.9214   -0.5640    0.0078 H         1 <0>         0.1181
     37 H6          2.3478   -4.7252    2.0877 H         1 <0>         0.1293
     38 H7          1.8603   -7.1357    2.0914 H         1 <0>         0.1241
     39 H8          1.8384   -7.1165   -2.1991 H         1 <0>         0.1170
     40 H9          2.3168   -4.7042   -2.1788 H         1 <0>         0.1267
     41 H10         0.0810   -8.4457   -1.5138 H         1 <0>         0.0758
     42 H11        -1.3326  -14.5152   -1.7263 H         1 <0>         0.1199
     43 H12        -2.9172  -13.8197   -3.4120 H         1 <0>         0.1219
     44 H13        -3.8179   -9.3178   -5.1632 H         1 <0>         0.2113
@<TRIPOS>BOND
     1    1    6 ar
     2    1    2 ar
     3    1   33 1
     4    2    3 ar
     5    2   34 1
     6    3    4 ar
     7    3   35 1
     8    4    5 ar
     9    5    6 ar
    10    5    7 1
    11    6   36 1
    12    7    8 1
    13    8    9 2
    14    8   10 2
    15    8   11 1
    16   11   16 ar
    17   11   12 ar
    18   12   13 ar
    19   12   37 1
    20   13   14 ar
    21   13   38 1
    22   14   15 ar
    23   14   17 1
    24   15   16 ar
    25   15   39 1
    26   16   40 1
    27   17   18 2
    28   18   19 1
    29   18   41 1
    30   19   31 2
    31   19   20 1
    32   20   25 ar
    33   20   21 ar
    34   21   22 ar
    35   21   29 1
    36   22   23 ar
    37   22   42 1
    38   23   24 ar
    39   23   43 1
    40   24   28 1
    41   24   25 ar
    42   25   26 1
    43   26   27 1
    44   27   28 2
    45   27   44 1
    46   29   30 1
    47   29   31 1
    48   31   32 1
@<TRIPOS>MOLECULE
ZINC20149036
   45    49     0     0     0
SMALL
USER_CHARGES

@<TRIPOS>ATOM
      1 C1         -0.0163    1.3544    0.0095 C.2       1 <0>        -0.0171
      2 C2          1.1954    2.0667    0.0017 C.2       1 <0>        -0.2158
      3 C3          2.3740    1.4093   -0.0135 C.2       1 <0>         0.1325
      4 N1          2.4120    0.0471   -0.0216 N.pl3     1 <0>        -0.6267
      5 C4          1.2455   -0.6792   -0.0139 C.2       1 <0>         0.5145
      6 C5          0.0021   -0.0041    0.0020 C.2       1 <0>        -0.1579
      7 N2          1.2846   -1.9955   -0.0223 N.2       1 <0>        -1.0030
      8 S1          2.7426   -2.7805   -0.0420 S.o2      1 <0>         2.6203
      9 O1          3.3484   -2.4805   -1.2919 O.2       1 <0>        -0.9989
     10 O2          3.3741   -2.4955    1.1986 O.2       1 <0>        -0.9984
     11 C6          2.4033   -4.5095   -0.0489 C.ar      1 <0>        -0.6815
     12 C7          2.2775   -5.1913    1.1486 C.ar      1 <0>        -0.0001
     13 C8          2.0115   -6.5447    1.1508 C.ar      1 <0>        -0.1589
     14 C9          1.8691   -7.2270   -0.0598 C.ar      1 <0>         0.2084
     15 C10         1.9975   -6.5323   -1.2648 C.ar      1 <0>        -0.2114
     16 C11         2.2583   -5.1780   -1.2518 C.ar      1 <0>         0.0068
     17 N3          1.6057   -8.5696   -0.0651 N.2       1 <0>        -0.5527
     18 C12         0.6880   -9.0536   -0.8640 C.2       1 <0>         0.2963
     19 C13         0.4152  -10.4438   -0.8695 C.2       1 <0>        -0.3529
     20 C14        -0.5759  -11.1473   -1.7070 C.ar      1 <0>         0.0140
     21 C15        -0.4810  -12.5040   -1.3598 C.ar      1 <0>         0.1032
     22 C16        -1.3113  -13.4251   -1.9987 C.ar      1 <0>        -0.1028
     23 C17        -2.2053  -13.0393   -2.9456 C.ar      1 <0>        -0.0808
     24 C18        -2.3312  -11.6818   -3.3239 C.ar      1 <0>         0.0491
     25 C19        -1.4890  -10.7576   -2.6728 C.ar      1 <0>        -0.1294
     26 S2         -1.9677   -9.2255   -3.4274 S.3       1 <0>         0.0586
     27 C20        -3.1457   -9.8324   -4.4650 C.2       1 <0>         0.0412
     28 N4         -3.1506  -11.1124   -4.2325 N.2       1 <0>        -0.5026
     29 N5          0.4920  -12.6270   -0.3851 N.pl3     1 <0>        -0.6235
     30 H1          0.7560  -13.4630    0.0300 H         1 <0>         0.4033
     31 C21         1.0303  -11.4140   -0.0939 C.2       1 <0>         0.4921
     32 O3          2.0093  -11.1884    0.8117 O.3       1 <0>        -0.6326
     33 H2         -0.9573    1.8844    0.0258 H         1 <0>         0.1472
     34 H3          1.1833    3.1466    0.0077 H         1 <0>         0.1523
     35 H4          3.2975    1.9692   -0.0197 H         1 <0>         0.1724
     36 H5         -0.9223   -0.5626    0.0078 H         1 <0>         0.1644
     37 H6          2.3881   -4.6625    2.0838 H         1 <0>         0.1314
     38 H7          1.9139   -7.0757    2.0862 H         1 <0>         0.1318
     39 H8          1.8886   -7.0536   -2.2044 H         1 <0>         0.1244
     40 H9          2.3538   -4.6388   -2.1827 H         1 <0>         0.1289
     41 H10         0.1391   -8.3929   -1.5187 H         1 <0>         0.0788
     42 H11        -1.2413  -14.4699   -1.7344 H         1 <0>         0.1238
     43 H12        -2.8310  -13.7820   -3.4184 H         1 <0>         0.1258
     44 H13        -3.7577   -9.2839   -5.1658 H         1 <0>         0.2127
     45 H14         3.2664   -0.4120   -0.0332 H         1 <0>         0.4130
@<TRIPOS>BOND
     1    1    6 2
     2    1    2 1
     3    1   33 1
     4    2    3 2
     5    2   34 1
     6    3    4 1
     7    3   35 1
     8    4    5 1
     9    4   45 1
    10    5    6 1
    11    5    7 2
    12    6   36 1
    13    7    8 1
    14    8    9 2
    15    8   10 2
    16    8   11 1
    17   11   16 ar
    18   11   12 ar
    19   12   13 ar
    20   12   37 1
    21   13   14 ar
    22   13   38 1
    23   14   15 ar
    24   14   17 1
    25   15   16 ar
    26   15   39 1
    27   16   40 1
    28   17   18 2
    29   18   19 1
    30   18   41 1
    31   19   31 2
    32   19   20 1
    33   20   25 ar
    34   20   21 ar
    35   21   22 ar
    36   21   29 1
    37   22   23 ar
    38   22   42 1
    39   23   24 ar
    40   23   43 1
    41   24   28 1
    42   24   25 ar
    43   25   26 1
    44   26   27 1
    45   27   28 2
    46   27   44 1
    47   29   30 1
    48   29   31 1
    49   31   32 1
@<TRIPOS>MOLECULE
ZINC20149036
   46    50     0     0     0
SMALL
USER_CHARGES

@<TRIPOS>ATOM
      1 C1         -0.0167    1.3788    0.0096 C.ar      1 <0>        -0.0400
      2 C2          1.1946    2.0581    0.0017 C.ar      1 <0>        -0.2028
      3 C3          2.3728    1.3394   -0.0134 C.ar      1 <0>         0.1471
      4 N1          2.3606    0.0197   -0.0204 N.ar      1 <0>        -0.5251
      5 C4          1.2269   -0.6641   -0.0132 C.ar      1 <0>         0.3804
      6 C5          0.0021   -0.0041    0.0020 C.ar      1 <0>        -0.1989
      7 N2          1.2605   -2.0537   -0.0210 N.pl3     1 <0>        -1.0355
      8 S1          2.7142   -2.8466   -0.0391 S.o2      1 <0>         2.6932
      9 O1          2.4190   -4.2364   -0.0167 O.2       1 <0>        -0.9539
     10 O2          3.4899   -2.2491   -1.0689 O.2       1 <0>        -0.9276
     11 C6          3.5267   -2.4798    1.4807 C.ar      1 <0>        -0.6877
     12 C7          4.3559   -1.3755    1.5691 C.ar      1 <0>         0.0202
     13 C8          4.9948   -1.0820    2.7558 C.ar      1 <0>        -0.1396
     14 C9          4.8032   -1.9027    3.8698 C.ar      1 <0>         0.1580
     15 C10         3.9648   -3.0158    3.7732 C.ar      1 <0>        -0.1854
     16 C11         3.3282   -3.2941    2.5817 C.ar      1 <0>        -0.0018
     17 N3          5.4341   -1.6178    5.0500 N.2       1 <0>        -0.5006
     18 C12         4.7701   -1.6725    6.1772 C.2       1 <0>         0.2572
     19 C13         5.4235   -1.3776    7.3992 C.2       1 <0>        -0.1880
     20 C14         4.8263   -1.3983    8.7489 C.ar      1 <0>        -0.0163
     21 C15         5.8563   -1.0391    9.6322 C.ar      1 <0>         0.1095
     22 C16         5.5828   -0.9727   10.9985 C.ar      1 <0>        -0.0959
     23 C17         4.3470   -1.2474   11.4905 C.ar      1 <0>        -0.0421
     24 C18         3.2825   -1.6135   10.6334 C.ar      1 <0>         0.0733
     25 C19         3.5672   -1.6772    9.2542 C.ar      1 <0>        -0.1288
     26 S2          2.0004   -2.1561    8.5748 S.3       1 <0>         0.0982
     27 C20         1.1342   -2.2375   10.0155 C.2       1 <0>         0.0684
     28 N4          2.0022   -1.9196   10.9310 N.2       1 <0>        -0.5022
     29 N5          6.9983   -0.8147    8.8858 N.pl3     1 <0>        -0.5715
     30 H1          7.8566   -0.5524    9.2539 H         1 <0>         0.4248
     31 C21         6.7518   -1.0182    7.5652 C.2       1 <0>         0.3506
     32 O3          7.6583   -0.8879    6.5699 O.3       1 <0>        -0.4401
     33 H2         -0.9522    1.9182    0.0259 H         1 <0>         0.1404
     34 H3          1.2145    3.1379    0.0070 H         1 <0>         0.1397
     35 H4          3.3170    1.8637   -0.0200 H         1 <0>         0.1653
     36 H5         -0.9214   -0.5640    0.0078 H         1 <0>         0.1394
     37 H6          0.4325   -2.5589   -0.0158 H         1 <0>         0.4349
     38 H7          4.5033   -0.7421    0.7069 H         1 <0>         0.1552
     39 H8          5.6419   -0.2200    2.8234 H         1 <0>         0.1359
     40 H9          3.8121   -3.6545    4.6306 H         1 <0>         0.1302
     41 H10         2.6764   -4.1521    2.5067 H         1 <0>         0.1395
     42 H11         3.7244   -1.9425    6.1754 H         1 <0>         0.1069
     43 H12         6.3727   -0.6967   11.6814 H         1 <0>         0.1397
     44 H13         4.1739   -1.1856   12.5548 H         1 <0>         0.1438
     45 H14         0.0943   -2.4963   10.1498 H         1 <0>         0.2246
     46 H15         7.7026    0.0012    6.1922 H         1 <0>         0.4073
@<TRIPOS>BOND
     1    1    6 ar
     2    1    2 ar
     3    1   33 1
     4    2    3 ar
     5    2   34 1
     6    3    4 ar
     7    3   35 1
     8    4    5 ar
     9    5    6 ar
    10    5    7 1
    11    6   36 1
    12    7    8 1
    13    7   37 1
    14    8    9 2
    15    8   10 2
    16    8   11 1
    17   11   16 ar
    18   11   12 ar
    19   12   13 ar
    20   12   38 1
    21   13   14 ar
    22   13   39 1
    23   14   15 ar
    24   14   17 1
    25   15   16 ar
    26   15   40 1
    27   16   41 1
    28   17   18 2
    29   18   19 1
    30   18   42 1
    31   19   31 2
    32   19   20 1
    33   20   25 ar
    34   20   21 ar
    35   21   22 ar
    36   21   29 1
    37   22   23 ar
    38   22   43 1
    39   23   24 ar
    40   23   44 1
    41   24   28 1
    42   24   25 ar
    43   25   26 1
    44   26   27 1
    45   27   28 2
    46   27   45 1
    47   29   30 1
    48   29   31 1
    49   31   32 1
    50   32   46 1
@<TRIPOS>MOLECULE
ZINC20149036
   46    50     0     0     0
SMALL
USER_CHARGES

@<TRIPOS>ATOM
      1 C1          0.5366    2.5219    0.3830 C.ar      1 <0>        -0.0396
      2 C2          1.8727    2.8742    0.2433 C.ar      1 <0>        -0.2016
      3 C3          2.8271    1.8817    0.1469 C.ar      1 <0>         0.1463
      4 N1          2.4850    0.6077    0.1858 N.ar      1 <0>        -0.5267
      5 C4          1.2225    0.2316    0.3179 C.ar      1 <0>         0.3796
      6 C5          0.2086    1.1789    0.4206 C.ar      1 <0>        -0.1977
      7 N2          0.9071   -1.1217    0.3543 N.pl3     1 <0>        -1.0350
      8 S1          2.1080   -2.2553    0.2326 S.o2      1 <0>         2.6949
      9 O1          1.4786   -3.5257    0.3286 O.2       1 <0>        -0.9515
     10 O2          2.9065   -1.8831   -0.8824 O.2       1 <0>        -0.9258
     11 C6          3.1277   -2.0894    1.6600 C.ar      1 <0>        -0.6991
     12 C7          4.2107   -1.2297    1.6380 C.ar      1 <0>         0.0444
     13 C8          5.0122   -1.0975    2.7548 C.ar      1 <0>        -0.1827
     14 C9          4.7292   -1.8291    3.9014 C.ar      1 <0>         0.2131
     15 C10         3.6401   -2.6914    3.9202 C.ar      1 <0>        -0.1916
     16 C11         2.8398   -2.8149    2.8016 C.ar      1 <0>         0.0201
     17 N3          5.5383   -1.6982    5.0332 N.pl3     1 <0>        -0.6264
     18 C12         5.2595   -2.4161    6.1565 C.2       1 <0>         0.2550
     19 C13         5.9671   -2.1929    7.3024 C.2       1 <0>        -0.2857
     20 C14         6.8939   -1.0712    7.5843 C.ar      1 <0>        -0.0382
     21 C15         7.3720   -1.2769    8.8846 C.ar      1 <0>         0.1671
     22 C16         8.2767   -0.3595    9.4203 C.ar      1 <0>        -0.1128
     23 C17         8.7008    0.7215    8.7135 C.ar      1 <0>        -0.0281
     24 C18         8.2401    0.9618    7.3998 C.ar      1 <0>         0.0615
     25 C19         7.3263    0.0283    6.8656 C.ar      1 <0>        -0.1291
     26 S2          7.0214    0.6931    5.2498 S.3       1 <0>         0.0358
     27 C20         8.0246    2.0404    5.3564 C.2       1 <0>         0.0855
     28 N4          8.5401    1.9651    6.5483 N.2       1 <0>        -0.4894
     29 N5          6.8041   -2.4339    9.4035 N.am      1 <0>        -0.6432
     30 C21         5.9687   -3.0083    8.5218 C.2       1 <0>         0.5795
     31 O3          5.3274   -4.0286    8.7024 O.2       1 <0>        -0.5108
     32 H1         -0.2285    3.2797    0.4649 H         1 <0>         0.1406
     33 H2          2.1620    3.9142    0.2101 H         1 <0>         0.1400
     34 H3          3.8672    2.1513    0.0378 H         1 <0>         0.1657
     35 H4         -0.8206    0.8697    0.5283 H         1 <0>         0.1397
     36 H5         -0.0165   -1.4020    0.4509 H         1 <0>         0.4357
     37 H6          4.4301   -0.6613    0.7463 H         1 <0>         0.1605
     38 H7          5.8582   -0.4265    2.7367 H         1 <0>         0.1373
     39 H8          3.4173   -3.2616    4.8100 H         1 <0>         0.1408
     40 H9          1.9906   -3.4820    2.8169 H         1 <0>         0.1477
     41 H10         6.2986   -1.0960    5.0187 H         1 <0>         0.4046
     42 H11         4.4785   -3.1619    6.1407 H         1 <0>         0.1791
     43 H12         8.6493   -0.5121   10.4224 H         1 <0>         0.1440
     44 H13         9.4017    1.4085    9.1642 H         1 <0>         0.1460
     45 H14         8.1993    2.7970    4.6058 H         1 <0>         0.2276
     46 H15         6.9847   -2.7807   10.2911 H         1 <0>         0.4229
@<TRIPOS>BOND
     1    1    6 ar
     2    1    2 ar
     3    1   32 1
     4    2    3 ar
     5    2   33 1
     6    3    4 ar
     7    3   34 1
     8    4    5 ar
     9    5    6 ar
    10    5    7 1
    11    6   35 1
    12    7    8 1
    13    7   36 1
    14    8    9 2
    15    8   10 2
    16    8   11 1
    17   11   16 ar
    18   11   12 ar
    19   12   13 ar
    20   12   37 1
    21   13   14 ar
    22   13   38 1
    23   14   15 ar
    24   14   17 1
    25   15   16 ar
    26   15   39 1
    27   16   40 1
    28   17   18 1
    29   17   41 1
    30   18   19 2
    31   18   42 1
    32   19   30 1
    33   19   20 1
    34   20   25 ar
    35   20   21 ar
    36   21   22 ar
    37   21   29 1
    38   22   23 ar
    39   22   43 1
    40   23   24 ar
    41   23   44 1
    42   24   28 1
    43   24   25 ar
    44   25   26 1
    45   26   27 1
    46   27   28 2
    47   27   45 1
    48   29   30 am
    49   29   46 1
    50   30   31 2
@<TRIPOS>MOLECULE
ZINC20149036
   46    50     0     0     0
SMALL
USER_CHARGES

@<TRIPOS>ATOM
      1 C1         -0.0163    1.3544    0.0095 C.2       1 <0>        -0.0091
      2 C2          1.1954    2.0667    0.0017 C.2       1 <0>        -0.2090
      3 C3          2.3740    1.4093   -0.0135 C.2       1 <0>         0.1321
      4 N1          2.4120    0.0471   -0.0216 N.pl3     1 <0>        -0.6234
      5 C4          1.2455   -0.6792   -0.0139 C.2       1 <0>         0.5196
      6 C5          0.0021   -0.0041    0.0020 C.2       1 <0>        -0.1622
      7 N2          1.2846   -1.9955   -0.0223 N.2       1 <0>        -1.0110
      8 S1          2.7426   -2.7805   -0.0420 S.o2      1 <0>         2.6183
      9 O1          3.3484   -2.4805   -1.2919 O.2       1 <0>        -0.9898
     10 O2          3.3741   -2.4955    1.1986 O.2       1 <0>        -0.9900
     11 C6          2.4033   -4.5095   -0.0489 C.ar      1 <0>        -0.6595
     12 C7          2.2773   -5.1926    1.1469 C.ar      1 <0>         0.0220
     13 C8          2.0118   -6.5478    1.1451 C.ar      1 <0>        -0.1746
     14 C9          1.8710   -7.2248   -0.0598 C.ar      1 <0>         0.2089
     15 C10         1.9978   -6.5355   -1.2592 C.ar      1 <0>        -0.1895
     16 C11         2.2581   -5.1792   -1.2501 C.ar      1 <0>         0.0234
     17 N3          1.6028   -8.5963   -0.0652 N.pl3     1 <0>        -0.6264
     18 C12         1.4650   -9.2585   -1.2474 C.2       1 <0>         0.2565
     19 C13         1.2031  -10.5983   -1.2527 C.2       1 <0>        -0.2857
     20 C14         1.0291  -11.4770   -2.4335 C.ar      1 <0>        -0.0197
     21 C15         0.7799  -12.7607   -1.9318 C.ar      1 <0>         0.1563
     22 C16         0.5737  -13.8056   -2.8333 C.ar      1 <0>        -0.1134
     23 C17         0.6096  -13.6068   -4.1776 C.ar      1 <0>        -0.0306
     24 C18         0.8585  -12.3263   -4.7202 C.ar      1 <0>         0.0608
     25 C19         1.0647  -11.2754   -3.8012 C.ar      1 <0>        -0.1247
     26 S2          1.3320   -9.8911   -4.8773 S.3       1 <0>         0.0739
     27 C20         1.1702  -10.6989   -6.3449 C.2       1 <0>         0.0764
     28 N4          0.9324  -11.9330   -6.0092 N.2       1 <0>        -0.4990
     29 N5          0.7910  -12.7195   -0.5431 N.am      1 <0>        -0.6412
     30 C21         1.0396  -11.4790   -0.0911 C.2       1 <0>         0.5681
     31 O3          1.1136  -11.1439    1.0782 O.2       1 <0>        -0.5277
     32 H1         -0.9573    1.8844    0.0258 H         1 <0>         0.1507
     33 H2          1.1833    3.1466    0.0077 H         1 <0>         0.1565
     34 H3          3.2975    1.9692   -0.0197 H         1 <0>         0.1762
     35 H4         -0.9223   -0.5626    0.0078 H         1 <0>         0.1656
     36 H5          2.3869   -4.6656    2.0832 H         1 <0>         0.1482
     37 H6          1.9142   -7.0808    2.0794 H         1 <0>         0.1427
     38 H7          1.8888   -7.0588   -2.1977 H         1 <0>         0.1397
     39 H8          2.3528   -4.6419   -2.1822 H         1 <0>         0.1485
     40 H9          1.5148   -9.0766    0.7729 H         1 <0>         0.4319
     41 H10         1.5630   -8.7237   -2.1806 H         1 <0>         0.1667
     42 H11         0.3811  -14.7979   -2.4532 H         1 <0>         0.1412
     43 H12         0.4452  -14.4421   -4.8422 H         1 <0>         0.1437
     44 H13         1.2481  -10.2865   -7.3400 H         1 <0>         0.2247
     45 H14         0.6421  -13.4896    0.0276 H         1 <0>         0.4210
     46 H15         3.2664   -0.4120   -0.0332 H         1 <0>         0.4130
@<TRIPOS>BOND
     1    1    6 2
     2    1    2 1
     3    1   32 1
     4    2    3 2
     5    2   33 1
     6    3    4 1
     7    3   34 1
     8    4    5 1
     9    4   46 1
    10    5    6 1
    11    5    7 2
    12    6   35 1
    13    7    8 1
    14    8    9 2
    15    8   10 2
    16    8   11 1
    17   11   16 ar
    18   11   12 ar
    19   12   13 ar
    20   12   36 1
    21   13   14 ar
    22   13   37 1
    23   14   15 ar
    24   14   17 1
    25   15   16 ar
    26   15   38 1
    27   16   39 1
    28   17   18 1
    29   17   40 1
    30   18   19 2
    31   18   41 1
    32   19   30 1
    33   19   20 1
    34   20   25 ar
    35   20   21 ar
    36   21   22 ar
    37   21   29 1
    38   22   23 ar
    39   22   42 1
    40   23   24 ar
    41   23   43 1
    42   24   28 1
    43   24   25 ar
    44   25   26 1
    45   26   27 1
    46   27   28 2
    47   27   44 1
    48   29   30 am
    49   29   45 1
    50   30   31 2
@<TRIPOS>MOLECULE
ZINC20149036
   46    50     0     0     0
SMALL
USER_CHARGES

@<TRIPOS>ATOM
      1 C1         -1.4750    0.8961    0.9087 C.2       1 <0>        -0.0090
      2 C2         -0.4270    1.8099    0.7029 C.2       1 <0>        -0.2089
      3 C3          0.8159    1.3701    0.4148 C.2       1 <0>         0.1321
      4 N1          1.0782    0.0362    0.3181 N.pl3     1 <0>        -0.6234
      5 C4          0.0761   -0.8834    0.5140 C.2       1 <0>         0.5197
      6 C5         -1.2321   -0.4375    0.8168 C.2       1 <0>        -0.1622
      7 N2          0.3317   -2.1718    0.4197 N.2       1 <0>        -1.0110
      8 S1          1.8644   -2.6881    0.0640 S.o2      1 <0>         2.6178
      9 O1          2.1412   -2.2561   -1.2612 O.2       1 <0>        -0.9893
     10 O2          2.6814   -2.3269    1.1692 O.2       1 <0>        -0.9898
     11 C6          1.8243   -4.4491    0.0216 C.ar      1 <0>        -0.6583
     12 C7          2.0630   -5.1726    1.1758 C.ar      1 <0>         0.0224
     13 C8          2.0328   -6.5529    1.1460 C.ar      1 <0>        -0.1752
     14 C9          1.7618   -7.2146   -0.0450 C.ar      1 <0>         0.2095
     15 C10         1.5220   -6.4848   -1.2025 C.ar      1 <0>        -0.1857
     16 C11         1.5487   -5.1045   -1.1645 C.ar      1 <0>         0.0238
     17 N3          1.7309   -8.6113   -0.0788 N.pl3     1 <0>        -0.6260
     18 C12         1.4650   -9.2585   -1.2474 C.2       1 <0>         0.2560
     19 C13         1.3049  -10.6142   -1.2557 C.2       1 <0>        -0.2866
     20 C14         1.1492  -11.5096   -0.0849 C.ar      1 <0>        -0.0375
     21 C15         1.0168  -12.8057   -0.5993 C.ar      1 <0>         0.1665
     22 C16         0.8535  -13.8678    0.2907 C.ar      1 <0>        -0.1126
     23 C17         0.8198  -13.6739    1.6358 C.ar      1 <0>        -0.0285
     24 C18         0.9496  -12.3813    2.1910 C.ar      1 <0>         0.0617
     25 C19         1.1155  -11.3133    1.2836 C.ar      1 <0>        -0.1293
     26 S2          1.2357   -9.9187    2.3728 S.3       1 <0>         0.0358
     27 C20         1.0771  -10.7443    3.8308 C.2       1 <0>         0.0857
     28 N4          0.9416  -11.9903    3.4827 N.2       1 <0>        -0.4898
     29 N5          1.0811  -12.7564   -1.9863 N.am      1 <0>        -0.6431
     30 C21         1.2436  -11.4972   -2.4255 C.2       1 <0>         0.5797
     31 O3          1.3280  -11.1500   -3.5905 O.2       1 <0>        -0.5112
     32 H1         -2.4673    1.2522    1.1432 H         1 <0>         0.1507
     33 H2         -0.6176    2.8705    0.7754 H         1 <0>         0.1565
     34 H3          1.6118    2.0833    0.2586 H         1 <0>         0.1762
     35 H4         -2.0291   -1.1495    0.9729 H         1 <0>         0.1656
     36 H5          2.2736   -4.6575    2.1014 H         1 <0>         0.1487
     37 H6          2.2200   -7.1173    2.0476 H         1 <0>         0.1393
     38 H7          1.3110   -6.9961   -2.1301 H         1 <0>         0.1430
     39 H8          1.3584   -4.5364   -2.0631 H         1 <0>         0.1491
     40 H9          1.8988   -9.1198    0.7299 H         1 <0>         0.4046
     41 H10         1.3809   -8.6992   -2.1674 H         1 <0>         0.1795
     42 H11         0.7508  -14.8697   -0.0991 H         1 <0>         0.1439
     43 H12         0.6913  -14.5226    2.2913 H         1 <0>         0.1458
     44 H13         1.0843  -10.3325    4.8293 H         1 <0>         0.2277
     45 H14         1.0132  -13.5324   -2.5644 H         1 <0>         0.4228
     46 H15         1.9762   -0.2654    0.1097 H         1 <0>         0.4131
@<TRIPOS>BOND
     1    1    6 2
     2    1    2 1
     3    1   32 1
     4    2    3 2
     5    2   33 1
     6    3    4 1
     7    3   34 1
     8    4    5 1
     9    4   46 1
    10    5    6 1
    11    5    7 2
    12    6   35 1
    13    7    8 1
    14    8    9 2
    15    8   10 2
    16    8   11 1
    17   11   16 ar
    18   11   12 ar
    19   12   13 ar
    20   12   36 1
    21   13   14 ar
    22   13   37 1
    23   14   15 ar
    24   14   17 1
    25   15   16 ar
    26   15   38 1
    27   16   39 1
    28   17   18 1
    29   17   40 1
    30   18   19 2
    31   18   41 1
    32   19   30 1
    33   19   20 1
    34   20   25 ar
    35   20   21 ar
    36   21   22 ar
    37   21   29 1
    38   22   23 ar
    39   22   42 1
    40   23   24 ar
    41   23   43 1
    42   24   28 1
    43   24   25 ar
    44   25   26 1
    45   26   27 1
    46   27   28 2
    47   27   44 1
    48   29   30 am
    49   29   45 1
    50   30   31 2
@<TRIPOS>MOLECULE
ZINC00602192
   52    54     0     0     0
SMALL
USER_CHARGES

@<TRIPOS>ATOM
      1 C1         -0.0187    1.5258    0.0104 C.3       1 <0>        -0.1531
      2 C2          0.0021   -0.0041    0.0020 C.3       1 <0>        -0.1278
      3 C3         -1.4333   -0.5336    0.0129 C.3       1 <0>         0.1690
      4 H1         -1.9862   -0.1019   -0.8214 H         1 <0>         0.1028
      5 C4         -1.4157   -2.0577   -0.1212 C.3       1 <0>         0.0625
      6 O1         -0.5943   -2.6167    0.9058 O.3       1 <0>        -0.5692
      7 N1         -2.0815   -0.1618    1.2729 N.pl3     1 <0>        -0.6816
      8 C5         -3.4608   -0.0505    1.3358 C.ar      1 <0>         0.6305
      9 N2         -4.1736   -0.2909    0.2424 N.ar      1 <0>        -0.6255
     10 C6         -5.4983   -0.1974    0.2522 C.ar      1 <0>         0.5407
     11 C7         -6.1381    0.1638    1.4509 C.ar      1 <0>        -0.1560
     12 C8         -5.3431    0.4087    2.5823 C.ar      1 <0>         0.3484
     13 N3         -4.0227    0.2867    2.4850 N.ar      1 <0>        -0.6160
     14 N4         -6.2120    0.7357    3.5923 N.pl3     1 <0>        -0.4703
     15 C9         -7.4746    0.6860    3.0775 C.2       1 <0>         0.2319
     16 N5         -7.4289    0.3504    1.8214 N.2       1 <0>        -0.4548
     17 C10        -5.8507    1.0750    4.9709 C.3       1 <0>         0.1343
     18 C11        -6.3389    2.4888    5.2929 C.3       1 <0>        -0.1626
     19 C12        -6.5055    0.0786    5.9298 C.3       1 <0>        -0.1626
     20 N6         -6.2330   -0.4496   -0.8927 N.pl3     1 <0>        -0.6898
     21 C13        -5.5502   -0.8244   -2.1335 C.3       1 <0>         0.1717
     22 C14        -6.5696   -1.0420   -3.2219 C.ar      1 <0>        -0.1135
     23 C15        -7.1206   -2.2954   -3.4122 C.ar      1 <0>        -0.0986
     24 C16        -8.0557   -2.4951   -4.4105 C.ar      1 <0>        -0.1221
     25 C17        -8.4401   -1.4412   -5.2182 C.ar      1 <0>        -0.1101
     26 C18        -7.8898   -0.1876   -5.0274 C.ar      1 <0>        -0.1219
     27 C19        -6.9579    0.0130   -4.0262 C.ar      1 <0>        -0.0982
     28 H2          1.0039    1.9031    0.0027 H         1 <0>         0.0563
     29 H3         -0.5459    1.8868   -0.8726 H         1 <0>         0.0537
     30 H4         -0.5289    1.8773    0.9072 H         1 <0>         0.0553
     31 H5          0.5123   -0.3556   -0.8948 H         1 <0>         0.0774
     32 H6          0.5293   -0.3651    0.8851 H         1 <0>         0.0768
     33 H7         -2.4308   -2.4427   -0.0245 H         1 <0>         0.0505
     34 H8         -1.0145   -2.3319   -1.0969 H         1 <0>         0.0523
     35 H9         -0.5369   -3.5817    0.8819 H         1 <0>         0.3776
     36 H10        -1.5448    0.0065    2.0632 H         1 <0>         0.4145
     37 H11        -8.3784    0.8940    3.6310 H         1 <0>         0.2138
     38 H12        -4.7675    1.0301    5.0842 H         1 <0>         0.1061
     39 H13        -7.4221    2.5338    5.1796 H         1 <0>         0.0654
     40 H14        -6.0701    2.7413    6.3186 H         1 <0>         0.0793
     41 H15        -5.8724    3.1986    4.6098 H         1 <0>         0.0629
     42 H16        -6.1577   -0.9286    5.7004 H         1 <0>         0.0629
     43 H17        -6.2367    0.3311    6.9555 H         1 <0>         0.0793
     44 H18        -7.5887    0.1236    5.8165 H         1 <0>         0.0654
     45 H19        -7.2002   -0.3782   -0.8739 H         1 <0>         0.4195
     46 H20        -4.8686   -0.0265   -2.4284 H         1 <0>         0.0773
     47 H21        -4.9865   -1.7436   -1.9746 H         1 <0>         0.0763
     48 H22        -6.8203   -3.1188   -2.7811 H         1 <0>         0.1232
     49 H23        -8.4856   -3.4746   -4.5596 H         1 <0>         0.1244
     50 H24        -9.1701   -1.5974   -5.9987 H         1 <0>         0.1237
     51 H25        -8.1899    0.6357   -5.6587 H         1 <0>         0.1245
     52 H26        -6.5307    0.9933   -3.8747 H         1 <0>         0.1237
@<TRIPOS>BOND
     1    1    2 1
     2    1   28 1
     3    1   29 1
     4    1   30 1
     5    2    3 1
     6    2   31 1
     7    2   32 1
     8    3    4 1
     9    3    5 1
    10    3    7 1
    11    5    6 1
    12    5   33 1
    13    5   34 1
    14    6   35 1
    15    7    8 1
    16    7   36 1
    17    8   13 ar
    18    8    9 ar
    19    9   10 ar
    20   10   11 ar
    21   10   20 1
    22   11   16 1
    23   11   12 ar
    24   12   13 ar
    25   12   14 1
    26   14   15 1
    27   14   17 1
    28   15   16 2
    29   15   37 1
    30   17   18 1
    31   17   19 1
    32   17   38 1
    33   18   39 1
    34   18   40 1
    35   18   41 1
    36   19   42 1
    37   19   43 1
    38   19   44 1
    39   20   21 1
    40   20   45 1
    41   21   22 1
    42   21   46 1
    43   21   47 1
    44   22   27 ar
    45   22   23 ar
    46   23   24 ar
    47   23   48 1
    48   24   25 ar
    49   24   49 1
    50   25   26 ar
    51   25   50 1
    52   26   27 ar
    53   26   51 1
    54   27   52 1
@<TRIPOS>MOLECULE
ZINC01649340
   52    54     0     0     0
SMALL
USER_CHARGES

@<TRIPOS>ATOM
      1 C1         -0.0187    1.5258    0.0104 C.3       1 <0>        -0.1531
      2 C2          0.0021   -0.0041    0.0020 C.3       1 <0>        -0.1278
      3 C3         -1.4333   -0.5336    0.0129 C.3       1 <0>         0.1689
      4 H1         -1.9701   -0.1109    0.8621 H         1 <0>         0.1030
      5 C4         -1.4133   -2.0590    0.1302 C.3       1 <0>         0.0625
      6 O1         -0.6117   -2.6069   -0.9183 O.3       1 <0>        -0.5692
      7 N1         -2.1054   -0.1483   -1.2305 N.pl3     1 <0>        -0.6816
      8 C5         -3.4856   -0.0365   -1.2658 C.ar      1 <0>         0.6305
      9 N2         -4.1766   -0.2783   -0.1589 N.ar      1 <0>        -0.6256
     10 C6         -5.5013   -0.1844   -0.1423 C.ar      1 <0>         0.5407
     11 C7         -6.1646    0.1788   -1.3275 C.ar      1 <0>        -0.1560
     12 C8         -5.3921    0.4251   -2.4741 C.ar      1 <0>         0.3485
     13 N3         -4.0693    0.3129   -2.4004 N.ar      1 <0>        -0.6161
     14 N4         -6.2808    0.7538   -3.4662 N.pl3     1 <0>        -0.4704
     15 C9         -7.5330    0.7038   -2.9264 C.2       1 <0>         0.2320
     16 N5         -7.4624    0.3664   -1.6720 N.2       1 <0>        -0.4548
     17 C10        -5.9467    1.0964   -4.8508 C.3       1 <0>         0.1344
     18 C11        -6.6196    0.1019   -5.7989 C.3       1 <0>        -0.1626
     19 C12        -6.4419    2.5107   -5.1599 C.3       1 <0>        -0.1626
     20 N6         -6.2133   -0.4389    1.0165 N.pl3     1 <0>        -0.6899
     21 C13        -5.5062   -0.8166    2.2427 C.3       1 <0>         0.1717
     22 C14        -6.5039   -1.0364    3.3505 C.ar      1 <0>        -0.1135
     23 C15        -6.8801    0.0183    4.1611 C.ar      1 <0>        -0.0982
     24 C16        -7.7953   -0.1833    5.1773 C.ar      1 <0>        -0.1219
     25 C17        -8.3347   -1.4394    5.3826 C.ar      1 <0>        -0.1101
     26 C18        -7.9592   -2.4939    4.5714 C.ar      1 <0>        -0.1221
     27 C19        -7.0472   -2.2913    3.5524 C.ar      1 <0>        -0.0986
     28 H2          1.0039    1.9031    0.0027 H         1 <0>         0.0563
     29 H3         -0.5459    1.8868   -0.8726 H         1 <0>         0.0552
     30 H4         -0.5289    1.8773    0.9072 H         1 <0>         0.0537
     31 H5          0.5123   -0.3556   -0.8948 H         1 <0>         0.0768
     32 H6          0.5293   -0.3651    0.8851 H         1 <0>         0.0774
     33 H7         -0.9936   -2.3437    1.0951 H         1 <0>         0.0524
     34 H8         -2.4301   -2.4431    0.0488 H         1 <0>         0.0503
     35 H9         -0.5540   -3.5721   -0.9058 H         1 <0>         0.3776
     36 H10        -1.5839    0.0285   -2.0291 H         1 <0>         0.4145
     37 H11        -8.4474    0.9139   -3.4613 H         1 <0>         0.2138
     38 H12        -4.8660    1.0524   -4.9853 H         1 <0>         0.1061
     39 H13        -7.7004    0.1459   -5.6644 H         1 <0>         0.0654
     40 H14        -6.3710    0.3568   -6.8291 H         1 <0>         0.0793
     41 H15        -6.2668   -0.9057   -5.5787 H         1 <0>         0.0629
     42 H16        -5.9625    3.2193   -4.4845 H         1 <0>         0.0629
     43 H17        -6.1933    2.7656   -6.1901 H         1 <0>         0.0793
     44 H18        -7.5227    2.5547   -5.0254 H         1 <0>         0.0654
     45 H19        -7.1807   -0.3672    1.0169 H         1 <0>         0.4195
     46 H20        -4.9460   -1.7357    2.0706 H         1 <0>         0.0763
     47 H21        -4.8186   -0.0196    2.5258 H         1 <0>         0.0773
     48 H22        -6.4587    0.9996    4.0008 H         1 <0>         0.1237
     49 H23        -8.0886    0.6405    5.8111 H         1 <0>         0.1245
     50 H24        -9.0492   -1.5971    6.1770 H         1 <0>         0.1237
     51 H25        -8.3804   -3.4753    4.7320 H         1 <0>         0.1244
     52 H26        -6.7567   -3.1143    2.9163 H         1 <0>         0.1232
@<TRIPOS>BOND
     1    1    2 1
     2    1   28 1
     3    1   29 1
     4    1   30 1
     5    2    3 1
     6    2   31 1
     7    2   32 1
     8    3    4 1
     9    3    5 1
    10    3    7 1
    11    5    6 1
    12    5   33 1
    13    5   34 1
    14    6   35 1
    15    7    8 1
    16    7   36 1
    17    8   13 ar
    18    8    9 ar
    19    9   10 ar
    20   10   11 ar
    21   10   20 1
    22   11   16 1
    23   11   12 ar
    24   12   13 ar
    25   12   14 1
    26   14   15 1
    27   14   17 1
    28   15   16 2
    29   15   37 1
    30   17   18 1
    31   17   19 1
    32   17   38 1
    33   18   39 1
    34   18   40 1
    35   18   41 1
    36   19   42 1
    37   19   43 1
    38   19   44 1
    39   20   21 1
    40   20   45 1
    41   21   22 1
    42   21   46 1
    43   21   47 1
    44   22   27 ar
    45   22   23 ar
    46   23   24 ar
    47   23   48 1
    48   24   25 ar
    49   24   49 1
    50   25   26 ar
    51   25   50 1
    52   26   27 ar
    53   26   51 1
    54   27   52 1
@<TRIPOS>MOLECULE
ZINC03814434
   62    69     0     0     0
SMALL
USER_CHARGES

@<TRIPOS>ATOM
      1 C1         -0.1295    1.5952   -0.2973 C.3       1 <0>        -0.1687
      2 C2         -0.0862    0.0696   -0.1900 C.3       1 <0>         0.3342
      3 C3          0.5692   -0.4501   -1.4637 C.3       1 <0>         0.0405
      4 H1          1.4796    0.1159   -1.6612 H         1 <0>         0.1372
      5 C4          0.9167   -1.9328   -1.2889 C.3       1 <0>        -0.0061
      6 H2          1.3963   -2.3075   -2.1932 H         1 <0>         0.1555
      7 C5          1.8785   -2.0596   -0.1021 C.3       1 <0>        -0.1827
      8 C6          1.2061   -1.5198    1.1541 C.3       1 <0>         0.2999
      9 H3          1.9797   -1.4243    1.9161 H         1 <0>         0.1550
     10 O1          0.6555   -0.2442    0.9666 O.3       1 <0>        -0.3234
     11 N1          0.2189   -2.4746    1.6600 N.pl3     1 <0>        -0.5366
     12 C7          0.4705   -3.5508    2.4739 C.ar      1 <0>         0.1469
     13 C8          1.6649   -4.0152    3.0240 C.ar      1 <0>        -0.1522
     14 C9          1.5948   -5.1456    3.8201 C.ar      1 <0>        -0.0582
     15 C10         0.4006   -5.7997    4.0696 C.ar      1 <0>        -0.1457
     16 C11        -0.7984   -5.3597    3.5358 C.ar      1 <0>        -0.0280
     17 C12        -0.7487   -4.2198    2.7307 C.ar      1 <0>        -0.1131
     18 C13        -1.7893   -3.4830    2.0197 C.ar      1 <0>         0.0276
     19 C14        -1.1442   -2.4197    1.3841 C.ar      1 <0>         0.0376
     20 C15        -1.8806   -1.5095    0.6175 C.ar      1 <0>         0.0894
     21 N2         -1.4718   -0.3951   -0.1095 N.pl3     1 <0>        -0.5183
     22 C16        -2.5611    0.1913   -0.7090 C.ar      1 <0>         0.1618
     23 C17        -2.6521    1.3277   -1.5118 C.ar      1 <0>        -0.1305
     24 C18        -3.9109    1.6745   -1.9733 C.ar      1 <0>        -0.0737
     25 C19        -5.0393    0.9368   -1.6616 C.ar      1 <0>        -0.1358
     26 C20        -4.9745   -0.1955   -0.8662 C.ar      1 <0>        -0.0503
     27 C21        -3.7147   -0.5596   -0.3919 C.ar      1 <0>        -0.1042
     28 C22        -3.2693   -1.6660    0.4845 C.ar      1 <0>        -0.0360
     29 C23        -3.9084   -2.7313    1.1102 C.ar      1 <0>        -0.0288
     30 C24        -3.1873   -3.6421    1.8754 C.ar      1 <0>        -0.1255
     31 C25        -4.1221   -4.6480    2.4030 C.2       1 <0>         0.5632
     32 O2         -3.8062   -5.5851    3.1110 O.2       1 <0>        -0.5106
     33 N3         -5.3744   -4.3851    1.9926 N.am      1 <0>        -0.7162
     34 C26        -5.3495   -3.1771    1.1601 C.3       1 <0>         0.1358
     35 N4         -0.3067   -2.7008   -1.0216 N.4       1 <0>        -0.5252
     36 C27         0.0145   -4.1336   -0.9773 C.3       1 <0>        -0.0497
     37 O3         -0.3340   -0.2979   -2.5607 O.3       1 <0>        -0.3614
     38 C28         0.3101   -0.0933   -3.8198 C.3       1 <0>         0.0162
     39 H4          0.8261    2.0094    0.0240 H         1 <0>         0.0984
     40 H5         -0.3202    1.8814   -1.3317 H         1 <0>         0.1036
     41 H6         -0.9255    1.9818    0.3392 H         1 <0>         0.0921
     42 H7          2.1370   -3.1081    0.0458 H         1 <0>         0.1233
     43 H8          2.7835   -1.4869   -0.3048 H         1 <0>         0.1455
     44 H9          2.6036   -3.5149    2.8368 H         1 <0>         0.1365
     45 H10         2.5026   -5.5304    4.2610 H         1 <0>         0.1359
     46 H11         0.4045   -6.6780    4.6980 H         1 <0>         0.1352
     47 H12        -1.7278   -5.8736    3.7323 H         1 <0>         0.1600
     48 H13        -1.7792    1.9122   -1.7624 H         1 <0>         0.1440
     49 H14        -4.0153    2.5500   -2.5970 H         1 <0>         0.1336
     50 H15        -5.9967    1.2527   -2.0488 H         1 <0>         0.1332
     51 H16        -5.8575   -0.7687   -0.6249 H         1 <0>         0.1415
     52 H17        -6.1628   -4.9065    2.2103 H         1 <0>         0.4348
     53 H18        -5.9671   -2.3994    1.6094 H         1 <0>         0.1115
     54 H19        -5.7060   -3.4063    0.1559 H         1 <0>         0.1103
     55 H20        -0.6958   -2.4158   -0.1353 H         1 <0>         0.4186
     56 H21         0.4349   -4.4415   -1.9347 H         1 <0>         0.1256
     57 H22         0.7403   -4.3189   -0.1854 H         1 <0>         0.1191
     58 H23        -0.8932   -4.7035   -0.7789 H         1 <0>         0.1256
     59 H24         0.9168    0.8112   -3.7748 H         1 <0>         0.0633
     60 H25         0.9482   -0.9479   -4.0446 H         1 <0>         0.0514
     61 H26        -0.4433    0.0130   -4.6003 H         1 <0>         0.1100
     62 H27        -0.9785   -2.5293   -1.7546 H         1 <0>         0.4274
@<TRIPOS>BOND
     1    1    2 1
     2    1   39 1
     3    1   40 1
     4    1   41 1
     5    2   10 1
     6    2   21 1
     7    2    3 1
     8    3    4 1
     9    3    5 1
    10    3   37 1
    11    5    6 1
    12    5    7 1
    13    5   35 1
    14    7    8 1
    15    7   42 1
    16    7   43 1
    17    8    9 1
    18    8   10 1
    19    8   11 1
    20   11   19 1
    21   11   12 1
    22   12   17 ar
    23   12   13 ar
    24   13   14 ar
    25   13   44 1
    26   14   15 ar
    27   14   45 1
    28   15   16 ar
    29   15   46 1
    30   16   17 ar
    31   16   47 1
    32   17   18 1
    33   18   30 ar
    34   18   19 ar
    35   19   20 ar
    36   20   28 ar
    37   20   21 1
    38   21   22 1
    39   22   27 ar
    40   22   23 ar
    41   23   24 ar
    42   23   48 1
    43   24   25 ar
    44   24   49 1
    45   25   26 ar
    46   25   50 1
    47   26   27 ar
    48   26   51 1
    49   27   28 1
    50   28   29 ar
    51   29   34 1
    52   29   30 ar
    53   30   31 1
    54   31   32 2
    55   31   33 am
    56   33   34 1
    57   33   52 1
    58   34   53 1
    59   34   54 1
    60   35   36 1
    61   35   55 1
    62   35   62 1
    63   36   56 1
    64   36   57 1
    65   36   58 1
    66   37   38 1
    67   38   59 1
    68   38   60 1
    69   38   61 1
@<TRIPOS>MOLECULE
ZINC13763987
   58    60     0     0     0
SMALL
USER_CHARGES

@<TRIPOS>ATOM
      1 C1          0.1578    1.5374   -0.0550 C.3       1 <0>         0.0751
      2 N1          0.1405    0.0725   -0.0490 N.pl3     1 <0>        -0.6052
      3 C2          0.1526   -0.6549    1.2226 C.3       1 <0>         0.0781
      4 C3          0.1130   -0.6173   -1.2329 C.ar      1 <0>         0.2662
      5 C4          0.0907   -2.0163   -1.2253 C.ar      1 <0>        -0.2052
      6 C5          0.0634   -2.7049   -2.4005 C.ar      1 <0>        -0.0095
      7 C6          0.0571   -2.0088   -3.6208 C.ar      1 <0>        -0.2285
      8 C7          0.0791   -0.6041   -3.6251 C.ar      1 <0>        -0.0136
      9 C8          0.1015    0.0789   -2.4465 C.ar      1 <0>        -0.2096
     10 C9          0.0283   -2.7459   -4.8858 C.2       1 <0>         0.3472
     11 C10        -1.1318   -2.6338   -5.7722 C.2       1 <0>        -0.2156
     12 C11        -2.2155   -1.8149   -5.4131 C.2       1 <0>         0.0427
     13 C12        -3.2932   -1.7123   -6.2402 C.2       1 <0>        -0.2291
     14 C13        -3.3218   -2.4218   -7.4458 C.2       1 <0>         0.3271
     15 N2         -4.4076   -2.3168   -8.2754 N.pl3     1 <0>        -0.5670
     16 C14        -5.5932   -1.5745   -7.8399 C.3       1 <0>         0.0599
     17 C15        -4.3827   -2.9470   -9.5977 C.3       1 <0>         0.0554
     18 C16        -2.2440   -3.2378   -7.8064 C.2       1 <0>        -0.2315
     19 C17        -1.1610   -3.3404   -6.9861 C.2       1 <0>         0.0418
     20 C18         1.1595   -3.5951   -5.2643 C.ar      1 <0>        -0.2294
     21 C19         1.4688   -4.7356   -4.5044 C.ar      1 <0>        -0.0083
     22 C20         2.5217   -5.5239   -4.8594 C.ar      1 <0>        -0.2091
     23 C21         3.2949   -5.1986   -5.9792 C.ar      1 <0>         0.2684
     24 C22         2.9897   -4.0632   -6.7377 C.ar      1 <0>        -0.2129
     25 C23         1.9343   -3.2743   -6.3915 C.ar      1 <0>        -0.0124
     26 N3          4.3537   -5.9934   -6.3335 N.pl3     1 <0>        -0.6054
     27 C24         4.6068   -7.2418   -5.6099 C.3       1 <0>         0.0752
     28 C25         5.2324   -5.5946   -7.4358 C.3       1 <0>         0.0714
     29 H1          1.1895    1.8885   -0.0733 H         1 <0>         0.0634
     30 H2         -0.3662    1.9033   -0.9380 H         1 <0>         0.0772
     31 H3         -0.3371    1.9103    0.8417 H         1 <0>         0.0797
     32 H4          0.1745    0.0566    2.0480 H         1 <0>         0.0849
     33 H5         -0.7436   -1.2708    1.2974 H         1 <0>         0.0666
     34 H6          1.0360   -1.2919    1.2684 H         1 <0>         0.0666
     35 H7          0.0955   -2.5508   -0.2869 H         1 <0>         0.1368
     36 H8          0.0469   -3.7848   -2.3941 H         1 <0>         0.1311
     37 H9          0.0744   -0.0662   -4.5616 H         1 <0>         0.1321
     38 H10         0.1143    1.1588   -2.4490 H         1 <0>         0.1385
     39 H11        -2.1943   -1.2676   -4.4823 H         1 <0>         0.1502
     40 H12        -4.1266   -1.0830   -5.9647 H         1 <0>         0.1496
     41 H13        -5.4962   -0.5296   -8.1347 H         1 <0>         0.0782
     42 H14        -6.4811   -2.0025   -8.3053 H         1 <0>         0.0920
     43 H15        -5.6843   -1.6391   -6.7557 H         1 <0>         0.0872
     44 H16        -3.4649   -3.5244   -9.7078 H         1 <0>         0.0932
     45 H17        -5.2428   -3.6085   -9.7012 H         1 <0>         0.0844
     46 H18        -4.4221   -2.1768  -10.3680 H         1 <0>         0.0828
     47 H19        -2.2688   -3.7839   -8.7378 H         1 <0>         0.1515
     48 H20        -0.3276   -3.9672   -7.2670 H         1 <0>         0.1501
     49 H21         0.8728   -4.9869   -3.6395 H         1 <0>         0.1313
     50 H22         2.7599   -6.4008   -4.2756 H         1 <0>         0.1387
     51 H23         3.5887   -3.8144   -7.6013 H         1 <0>         0.1403
     52 H24         1.6963   -2.4007   -6.9802 H         1 <0>         0.1323
     53 H25         4.0682   -8.0572   -6.0927 H         1 <0>         0.0638
     54 H26         5.6754   -7.4566   -5.6187 H         1 <0>         0.0794
     55 H27         4.2651   -7.1404   -4.5798 H         1 <0>         0.0780
     56 H28         4.8381   -4.6943   -7.9072 H         1 <0>         0.0851
     57 H29         6.2318   -5.3946   -7.0496 H         1 <0>         0.0679
     58 H30         5.2809   -6.3981   -8.1707 H         1 <0>         0.0706
@<TRIPOS>BOND
     1    1    2 1
     2    1   29 1
     3    1   30 1
     4    1   31 1
     5    2    3 1
     6    2    4 1
     7    3   32 1
     8    3   33 1
     9    3   34 1
    10    4    9 ar
    11    4    5 ar
    12    5    6 ar
    13    5   35 1
    14    6    7 ar
    15    6   36 1
    16    7    8 ar
    17    7   10 1
    18    8    9 ar
    19    8   37 1
    20    9   38 1
    21   10   11 2
    22   10   20 1
    23   11   19 1
    24   11   12 1
    25   12   13 2
    26   12   39 1
    27   13   14 1
    28   13   40 1
    29   14   15 2
    30   14   18 1
    31   15   16 1
    32   15   17 1
    33   16   41 1
    34   16   42 1
    35   16   43 1
    36   17   44 1
    37   17   45 1
    38   17   46 1
    39   18   19 2
    40   18   47 1
    41   19   48 1
    42   20   25 ar
    43   20   21 ar
    44   21   22 ar
    45   21   49 1
    46   22   23 ar
    47   22   50 1
    48   23   24 ar
    49   23   26 1
    50   24   25 ar
    51   24   51 1
    52   25   52 1
    53   26   27 1
    54   26   28 1
    55   27   53 1
    56   27   54 1
    57   27   55 1
    58   28   56 1
    59   28   57 1
    60   28   58 1
@<TRIPOS>MOLECULE
ZINC21288966
   49    52     0     0     0
SMALL
USER_CHARGES
2-(2-chlorophenyl)-5,7-dihydroxy-8-[(3S,4R)-3-hydroxy-1-methyl-4-piperidyl]chromen-4-one
@<TRIPOS>ATOM
      1 C1          6.0895   -0.0238    5.9621 C.3       1 <0>        -0.0460
      2 N1          6.1756    1.0472    4.9603 N.4       1 <0>        -0.3934
      3 C2          5.9739    0.5180    3.6055 C.3       1 <0>        -0.0028
      4 C3          6.2126    1.6289    2.5802 C.3       1 <0>        -0.1464
      5 C4          5.2418    2.7821    2.8491 C.3       1 <0>        -0.0180
      6 H1          4.2050    2.4431    2.7074 H         1 <0>         0.1039
      7 C5          5.4391    3.2830    4.2825 C.3       1 <0>         0.1015
      8 H2          4.7709    4.1271    4.5084 H         1 <0>         0.0941
      9 C6          5.2218    2.1236    5.2574 C.3       1 <0>        -0.0361
     10 O1          6.7669    3.7898    4.4323 O.3       1 <0>        -0.5639
     11 C7          5.5132    3.9050    1.8814 C.ar      1 <0>        -0.2158
     12 C8          6.8017    4.3949    1.7322 C.ar      1 <0>         0.2946
     13 C9          7.0678    5.4304    0.8434 C.ar      1 <0>        -0.3049
     14 C10         6.0448    5.9841    0.0956 C.ar      1 <0>         0.3111
     15 C11         4.7411    5.4942    0.2412 C.ar      1 <0>        -0.3649
     16 C12         4.4748    4.4470    1.1407 C.ar      1 <0>         0.2362
     17 O2          3.2147    3.9814    1.2730 O.3       1 <0>        -0.2171
     18 C13         2.1871    4.4838    0.5705 C.2       1 <0>         0.1982
     19 C14         2.3394    5.4926   -0.3277 C.2       1 <0>        -0.2780
     20 C15         3.6225    6.0546   -0.5353 C.2       1 <0>         0.4382
     21 O3          3.7953    6.9641   -1.3304 O.2       1 <0>        -0.4786
     22 C16         0.8407    3.9147    0.7769 C.ar      1 <0>        -0.0680
     23 C17         0.6478    2.5322    0.7263 C.ar      1 <0>        -0.0708
     24 C18        -0.6124    2.0073    0.9205 C.ar      1 <0>        -0.1159
     25 C19        -1.6867    2.8467    1.1599 C.ar      1 <0>        -0.0780
     26 C20        -1.5036    4.2164    1.2169 C.ar      1 <0>        -0.1066
     27 C21        -0.2472    4.7566    1.0243 C.ar      1 <0>        -0.0057
     28 Cl1        -0.0199    6.4765    1.0889 Cl        1 <0>        -0.0424
     29 O4          6.3024    6.9947   -0.7728 O.3       1 <0>        -0.4999
     30 O5          7.8133    3.8585    2.4614 O.3       1 <0>        -0.4665
     31 H3          6.8128   -0.8151    5.7159 H         1 <0>         0.1242
     32 H4          5.0728   -0.4438    5.9634 H         1 <0>         0.1169
     33 H5          6.3184    0.3856    6.9571 H         1 <0>         0.1225
     34 H6          6.6809   -0.3050    3.4243 H         1 <0>         0.1308
     35 H7          4.9438    0.1448    3.5072 H         1 <0>         0.1211
     36 H8          7.2477    1.9910    2.6662 H         1 <0>         0.1216
     37 H9          6.0450    1.2349    1.5669 H         1 <0>         0.1057
     38 H10         4.1951    1.7434    5.1512 H         1 <0>         0.1298
     39 H11         5.3771    2.4772    6.2874 H         1 <0>         0.1312
     40 H12         7.0946    4.1958    5.4007 H         1 <0>         0.4106
     41 H13         8.0758    5.8030    0.7365 H         1 <0>         0.1471
     42 H14         1.4871    5.8659   -0.8759 H         1 <0>         0.1670
     43 H15         1.4839    1.8757    0.5352 H         1 <0>         0.1384
     44 H16        -0.7625    0.9385    0.8812 H         1 <0>         0.1407
     45 H17        -2.6721    2.4298    1.3071 H         1 <0>         0.1438
     46 H18        -2.3456    4.8651    1.4082 H         1 <0>         0.1476
     47 H19         5.4855    7.4321   -1.3656 H         1 <0>         0.4556
     48 H20         8.8375    4.2431    2.3473 H         1 <0>         0.4397
     49 H21         7.1882    1.4744    5.0059 H         1 <0>         0.4481
@<TRIPOS>BOND
     1    1    2 1
     2    1   31 1
     3    1   32 1
     4    1   33 1
     5    2    9 1
     6    2    3 1
     7    2   49 1
     8    3    4 1
     9    3   34 1
    10    3   35 1
    11    4    5 1
    12    4   36 1
    13    4   37 1
    14    5    6 1
    15    5    7 1
    16    5   11 1
    17    7    8 1
    18    7    9 1
    19    7   10 1
    20    9   38 1
    21    9   39 1
    22   10   40 1
    23   11   16 ar
    24   11   12 ar
    25   12   13 ar
    26   12   30 1
    27   13   14 ar
    28   13   41 1
    29   14   15 ar
    30   14   29 1
    31   15   20 1
    32   15   16 ar
    33   16   17 1
    34   17   18 1
    35   18   19 2
    36   18   22 1
    37   19   20 1
    38   19   42 1
    39   20   21 2
    40   22   27 ar
    41   22   23 ar
    42   23   24 ar
    43   23   43 1
    44   24   25 ar
    45   24   44 1
    46   25   26 ar
    47   25   45 1
    48   26   27 ar
    49   26   46 1
    50   27   28 1
    51   29   47 1
    52   30   48 1
@<TRIPOS>MOLECULE
ZINC03871576
   30    32     0     0     0
SMALL
USER_CHARGES

@<TRIPOS>ATOM
      1 C1         -0.0169    1.3935    0.0097 C.ar      1 <0>        -0.0604
      2 C2          1.1676    2.0963    0.0022 C.ar      1 <0>        -0.1497
      3 C3          2.3803    1.4179   -0.0135 C.ar      1 <0>         0.1360
      4 C4          2.4038    0.0284   -0.0212 C.ar      1 <0>        -0.1474
      5 C5          1.2241   -0.6823   -0.0133 C.ar      1 <0>        -0.0612
      6 C6          0.0021   -0.0041    0.0020 C.ar      1 <0>        -0.0853
      7 C7         -1.2639   -0.7610    0.0105 C.2       1 <0>         0.2092
      8 C8         -1.2134   -2.1203    0.0083 C.2       1 <0>        -0.3116
      9 C9         -2.4177   -2.8631    0.0169 C.2       1 <0>         0.4226
     10 O1         -2.4099   -4.0836    0.0156 O.2       1 <0>        -0.4538
     11 C10        -3.6809   -2.1061    0.0279 C.ar      1 <0>        -0.2659
     12 C11        -4.9199   -2.7591    0.0374 C.ar      1 <0>         0.2192
     13 C12        -6.0832   -2.0121    0.0480 C.ar      1 <0>        -0.2049
     14 C13        -6.0212   -0.6227    0.0493 C.ar      1 <0>         0.1922
     15 C14        -4.7984    0.0300    0.0400 C.ar      1 <0>        -0.1830
     16 C15        -3.6212   -0.7020    0.0293 C.ar      1 <0>         0.1830
     17 O2         -2.4220   -0.0821    0.0257 O.3       1 <0>        -0.2182
     18 O3         -7.1695    0.1013    0.0593 O.3       1 <0>        -0.4872
     19 O4         -4.9782   -4.1150    0.0356 O.3       1 <0>        -0.4722
     20 O5          3.5455    2.1145   -0.0218 O.3       1 <0>        -0.4965
     21 H1         -0.9589    1.9215    0.0260 H         1 <0>         0.1404
     22 H2          1.1538    3.1762    0.0081 H         1 <0>         0.1393
     23 H3          3.3485   -0.4949   -0.0338 H         1 <0>         0.1414
     24 H4          1.2432   -1.7622   -0.0196 H         1 <0>         0.1415
     25 H5         -0.2608   -2.6290   -0.0002 H         1 <0>         0.1637
     26 H6         -7.0423   -2.5086    0.0550 H         1 <0>         0.1502
     27 H7         -4.7627    1.1094    0.0411 H         1 <0>         0.1534
     28 H8         -7.4952    0.3100    0.9456 H         1 <0>         0.4037
     29 H9         -4.9875   -4.5094    0.9185 H         1 <0>         0.4031
     30 H10         3.8920    2.3119    0.8591 H         1 <0>         0.3984
@<TRIPOS>BOND
     1    1    6 ar
     2    1    2 ar
     3    1   21 1
     4    2    3 ar
     5    2   22 1
     6    3    4 ar
     7    3   20 1
     8    4    5 ar
     9    4   23 1
    10    5    6 ar
    11    5   24 1
    12    6    7 1
    13    7   17 1
    14    7    8 2
    15    8    9 1
    16    8   25 1
    17    9   10 2
    18    9   11 1
    19   11   16 ar
    20   11   12 ar
    21   12   13 ar
    22   12   19 1
    23   13   14 ar
    24   13   26 1
    25   14   15 ar
    26   14   18 1
    27   15   16 ar
    28   15   27 1
    29   16   17 1
    30   18   28 1
    31   19   29 1
    32   20   30 1
@<TRIPOS>MOLECULE
ZINC03871576
   29    31     0     0     0
SMALL
USER_CHARGES

@<TRIPOS>ATOM
      1 C1         -0.0169    1.3945    0.0097 C.ar      1 <0>        -0.0666
      2 C2          1.1672    2.0969    0.0022 C.ar      1 <0>        -0.1480
      3 C3          2.3804    1.4183   -0.0135 C.ar      1 <0>         0.1175
      4 C4          2.4042    0.0284   -0.0212 C.ar      1 <0>        -0.1471
      5 C5          1.2251   -0.6825   -0.0138 C.ar      1 <0>        -0.0696
      6 C6          0.0021   -0.0041    0.0020 C.ar      1 <0>        -0.0607
      7 C7         -1.2623   -0.7603    0.0105 C.2       1 <0>         0.1733
      8 C8         -1.2238   -2.1392    0.0085 C.2       1 <0>        -0.2675
      9 C9         -2.4161   -2.8666    0.0170 C.2       1 <0>         0.3649
     10 C10        -3.6370   -2.1554    0.0275 C.2       1 <0>        -0.3407
     11 C11        -4.8707   -2.8387    0.0369 C.2       1 <0>         0.2653
     12 C12        -6.0384   -2.1317    0.0475 C.2       1 <0>        -0.3780
     13 C13        -6.0158   -0.7277    0.0485 C.2       1 <0>         0.3615
     14 O1         -7.1627   -0.0461    0.0589 O.2       1 <0>        -0.6669
     15 C14        -4.7977   -0.0391    0.0393 C.2       1 <0>        -0.3147
     16 C15        -3.6098   -0.7430    0.0291 C.2       1 <0>         0.2111
     17 O2         -2.4272   -0.0920    0.0257 O.3       1 <0>        -0.2196
     18 O3         -4.8969   -4.1953    0.0351 O.3       1 <0>        -0.4477
     19 O4         -2.4024   -4.2178    0.0147 O.3       1 <0>        -0.5784
     20 O5          3.5452    2.1149   -0.0218 O.3       1 <0>        -0.4988
     21 H1         -0.9589    1.9225    0.0260 H         1 <0>         0.1416
     22 H2          1.1536    3.1768    0.0081 H         1 <0>         0.1349
     23 H3          3.3490   -0.4946   -0.0334 H         1 <0>         0.1360
     24 H4          1.2446   -1.7623   -0.0201 H         1 <0>         0.1407
     25 H5         -0.2747   -2.6546   -0.0001 H         1 <0>         0.1464
     26 H6         -6.9835   -2.6543    0.0547 H         1 <0>         0.1160
     27 H7         -4.7867    1.0408    0.0398 H         1 <0>         0.1203
     28 H8         -5.7877   -4.5715    0.0420 H         1 <0>         0.3828
     29 H9          3.8917    2.3124    0.8591 H         1 <0>         0.3921
@<TRIPOS>BOND
     1    1    6 ar
     2    1    2 ar
     3    1   21 1
     4    2    3 ar
     5    2   22 1
     6    3    4 ar
     7    3   20 1
     8    4    5 ar
     9    4   23 1
    10    5    6 ar
    11    5   24 1
    12    6    7 1
    13    7   17 1
    14    7    8 2
    15    8    9 1
    16    8   25 1
    17    9   10 2
    18    9   19 1
    19   10   16 1
    20   10   11 1
    21   11   12 2
    22   11   18 1
    23   12   13 1
    24   12   26 1
    25   13   14 2
    26   13   15 1
    27   15   16 2
    28   15   27 1
    29   16   17 1
    30   18   28 1
    31   20   29 1
@<TRIPOS>MOLECULE
ZINC03872070
   29    31     0     0     0
SMALL
USER_CHARGES

@<TRIPOS>ATOM
      1 C1         -0.0167    1.3795    0.0096 C.ar      1 <0>        -0.0927
      2 C2          1.1683    2.0940    0.0021 C.ar      1 <0>        -0.1229
      3 C3          2.3774    1.4303   -0.0130 C.ar      1 <0>        -0.0794
      4 C4          2.4038    0.0341   -0.0208 C.ar      1 <0>        -0.0750
      5 C5          1.2040   -0.6806   -0.0131 C.ar      1 <0>        -0.0800
      6 C6          0.0021   -0.0041    0.0020 C.ar      1 <0>        -0.1206
      7 C7          3.6945   -0.6834   -0.0374 C.2       1 <0>         0.2076
      8 C8          3.6865   -2.0422   -0.0503 C.2       1 <0>        -0.3115
      9 C9          4.9147   -2.7475   -0.0669 C.2       1 <0>         0.4227
     10 O1          4.9453   -3.9673   -0.0791 O.2       1 <0>        -0.4538
     11 C10         6.1531   -1.9509   -0.0693 C.ar      1 <0>        -0.2663
     12 C11         7.4124   -2.5640   -0.0858 C.ar      1 <0>         0.2193
     13 C12         8.5511   -1.7802   -0.0879 C.ar      1 <0>        -0.2051
     14 C13         8.4449   -0.3935   -0.0739 C.ar      1 <0>         0.1922
     15 C14         7.2019    0.2199   -0.0571 C.ar      1 <0>        -0.1832
     16 C15         6.0486   -0.5493   -0.0551 C.ar      1 <0>         0.1831
     17 O2          4.8303    0.0319   -0.0449 O.3       1 <0>        -0.2180
     18 O3          9.5695    0.3668   -0.0761 O.3       1 <0>        -0.4872
     19 O4          7.5139   -3.9173   -0.0990 O.3       1 <0>        -0.4722
     20 H1         -0.9606    1.9042    0.0260 H         1 <0>         0.1309
     21 H2          1.1464    3.1738    0.0078 H         1 <0>         0.1326
     22 H3          3.3016    1.9892   -0.0192 H         1 <0>         0.1349
     23 H4          1.2173   -1.7605   -0.0194 H         1 <0>         0.1361
     24 H5         -0.9265   -0.5555    0.0079 H         1 <0>         0.1347
     25 H6          2.7503   -2.5805   -0.0475 H         1 <0>         0.1636
     26 H7          9.5256   -2.2457   -0.1002 H         1 <0>         0.1502
     27 H8          7.1320    1.2975   -0.0459 H         1 <0>         0.1533
     28 H9          9.8879    0.5955   -0.9601 H         1 <0>         0.4037
     29 H10         7.5357   -4.3014   -0.9862 H         1 <0>         0.4030
@<TRIPOS>BOND
     1    1    6 ar
     2    1    2 ar
     3    1   20 1
     4    2    3 ar
     5    2   21 1
     6    3    4 ar
     7    3   22 1
     8    4    5 ar
     9    4    7 1
    10    5    6 ar
    11    5   23 1
    12    6   24 1
    13    7   17 1
    14    7    8 2
    15    8    9 1
    16    8   25 1
    17    9   10 2
    18    9   11 1
    19   11   16 ar
    20   11   12 ar
    21   12   13 ar
    22   12   19 1
    23   13   14 ar
    24   13   26 1
    25   14   15 ar
    26   14   18 1
    27   15   16 ar
    28   15   27 1
    29   16   17 1
    30   18   28 1
    31   19   29 1
@<TRIPOS>MOLECULE
ZINC03872070
   28    30     0     0     0
SMALL
USER_CHARGES

@<TRIPOS>ATOM
      1 C1         -0.0167    1.3797    0.0096 C.ar      1 <0>        -0.1070
      2 C2          1.1682    2.0946    0.0022 C.ar      1 <0>        -0.1239
      3 C3          2.3774    1.4315   -0.0129 C.ar      1 <0>        -0.0844
      4 C4          2.4042    0.0344   -0.0206 C.ar      1 <0>        -0.0523
      5 C5          1.2037   -0.6807   -0.0130 C.ar      1 <0>        -0.0872
      6 C6          0.0021   -0.0041    0.0020 C.ar      1 <0>        -0.1230
      7 C7          3.6938   -0.6822   -0.0372 C.2       1 <0>         0.1725
      8 C8          3.6987   -2.0599   -0.0503 C.2       1 <0>        -0.2684
      9 C9          4.9147   -2.7500   -0.0661 C.2       1 <0>         0.3652
     10 C10         6.1116   -2.0009   -0.0682 C.2       1 <0>        -0.3412
     11 C11         7.3668   -2.6443   -0.0844 C.2       1 <0>         0.2654
     12 C12         8.5111   -1.9002   -0.0865 C.2       1 <0>        -0.3783
     13 C13         8.4435   -0.4975   -0.0722 C.2       1 <0>         0.3617
     14 O1          9.5678    0.2204   -0.0740 O.2       1 <0>        -0.6670
     15 C14         7.2040    0.1518   -0.0566 C.2       1 <0>        -0.3151
     16 C15         6.0392   -0.5896   -0.0543 C.2       1 <0>         0.2114
     17 O2          4.8365    0.0229   -0.0448 O.3       1 <0>        -0.2195
     18 O3          7.4365   -3.9993   -0.0974 O.3       1 <0>        -0.4477
     19 O4          4.9436   -4.1007   -0.0786 O.3       1 <0>        -0.5790
     20 H1         -0.9606    1.9042    0.0260 H         1 <0>         0.1247
     21 H2          1.1460    3.1743    0.0078 H         1 <0>         0.1280
     22 H3          3.3014    1.9906   -0.0191 H         1 <0>         0.1359
     23 H4          1.2169   -1.7606   -0.0192 H         1 <0>         0.1351
     24 H5         -0.9266   -0.5554    0.0079 H         1 <0>         0.1291
     25 H6          2.7663   -2.6050   -0.0479 H         1 <0>         0.1462
     26 H7          9.4725   -2.3921   -0.0990 H         1 <0>         0.1160
     27 H8          7.1585    1.2308   -0.0456 H         1 <0>         0.1202
     28 H9          8.3389   -4.3466   -0.1079 H         1 <0>         0.3827
@<TRIPOS>BOND
     1    1    6 ar
     2    1    2 ar
     3    1   20 1
     4    2    3 ar
     5    2   21 1
     6    3    4 ar
     7    3   22 1
     8    4    5 ar
     9    4    7 1
    10    5    6 ar
    11    5   23 1
    12    6   24 1
    13    7   17 1
    14    7    8 2
    15    8    9 1
    16    8   25 1
    17    9   10 2
    18    9   19 1
    19   10   16 1
    20   10   11 1
    21   11   12 2
    22   11   18 1
    23   12   13 1
    24   12   26 1
    25   13   14 2
    26   13   15 1
    27   15   16 2
    28   15   27 1
    29   16   17 1
    30   18   28 1
@<TRIPOS>MOLECULE
ZINC18185774
   31    33     0     0     0
SMALL
USER_CHARGES

@<TRIPOS>ATOM
      1 C1         -0.0169    1.3929    0.0097 C.ar      1 <0>        -0.0705
      2 C2          1.1675    2.0983    0.0022 C.ar      1 <0>        -0.1309
      3 C3          2.3803    1.4240   -0.0135 C.ar      1 <0>         0.1099
      4 C4          2.4067    0.0300   -0.0212 C.ar      1 <0>         0.0792
      5 C5          1.2240   -0.6832   -0.0138 C.ar      1 <0>        -0.0904
      6 C6          0.0021   -0.0041    0.0020 C.ar      1 <0>        -0.0661
      7 C7         -1.2642   -0.7606    0.0105 C.2       1 <0>         0.2069
      8 C8         -2.4374   -0.0724    0.0203 C.2       1 <0>        -0.3067
      9 C9         -3.6620   -0.7813    0.0286 C.2       1 <0>         0.4226
     10 O1         -4.7331   -0.1964    0.0371 O.2       1 <0>        -0.4521
     11 C10        -3.5935   -2.2524    0.0260 C.ar      1 <0>        -0.2661
     12 C11        -4.7554   -3.0344    0.0332 C.ar      1 <0>         0.2196
     13 C12        -4.6484   -4.4128    0.0300 C.ar      1 <0>        -0.2046
     14 C13        -3.3955   -5.0163    0.0203 C.ar      1 <0>         0.1928
     15 C14        -2.2415   -4.2483    0.0131 C.ar      1 <0>        -0.1829
     16 C15        -2.3286   -2.8648    0.0157 C.ar      1 <0>         0.1832
     17 O2         -1.2147   -2.1022    0.0028 O.3       1 <0>        -0.2181
     18 O3         -3.3016   -6.3705    0.0182 O.3       1 <0>        -0.4872
     19 O4         -5.9771   -2.4436    0.0436 O.3       1 <0>        -0.4722
     20 O5          3.5971   -0.6274   -0.0366 O.3       1 <0>        -0.4831
     21 O6          3.5446    2.1239   -0.0217 O.3       1 <0>        -0.4848
     22 H1         -0.9593    1.9201    0.0260 H         1 <0>         0.1451
     23 H2          1.1515    3.1781    0.0081 H         1 <0>         0.1468
     24 H3          1.2430   -1.7630   -0.0205 H         1 <0>         0.1466
     25 H4         -2.4342    1.0076    0.0222 H         1 <0>         0.1649
     26 H5         -5.5400   -5.0224    0.0355 H         1 <0>         0.1504
     27 H6         -1.2739   -4.7281    0.0059 H         1 <0>         0.1535
     28 H7         -3.2809   -6.7620   -0.8658 H         1 <0>         0.4041
     29 H8         -6.3379   -2.2705   -0.8367 H         1 <0>         0.4034
     30 H9          3.9502   -0.8223    0.8423 H         1 <0>         0.3919
     31 H10         3.8907    2.3221    0.8592 H         1 <0>         0.3948
@<TRIPOS>BOND
     1    1    6 ar
     2    1    2 ar
     3    1   22 1
     4    2    3 ar
     5    2   23 1
     6    3    4 ar
     7    3   21 1
     8    4    5 ar
     9    4   20 1
    10    5    6 ar
    11    5   24 1
    12    6    7 1
    13    7   17 1
    14    7    8 2
    15    8    9 1
    16    8   25 1
    17    9   10 2
    18    9   11 1
    19   11   16 ar
    20   11   12 ar
    21   12   13 ar
    22   12   19 1
    23   13   14 ar
    24   13   26 1
    25   14   15 ar
    26   14   18 1
    27   15   16 ar
    28   15   27 1
    29   16   17 1
    30   18   28 1
    31   19   29 1
    32   20   30 1
    33   21   31 1
@<TRIPOS>MOLECULE
ZINC03938688
   39    41     0     0     0
SMALL
USER_CHARGES

@<TRIPOS>ATOM
      1 C1         -0.0095    1.3826    0.0704 C.ar      1 <0>        -0.0343
      2 C2          0.5587    1.0580   -1.1482 C.ar      1 <0>        -0.1609
      3 C3          1.7655    0.3862   -1.1955 C.ar      1 <0>         0.1753
      4 C4          2.4129    0.0342   -0.0053 C.ar      1 <0>        -0.1954
      5 C5          1.8304    0.3669    1.2233 C.ar      1 <0>         0.1741
      6 C6          0.6231    1.0388    1.2514 C.ar      1 <0>        -0.1610
      7 F1          2.4463    0.0317    2.3781 F         1 <0>        -0.1212
      8 C7          3.6999   -0.6827   -0.0456 C.2       1 <0>         0.6210
      9 O1          4.7383   -0.0615   -0.1600 O.2       1 <0>        -0.4669
     10 N1          3.7255   -2.0272    0.0446 N.am      1 <0>        -0.3962
     11 C8          4.8314   -2.8210    0.1249 C.2       1 <0>         0.5948
     12 N2          4.4249   -4.0694    0.1979 N.2       1 <0>        -0.5873
     13 C9          3.0869   -4.1118    0.1675 C.2       1 <0>         0.5191
     14 N3          2.6183   -2.8904    0.0808 N.2       1 <0>        -0.3480
     15 N4          2.3148   -5.2702    0.2247 N.pl3     1 <0>        -0.6226
     16 C10         2.9267   -6.5079    0.4407 C.ar      1 <0>         0.2365
     17 C11         4.1432   -6.5760    1.1080 C.ar      1 <0>        -0.1584
     18 C12         4.7450   -7.8008    1.3202 C.ar      1 <0>         0.0098
     19 C13         4.1379   -8.9586    0.8692 C.ar      1 <0>        -0.7033
     20 C14         2.9269   -8.8944    0.2046 C.ar      1 <0>         0.0112
     21 C15         2.3170   -7.6734   -0.0063 C.ar      1 <0>        -0.1777
     22 S1          4.9094  -10.5191    1.1415 S.o2      1 <0>         2.7034
     23 O2          4.4084  -11.3993    0.1448 O.2       1 <0>        -0.9656
     24 O3          6.2977  -10.2630    1.3036 O.2       1 <0>        -0.9650
     25 N5          4.3605  -11.0895    2.5960 N.pl3     1 <0>        -1.2510
     26 N6          6.1422   -2.3912    0.1281 N.pl3     1 <0>        -0.7911
     27 F2          2.3185    0.0697   -2.3868 F         1 <0>        -0.1201
     28 H1         -0.9506    1.9116    0.0998 H         1 <0>         0.1546
     29 H2          0.0576    1.3300   -2.0654 H         1 <0>         0.1549
     30 H3          0.1721    1.2963    2.1984 H         1 <0>         0.1546
     31 H4          1.3525   -5.2176    0.1147 H         1 <0>         0.4325
     32 H5          4.6180   -5.6722    1.4601 H         1 <0>         0.1556
     33 H6          5.6909   -7.8544    1.8385 H         1 <0>         0.1456
     34 H7          2.4556   -9.8005   -0.1466 H         1 <0>         0.1475
     35 H8          1.3691   -7.6243   -0.5215 H         1 <0>         0.1387
     36 H9          3.7284  -10.5673    3.1145 H         1 <0>         0.4165
     37 H10         4.6709  -11.9458    2.9296 H         1 <0>         0.4206
     38 H11         6.3422   -1.4439    0.0694 H         1 <0>         0.4292
     39 H12         6.8640   -3.0364    0.1890 H         1 <0>         0.4303
@<TRIPOS>BOND
     1    1    6 ar
     2    1    2 ar
     3    1   28 1
     4    2    3 ar
     5    2   29 1
     6    3    4 ar
     7    3   27 1
     8    4    5 ar
     9    4    8 1
    10    5    6 ar
    11    5    7 1
    12    6   30 1
    13    8    9 2
    14    8   10 am
    15   10   14 1
    16   10   11 1
    17   11   12 2
    18   11   26 1
    19   12   13 1
    20   13   14 2
    21   13   15 1
    22   15   16 1
    23   15   31 1
    24   16   21 ar
    25   16   17 ar
    26   17   18 ar
    27   17   32 1
    28   18   19 ar
    29   18   33 1
    30   19   20 ar
    31   19   22 1
    32   20   21 ar
    33   20   34 1
    34   21   35 1
    35   22   23 2
    36   22   24 2
    37   22   25 1
    38   25   36 1
    39   25   37 1
    40   26   38 1
    41   26   39 1
@<TRIPOS>MOLECULE
ZINC38367317
   37    40     0     0     0
SMALL
USER_CHARGES

@<TRIPOS>ATOM
      1 C1         -0.0530    1.3116    0.0544 C.ar      1 <0>        -0.1073
      2 C2          1.1132    2.0321   -0.1339 C.ar      1 <0>        -0.1086
      3 C3          2.3309    1.3844   -0.1610 C.ar      1 <0>        -0.0835
      4 C4          2.3849   -0.0007    0.0020 C.ar      1 <0>        -0.0615
      5 C5          1.2049   -0.7215    0.1915 C.ar      1 <0>        -0.1190
      6 C6         -0.0064   -0.0617    0.2166 C.ar      1 <0>        -0.1167
      7 C7          3.6871   -0.7018   -0.0264 C.ar      1 <0>         0.0913
      8 C8          4.0309   -1.5771   -1.0842 C.ar      1 <0>        -0.2650
      9 C9          3.4182   -2.0213   -2.2479 C.2       1 <0>         0.4356
     10 N1          4.2681   -2.8664   -2.8567 N.pl3     1 <0>        -0.4257
     11 H1          4.0935   -3.3247   -3.6935 H         1 <0>         0.4511
     12 N2          5.4421   -2.9869   -2.1049 N.2       1 <0>        -0.2809
     13 C10         5.3506   -2.2312   -1.0284 C.ar      1 <0>         0.2373
     14 N3          6.1538   -1.9659    0.0149 N.ar      1 <0>        -0.2027
     15 N4          5.8017   -1.1647    0.9532 N.ar      1 <0>        -0.1384
     16 C11         4.6345   -0.5232    0.9888 C.ar      1 <0>         0.0135
     17 C12         4.3334    0.3855    2.1187 C.ar      1 <0>        -0.0243
     18 C13         3.0821    0.3472    2.7338 C.ar      1 <0>        -0.0976
     19 C14         2.8076    1.1965    3.7861 C.ar      1 <0>        -0.1199
     20 C15         3.7704    2.0846    4.2312 C.ar      1 <0>        -0.1127
     21 C16         5.0134    2.1274    3.6252 C.ar      1 <0>        -0.1202
     22 C17         5.3019    1.2792    2.5758 C.ar      1 <0>        -0.0881
     23 N5          2.1598   -1.6601   -2.6992 N.pl3     1 <0>        -0.5509
     24 N6          1.6792   -2.1771   -3.8687 N.3       1 <0>        -0.6075
     25 H2         -1.0034    1.8240    0.0793 H         1 <0>         0.1280
     26 H3          1.0699    3.1038   -0.2602 H         1 <0>         0.1304
     27 H4          3.2404    1.9479   -0.3084 H         1 <0>         0.1276
     28 H5          1.2399   -1.7935    0.3183 H         1 <0>         0.1243
     29 H6         -0.9203   -0.6182    0.3632 H         1 <0>         0.1289
     30 H7          2.3295   -0.3454    2.3870 H         1 <0>         0.1204
     31 H8          1.8390    1.1680    4.2629 H         1 <0>         0.1222
     32 H9          3.5507    2.7476    5.0550 H         1 <0>         0.1222
     33 H10         5.7609    2.8229    3.9772 H         1 <0>         0.1254
     34 H11         6.2741    1.3104    2.1065 H         1 <0>         0.1276
     35 H12         1.6196   -1.0399   -2.1849 H         1 <0>         0.4273
     36 H13         1.6844   -3.1859   -3.8471 H         1 <0>         0.3414
     37 H14         0.7549   -1.8245   -4.0671 H         1 <0>         0.3760
@<TRIPOS>BOND
     1    1    6 ar
     2    1    2 ar
     3    1   25 1
     4    2    3 ar
     5    2   26 1
     6    3    4 ar
     7    3   27 1
     8    4    5 ar
     9    4    7 1
    10    5    6 ar
    11    5   28 1
    12    6   29 1
    13    7   16 ar
    14    7    8 ar
    15    8   13 ar
    16    8    9 2
    17    9   10 1
    18    9   23 1
    19   10   11 1
    20   10   12 1
    21   12   13 2
    22   13   14 ar
    23   14   15 ar
    24   15   16 ar
    25   16   17 1
    26   17   22 ar
    27   17   18 ar
    28   18   19 ar
    29   18   30 1
    30   19   20 ar
    31   19   31 1
    32   20   21 ar
    33   20   32 1
    34   21   22 ar
    35   21   33 1
    36   22   34 1
    37   23   24 1
    38   23   35 1
    39   24   36 1
    40   24   37 1
@<TRIPOS>MOLECULE
ZINC38367317
   38    41     0     0     0
SMALL
USER_CHARGES

@<TRIPOS>ATOM
      1 C1         -0.0530    1.3116    0.0544 C.ar      1 <0>        -0.1001
      2 C2          1.1132    2.0321   -0.1339 C.ar      1 <0>        -0.1043
      3 C3          2.3309    1.3844   -0.1610 C.ar      1 <0>        -0.0810
      4 C4          2.3849   -0.0007    0.0020 C.ar      1 <0>        -0.0742
      5 C5          1.2049   -0.7215    0.1915 C.ar      1 <0>        -0.1275
      6 C6         -0.0064   -0.0617    0.2166 C.ar      1 <0>        -0.1163
      7 C7          3.6871   -0.7018   -0.0264 C.ar      1 <0>         0.0643
      8 C8          4.0309   -1.5771   -1.0842 C.ar      1 <0>        -0.2021
      9 C9          3.4182   -2.0213   -2.2479 C.2       1 <0>         0.3375
     10 N1          4.2681   -2.8664   -2.8567 N.pl3     1 <0>        -0.4167
     11 H1          4.0935   -3.3247   -3.6935 H         1 <0>         0.4484
     12 N2          5.4421   -2.9869   -2.1049 N.2       1 <0>        -0.2167
     13 C10         5.3506   -2.2312   -1.0284 C.ar      1 <0>         0.2256
     14 N3          6.1538   -1.9659    0.0149 N.ar      1 <0>        -0.1668
     15 N4          5.8017   -1.1647    0.9532 N.ar      1 <0>        -0.1264
     16 C11         4.6345   -0.5232    0.9888 C.ar      1 <0>         0.0674
     17 C12         4.3334    0.3855    2.1187 C.ar      1 <0>        -0.0521
     18 C13         3.0821    0.3472    2.7338 C.ar      1 <0>        -0.0907
     19 C14         2.8076    1.1965    3.7861 C.ar      1 <0>        -0.1199
     20 C15         3.7704    2.0846    4.2312 C.ar      1 <0>        -0.0983
     21 C16         5.0134    2.1274    3.6252 C.ar      1 <0>        -0.1179
     22 C17         5.3019    1.2792    2.5758 C.ar      1 <0>        -0.0797
     23 N5          2.1598   -1.6601   -2.6992 N.pl3     1 <0>        -0.5849
     24 N6          1.6792   -2.1771   -3.8687 N.4       1 <0>        -0.3911
     25 H2         -1.0034    1.8240    0.0793 H         1 <0>         0.1335
     26 H3          1.0699    3.1038   -0.2602 H         1 <0>         0.1355
     27 H4          3.2404    1.9479   -0.3084 H         1 <0>         0.1309
     28 H5          1.2399   -1.7935    0.3183 H         1 <0>         0.1280
     29 H6         -0.9203   -0.6182    0.3632 H         1 <0>         0.1339
     30 H7          2.3295   -0.3454    2.3870 H         1 <0>         0.1213
     31 H8          1.8390    1.1680    4.2629 H         1 <0>         0.1271
     32 H9          3.5507    2.7476    5.0550 H         1 <0>         0.1284
     33 H10         5.7609    2.8229    3.9772 H         1 <0>         0.1315
     34 H11         6.2741    1.3104    2.1065 H         1 <0>         0.1302
     35 H12         1.6196   -1.0399   -2.1849 H         1 <0>         0.4745
     36 H13         2.2931   -1.9207   -4.6272 H         1 <0>         0.4411
     37 H14         1.6335   -3.1827   -3.7982 H         1 <0>         0.4412
     38 H15         0.7559   -1.8101   -4.0444 H         1 <0>         0.4662
@<TRIPOS>BOND
     1    1    6 ar
     2    1    2 ar
     3    1   25 1
     4    2    3 ar
     5    2   26 1
     6    3    4 ar
     7    3   27 1
     8    4    5 ar
     9    4    7 1
    10    5    6 ar
    11    5   28 1
    12    6   29 1
    13    7   16 ar
    14    7    8 ar
    15    8   13 ar
    16    8    9 2
    17    9   23 1
    18    9   10 1
    19   10   11 1
    20   10   12 1
    21   12   13 2
    22   13   14 ar
    23   14   15 ar
    24   15   16 ar
    25   16   17 1
    26   17   22 ar
    27   17   18 ar
    28   18   19 ar
    29   18   30 1
    30   19   20 ar
    31   19   31 1
    32   20   21 ar
    33   20   32 1
    34   21   22 ar
    35   21   33 1
    36   22   34 1
    37   23   24 1
    38   23   35 1
    39   24   36 1
    40   24   37 1
    41   24   38 1
@<TRIPOS>MOLECULE
ZINC38367317
   38    41     0     0     0
SMALL
USER_CHARGES

@<TRIPOS>ATOM
      1 C1         -0.0606    1.2969    0.0641 C.ar      1 <0>        -0.0981
      2 C2          1.1031    2.0206   -0.1263 C.ar      1 <0>        -0.1047
      3 C3          2.3227    1.3762   -0.1558 C.ar      1 <0>        -0.0800
      4 C4          2.3808   -0.0083    0.0071 C.ar      1 <0>        -0.0778
      5 C5          1.2037   -0.7323    0.1988 C.ar      1 <0>        -0.1231
      6 C6         -0.0096   -0.0761    0.2261 C.ar      1 <0>        -0.1161
      7 C7          3.6857   -0.7060   -0.0239 C.ar      1 <0>         0.0627
      8 C8          4.0279   -1.5766   -1.0765 C.ar      1 <0>        -0.1648
      9 C9          5.2891   -2.2076   -1.0405 C.ar      1 <0>         0.2781
     10 N1          5.3672   -2.9867   -2.1614 N.pl3     1 <0>        -0.4538
     11 H1          6.1239   -3.5415   -2.4073 H         1 <0>         0.4661
     12 N2          4.1851   -2.8584   -2.8980 N.2       1 <0>        -0.2503
     13 C10         3.3677   -2.0355   -2.2930 C.2       1 <0>         0.3261
     14 N3          2.0939   -1.6644   -2.7321 N.pl3     1 <0>        -0.5772
     15 N4          1.5977   -2.1749   -3.8980 N.4       1 <0>        -0.3807
     16 N5          6.1097   -1.9649   -0.0249 N.ar      1 <0>        -0.2212
     17 N6          5.7976   -1.1714    0.9343 N.ar      1 <0>        -0.1443
     18 C11         4.6379   -0.5234    0.9923 C.ar      1 <0>         0.0924
     19 C12         4.3485    0.3831    2.1283 C.ar      1 <0>        -0.0569
     20 C13         3.1017    0.3482    2.7515 C.ar      1 <0>        -0.0878
     21 C14         2.8383    1.1944    3.8092 C.ar      1 <0>        -0.1192
     22 C15         3.8082    2.0761    4.2514 C.ar      1 <0>        -0.0953
     23 C16         5.0469    2.1156    3.6367 C.ar      1 <0>        -0.1180
     24 C17         5.3239    1.2702    2.5818 C.ar      1 <0>        -0.0776
     25 H2         -1.0125    1.8065    0.0908 H         1 <0>         0.1341
     26 H3          1.0566    3.0922   -0.2526 H         1 <0>         0.1360
     27 H4          3.2303    1.9422   -0.3048 H         1 <0>         0.1305
     28 H5          1.2422   -1.8043    0.3250 H         1 <0>         0.1286
     29 H6         -0.9215   -0.6355    0.3744 H         1 <0>         0.1349
     30 H7          1.5621   -1.0444   -2.2090 H         1 <0>         0.4697
     31 H8          1.5492   -3.1805   -3.8310 H         1 <0>         0.4433
     32 H9          0.6738   -1.8037   -4.0614 H         1 <0>         0.4579
     33 H10         2.3436   -0.3395    2.4070 H         1 <0>         0.1224
     34 H11         1.8728    1.1686    4.2926 H         1 <0>         0.1287
     35 H12         3.5975    2.7365    5.0795 H         1 <0>         0.1297
     36 H13         5.8000    2.8066    3.9858 H         1 <0>         0.1324
     37 H14         6.2930    1.2985    2.1058 H         1 <0>         0.1301
     38 H15         2.2037   -1.9176   -4.6626 H         1 <0>         0.4431
@<TRIPOS>BOND
     1    1    6 ar
     2    1    2 ar
     3    1   25 1
     4    2    3 ar
     5    2   26 1
     6    3    4 ar
     7    3   27 1
     8    4    5 ar
     9    4    7 1
    10    5    6 ar
    11    5   28 1
    12    6   29 1
    13    7   18 ar
    14    7    8 ar
    15    8   13 1
    16    8    9 ar
    17    9   10 1
    18    9   16 ar
    19   10   11 1
    20   10   12 1
    21   12   13 2
    22   13   14 1
    23   14   15 1
    24   14   30 1
    25   15   31 1
    26   15   32 1
    27   15   38 1
    28   16   17 ar
    29   17   18 ar
    30   18   19 1
    31   19   24 ar
    32   19   20 ar
    33   20   21 ar
    34   20   33 1
    35   21   22 ar
    36   21   34 1
    37   22   23 ar
    38   22   35 1
    39   23   24 ar
    40   23   36 1
    41   24   37 1
@<TRIPOS>MOLECULE
ZINC05646855
   49    53     0     0     0
SMALL
USER_CHARGES

@<TRIPOS>ATOM
      1 C1         -0.1344    1.1494    0.3331 C.ar      1 <0>        -0.1060
      2 C2          0.9412    1.9948    0.1258 C.ar      1 <0>        -0.1088
      3 C3          2.2082    1.4755   -0.0422 C.ar      1 <0>        -0.0834
      4 C4          2.4037    0.0941   -0.0028 C.ar      1 <0>        -0.0652
      5 C5          1.3144   -0.7531    0.2067 C.ar      1 <0>        -0.1201
      6 C6          0.0526   -0.2209    0.3732 C.ar      1 <0>        -0.1162
      7 C7          3.7594   -0.4697   -0.1826 C.ar      1 <0>         0.0796
      8 C8          4.0945   -1.2363   -1.3251 C.ar      1 <0>        -0.2390
      9 C9          3.4312   -1.6634   -2.4658 C.2       1 <0>         0.3948
     10 N1          4.3023   -2.3783   -3.1986 N.pl3     1 <0>        -0.3804
     11 H1          4.1015   -2.7969   -4.0503 H         1 <0>         0.4629
     12 N2          5.5419   -2.4290   -2.5513 N.2       1 <0>        -0.2584
     13 C10         5.4701   -1.7571   -1.4189 C.ar      1 <0>         0.2235
     14 N3          6.3291   -1.4805   -0.4244 N.ar      1 <0>        -0.1856
     15 N4          5.9829   -0.7810    0.5939 N.ar      1 <0>        -0.1411
     16 C11         4.7673   -0.2632    0.7662 C.ar      1 <0>         0.0312
     17 C12         4.4775    0.5354    1.9792 C.ar      1 <0>        -0.0298
     18 C13         3.2929    0.3300    2.6865 C.ar      1 <0>        -0.0947
     19 C14         3.0287    1.0772    3.8159 C.ar      1 <0>        -0.1198
     20 C15         3.9355    2.0290    4.2469 C.ar      1 <0>        -0.1100
     21 C16         5.1119    2.2378    3.5494 C.ar      1 <0>        -0.1204
     22 C17         5.3907    1.4922    2.4224 C.ar      1 <0>        -0.0859
     23 N5          2.1071   -1.4003   -2.7918 N.am      1 <0>        -0.6448
     24 C18         1.5874   -1.8799   -3.9391 C.2       1 <0>         0.7100
     25 O1          2.2778   -2.5431   -4.6888 O.2       1 <0>        -0.5582
     26 N6          0.3024   -1.6245   -4.2555 N.am      1 <0>        -0.6650
     27 C19        -0.2664   -2.2051   -5.3945 C.ar      1 <0>         0.1484
     28 C20        -1.2280   -1.5150   -6.1209 C.ar      1 <0>        -0.1386
     29 C21        -1.7875   -2.0908   -7.2446 C.ar      1 <0>        -0.0985
     30 C22        -1.3912   -3.3531   -7.6467 C.ar      1 <0>        -0.1271
     31 C23        -0.4342   -4.0431   -6.9254 C.ar      1 <0>        -0.0986
     32 C24         0.1337   -3.4703   -5.8042 C.ar      1 <0>        -0.1179
     33 H2         -1.1235    1.5613    0.4685 H         1 <0>         0.1291
     34 H3          0.7885    3.0635    0.0952 H         1 <0>         0.1309
     35 H4          3.0469    2.1364   -0.2043 H         1 <0>         0.1281
     36 H5          1.4590   -1.8229    0.2379 H         1 <0>         0.1269
     37 H6         -0.7911   -0.8753    0.5353 H         1 <0>         0.1312
     38 H7          2.5839   -0.4122    2.3506 H         1 <0>         0.1215
     39 H8          2.1118    0.9191    4.3643 H         1 <0>         0.1233
     40 H9          3.7240    2.6117    5.1313 H         1 <0>         0.1231
     41 H10         5.8156    2.9827    3.8904 H         1 <0>         0.1262
     42 H11         6.3116    1.6527    1.8815 H         1 <0>         0.1281
     43 H12         1.5563   -0.8712   -2.1938 H         1 <0>         0.4296
     44 H13        -0.2281   -1.0382   -3.6936 H         1 <0>         0.4151
     45 H14        -1.5382   -0.5292   -5.8071 H         1 <0>         0.1279
     46 H15        -2.5357   -1.5548   -7.8097 H         1 <0>         0.1304
     47 H16        -1.8302   -3.8012   -8.5259 H         1 <0>         0.1272
     48 H17        -0.1270   -5.0289   -7.2418 H         1 <0>         0.1292
     49 H18         0.8847   -4.0075   -5.2442 H         1 <0>         0.1355
@<TRIPOS>BOND
     1    1    6 ar
     2    1    2 ar
     3    1   33 1
     4    2    3 ar
     5    2   34 1
     6    3    4 ar
     7    3   35 1
     8    4    5 ar
     9    4    7 1
    10    5    6 ar
    11    5   36 1
    12    6   37 1
    13    7   16 ar
    14    7    8 ar
    15    8   13 ar
    16    8    9 2
    17    9   10 1
    18    9   23 1
    19   10   11 1
    20   10   12 1
    21   12   13 2
    22   13   14 ar
    23   14   15 ar
    24   15   16 ar
    25   16   17 1
    26   17   22 ar
    27   17   18 ar
    28   18   19 ar
    29   18   38 1
    30   19   20 ar
    31   19   39 1
    32   20   21 ar
    33   20   40 1
    34   21   22 ar
    35   21   41 1
    36   22   42 1
    37   23   24 am
    38   23   43 1
    39   24   25 2
    40   24   26 am
    41   26   27 1
    42   26   44 1
    43   27   32 ar
    44   27   28 ar
    45   28   29 ar
    46   28   45 1
    47   29   30 ar
    48   29   46 1
    49   30   31 ar
    50   30   47 1
    51   31   32 ar
    52   31   48 1
    53   32   49 1
@<TRIPOS>MOLECULE
ZINC05646855
   49    53     0     0     0
SMALL
USER_CHARGES

@<TRIPOS>ATOM
      1 C1         -0.8115    0.6866    0.0392 C.ar      1 <0>        -0.0999
      2 C2          0.1791    1.6389   -0.1221 C.ar      1 <0>        -0.1091
      3 C3          1.5025    1.2560   -0.1976 C.ar      1 <0>        -0.0834
      4 C4          1.8408   -0.0947   -0.1106 C.ar      1 <0>        -0.0733
      5 C5          0.8372   -1.0501    0.0525 C.ar      1 <0>        -0.1121
      6 C6         -0.4825   -0.6544    0.1262 C.ar      1 <0>        -0.1095
      7 C7          3.2584   -0.5124   -0.1913 C.ar      1 <0>         0.0638
      8 C8          3.7514   -1.2260   -1.3009 C.ar      1 <0>        -0.1691
      9 C9          5.1139   -1.5912   -1.3105 C.ar      1 <0>         0.2738
     10 N1          5.3288   -2.2642   -2.4813 N.pl3     1 <0>        -0.4726
     11 H1          6.1773   -2.6385   -2.7656 H         1 <0>         0.4568
     12 N2          4.1333   -2.3288   -3.2043 N.2       1 <0>        -0.2127
     13 C10         3.1773   -1.7283   -2.5434 C.2       1 <0>         0.3403
     14 N3          1.8468   -1.5931   -2.9537 N.pl3     1 <0>        -0.5796
     15 C11         1.4426   -2.1184   -4.1548 C.2       1 <0>         0.5941
     16 N4          0.1961   -1.9918   -4.5393 N.2       1 <0>        -0.5983
     17 C12        -0.2394   -2.6274   -5.6723 C.ar      1 <0>         0.1185
     18 C13        -0.0910   -4.0094   -5.8019 C.ar      1 <0>        -0.1783
     19 C14        -0.5321   -4.6431   -6.9452 C.ar      1 <0>        -0.0941
     20 C15        -1.1204   -3.9121   -7.9619 C.ar      1 <0>        -0.1367
     21 C16        -1.2701   -2.5421   -7.8401 C.ar      1 <0>        -0.0975
     22 C17        -0.8387   -1.8966   -6.6998 C.ar      1 <0>        -0.1212
     23 O1          2.3291   -2.7660   -4.9410 O.3       1 <0>        -0.4913
     24 N5          5.8854   -1.2544   -0.2833 N.ar      1 <0>        -0.2363
     25 N6          5.4360   -0.6036    0.7274 N.ar      1 <0>        -0.1578
     26 C18         4.1705   -0.2090    0.8325 C.ar      1 <0>         0.0713
     27 C19         3.7234    0.5448    2.0275 C.ar      1 <0>        -0.0392
     28 C20         2.5220    0.2152    2.6538 C.ar      1 <0>        -0.0888
     29 C21         2.1111    0.9204    3.7665 C.ar      1 <0>        -0.1192
     30 C22         2.8882    1.9528    4.2604 C.ar      1 <0>        -0.1047
     31 C23         4.0811    2.2843    3.6433 C.ar      1 <0>        -0.1211
     32 C24         4.5052    1.5825    2.5334 C.ar      1 <0>        -0.0823
     33 H2         -1.8456    0.9918    0.1019 H         1 <0>         0.1295
     34 H3         -0.0841    2.6842   -0.1894 H         1 <0>         0.1309
     35 H4          2.2748    2.0003   -0.3242 H         1 <0>         0.1264
     36 H5          1.0927   -2.0973    0.1202 H         1 <0>         0.1265
     37 H6         -1.2603   -1.3930    0.2521 H         1 <0>         0.1320
     38 H7          0.3683   -4.5811   -5.0091 H         1 <0>         0.1220
     39 H8         -0.4176   -5.7122   -7.0469 H         1 <0>         0.1248
     40 H9         -1.4640   -4.4132   -8.8548 H         1 <0>         0.1241
     41 H10        -1.7299   -1.9773   -8.6377 H         1 <0>         0.1268
     42 H11        -0.9602   -0.8277   -6.6041 H         1 <0>         0.1271
     43 H12         1.9661   -3.0518   -5.7905 H         1 <0>         0.4188
     44 H13         1.9141   -0.5901    2.2686 H         1 <0>         0.1241
     45 H14         1.1807    0.6661    4.2525 H         1 <0>         0.1259
     46 H15         2.5622    2.5023    5.1311 H         1 <0>         0.1249
     47 H16         4.6836    3.0912    4.0334 H         1 <0>         0.1276
     48 H17         5.4389    1.8393    2.0551 H         1 <0>         0.1280
     49 H18         1.2099   -1.1279   -2.3889 H         1 <0>         0.4503
@<TRIPOS>BOND
     1    1    6 ar
     2    1    2 ar
     3    1   33 1
     4    2    3 ar
     5    2   34 1
     6    3    4 ar
     7    3   35 1
     8    4    5 ar
     9    4    7 1
    10    5    6 ar
    11    5   36 1
    12    6   37 1
    13    7   26 ar
    14    7    8 ar
    15    8   13 1
    16    8    9 ar
    17    9   24 ar
    18    9   10 1
    19   10   11 1
    20   10   12 1
    21   12   13 2
    22   13   14 1
    23   14   15 1
    24   14   49 1
    25   15   16 2
    26   15   23 1
    27   16   17 1
    28   17   22 ar
    29   17   18 ar
    30   18   19 ar
    31   18   38 1
    32   19   20 ar
    33   19   39 1
    34   20   21 ar
    35   20   40 1
    36   21   22 ar
    37   21   41 1
    38   22   42 1
    39   23   43 1
    40   24   25 ar
    41   25   26 ar
    42   26   27 1
    43   27   32 ar
    44   27   28 ar
    45   28   29 ar
    46   28   44 1
    47   29   30 ar
    48   29   45 1
    49   30   31 ar
    50   30   46 1
    51   31   32 ar
    52   31   47 1
    53   32   48 1
@<TRIPOS>MOLECULE
ZINC05646855
   50    54     0     0     0
SMALL
USER_CHARGES

@<TRIPOS>ATOM
      1 C1          0.6708    1.2927   -0.0955 C.ar      1 <0>        -0.0993
      2 C2          1.9591    1.7810   -0.2218 C.ar      1 <0>        -0.1052
      3 C3          3.0377    0.9290   -0.1021 C.ar      1 <0>        -0.0808
      4 C4          2.8270   -0.4275    0.1473 C.ar      1 <0>        -0.0796
      5 C5          1.5254   -0.9136    0.2741 C.ar      1 <0>        -0.1252
      6 C6          0.4552   -0.0514    0.1518 C.ar      1 <0>        -0.1169
      7 C7          3.9795   -1.3471    0.2764 C.ar      1 <0>         0.0565
      8 C8          4.2548   -2.3212   -0.7028 C.ar      1 <0>        -0.1601
      9 C9          5.3706   -3.1634   -0.5144 C.ar      1 <0>         0.2718
     10 N1          5.4104   -4.0045   -1.5918 N.pl3     1 <0>        -0.4509
     11 H1          6.0728   -4.6979   -1.7380 H         1 <0>         0.4670
     12 N2          4.3461   -3.7087   -2.4497 N.2       1 <0>        -0.1803
     13 C10         3.6394   -2.7214   -1.9625 C.2       1 <0>         0.2934
     14 N3          2.5007   -2.1537   -2.5438 N.pl3     1 <0>        -0.5516
     15 C11         2.0295   -2.6332   -3.7397 C.cat     1 <0>         0.6981
     16 N4          0.9627   -2.1013   -4.2844 N.pl3     1 <0>        -0.5721
     17 C12         0.4026   -2.6746   -5.3958 C.ar      1 <0>         0.0406
     18 C13         0.2589   -4.0611   -5.4725 C.ar      1 <0>        -0.1495
     19 C14        -0.3063   -4.6317   -6.5942 C.ar      1 <0>        -0.0816
     20 C15        -0.7303   -3.8332   -7.6415 C.ar      1 <0>        -0.0817
     21 C16        -0.5904   -2.4584   -7.5721 C.ar      1 <0>        -0.0866
     22 C17        -0.0322   -1.8744   -6.4538 C.ar      1 <0>        -0.0892
     23 O1          2.6649   -3.6531   -4.3557 O.3       1 <0>        -0.4011
     24 N5          6.1227   -3.0147    0.5701 N.ar      1 <0>        -0.2162
     25 N6          5.8720   -2.1265    1.4619 N.ar      1 <0>        -0.1467
     26 C18         4.8487   -1.2816    1.3776 C.ar      1 <0>         0.0960
     27 C19         4.6238   -0.2772    2.4437 C.ar      1 <0>        -0.0560
     28 C20         3.3393   -0.0594    2.9405 C.ar      1 <0>        -0.0878
     29 C21         3.1362    0.8769    3.9336 C.ar      1 <0>        -0.1192
     30 C22         4.2038    1.5991    4.4359 C.ar      1 <0>        -0.0956
     31 C23         5.4804    1.3874    3.9470 C.ar      1 <0>        -0.1182
     32 C24         5.6968    0.4497    2.9580 C.ar      1 <0>        -0.0772
     33 H2         -0.1701    1.9644   -0.1860 H         1 <0>         0.1348
     34 H3          2.1208    2.8312   -0.4148 H         1 <0>         0.1367
     35 H4          4.0429    1.3112   -0.2016 H         1 <0>         0.1317
     36 H5          1.3558   -1.9627    0.4668 H         1 <0>         0.1296
     37 H6         -0.5528   -0.4264    0.2494 H         1 <0>         0.1358
     38 H7          0.5898   -4.6855   -4.6559 H         1 <0>         0.1438
     39 H8         -0.4177   -5.7042   -6.6550 H         1 <0>         0.1499
     40 H9         -1.1721   -4.2850   -8.5173 H         1 <0>         0.1469
     41 H10        -0.9231   -1.8409   -8.3932 H         1 <0>         0.1498
     42 H11         0.0724   -0.8009   -6.3990 H         1 <0>         0.1464
     43 H12         2.3077   -3.8697   -5.2278 H         1 <0>         0.4463
     44 H13         2.5050   -0.6222    2.5485 H         1 <0>         0.1226
     45 H14         2.1417    1.0465    4.3191 H         1 <0>         0.1285
     46 H15         4.0399    2.3314    5.2127 H         1 <0>         0.1295
     47 H16         6.3101    1.9542    4.3431 H         1 <0>         0.1322
     48 H17         6.6946    0.2820    2.5803 H         1 <0>         0.1302
     49 H18         2.0443   -1.4210   -2.1014 H         1 <0>         0.4611
     50 H19         0.5696   -1.3018   -3.9007 H         1 <0>         0.4490
@<TRIPOS>BOND
     1    1    6 ar
     2    1    2 ar
     3    1   33 1
     4    2    3 ar
     5    2   34 1
     6    3    4 ar
     7    3   35 1
     8    4    5 ar
     9    4    7 1
    10    5    6 ar
    11    5   36 1
    12    6   37 1
    13    7   26 ar
    14    7    8 ar
    15    8   13 1
    16    8    9 ar
    17    9   24 ar
    18    9   10 1
    19   10   11 1
    20   10   12 1
    21   12   13 2
    22   13   14 1
    23   14   15 1
    24   14   49 1
    25   15   16 2
    26   15   23 1
    27   16   17 1
    28   16   50 1
    29   17   22 ar
    30   17   18 ar
    31   18   19 ar
    32   18   38 1
    33   19   20 ar
    34   19   39 1
    35   20   21 ar
    36   20   40 1
    37   21   22 ar
    38   21   41 1
    39   22   42 1
    40   23   43 1
    41   24   25 ar
    42   25   26 ar
    43   26   27 1
    44   27   32 ar
    45   27   28 ar
    46   28   29 ar
    47   28   44 1
    48   29   30 ar
    49   29   45 1
    50   30   31 ar
    51   30   46 1
    52   31   32 ar
    53   31   47 1
    54   32   48 1
@<TRIPOS>MOLECULE
ZINC05646855
   50    54     0     0     0
SMALL
NO_CHARGES

@<TRIPOS>ATOM
      1 C1          0.5962    1.3195   -0.1663 C.ar      1 <0>        -0.1143
      2 C2          1.8859    1.8067   -0.2834 C.ar      1 <0>        -0.1096
      3 C3          2.9628    0.9536   -0.1577 C.ar      1 <0>        -0.0903
      4 C4          2.7491   -0.4035    0.0886 C.ar      1 <0>        -0.0469
      5 C5          1.4456   -0.8884    0.2061 C.ar      1 <0>        -0.1260
      6 C6          0.3775   -0.0248    0.0778 C.ar      1 <0>        -0.1181
      7 C7          3.8991   -1.3239    0.2240 C.ar      1 <0>         0.0259
      8 C8          4.1819   -2.3017   -0.7602 C.ar      1 <0>        -0.2000
      9 C9          5.3487   -3.1748   -0.5404 C.ar      1 <0>         0.2346
     10 N1          5.4082   -3.9912   -1.5743 N.2       1 <0>        -0.2824
     11 H1          4.1849   -4.1689   -3.2858 H         1 <0>         0.4471
     12 N2          4.3560   -3.7050   -2.4513 N.pl3     1 <0>        -0.4252
     13 C10         3.6175   -2.6914   -1.9662 C.2       1 <0>         0.2846
     14 N3          2.4950   -2.1362   -2.5634 N.pl3     1 <0>        -0.5241
     15 C11         2.0446   -2.6238   -3.7650 C.cat     1 <0>         0.3468
     16 N4          0.9844   -2.0994   -4.3290 N.pl3     1 <0>        -0.5864
     17 C12         0.4442   -2.6809   -5.4459 C.ar      1 <0>         0.1020
     18 C13         0.3071   -4.0683   -5.5174 C.ar      1 <0>        -0.1790
     19 C14        -0.2376   -4.6473   -6.6449 C.ar      1 <0>        -0.0781
     20 C15        -0.6471   -3.8561   -7.7035 C.ar      1 <0>        -0.1396
     21 C16        -0.5137   -2.4804   -7.6393 C.ar      1 <0>        -0.0820
     22 C17         0.0232   -1.8881   -6.5150 C.ar      1 <0>        -0.1389
     23 O1          2.6942   -3.6439   -4.3658 O.3       1 <0>        -0.4648
     24 N5          6.0785   -3.0007    0.5734 N.ar      1 <0>        -0.2264
     25 N6          5.7860   -2.1014    1.4404 N.ar      1 <0>        -0.1559
     26 C18         4.7576   -1.2617    1.3278 C.ar      1 <0>         0.0182
     27 C19         4.5159   -0.2549    2.3866 C.ar      1 <0>        -0.0167
     28 C20         3.2248   -0.0432    2.8702 C.ar      1 <0>        -0.1003
     29 C21         3.0061    0.8959    3.8570 C.ar      1 <0>        -0.1204
     30 C22         4.0643    1.6269    4.3669 C.ar      1 <0>        -0.1172
     31 C23         5.3471    1.4219    3.8912 C.ar      1 <0>        -0.1206
     32 C24         5.5794    0.4816    2.9085 C.ar      1 <0>        -0.0911
     33 H2         -0.2433    1.9922   -0.2614 H         1 <0>         0.1263
     34 H3          2.0499    2.8570   -0.4740 H         1 <0>         0.1282
     35 H4          3.9690    1.3350   -0.2501 H         1 <0>         0.1263
     36 H5          1.2735   -1.9375    0.3964 H         1 <0>         0.1248
     37 H6         -0.6317   -0.3988    0.1682 H         1 <0>         0.1277
     38 H7          0.6271   -4.6871   -4.6920 H         1 <0>         0.1330
     39 H8         -0.3442   -5.7205   -6.7015 H         1 <0>         0.1319
     40 H9         -1.0726   -4.3144   -8.5840 H         1 <0>         0.1285
     41 H10        -0.8348   -1.8687   -8.4694 H         1 <0>         0.1315
     42 H11         0.1223   -0.8139   -6.4642 H         1 <0>         0.1297
     43 H12         2.3515   -3.8666   -5.2422 H         1 <0>         0.4277
     44 H13         2.3979   -0.6130    2.4726 H         1 <0>         0.1197
     45 H14         2.0068    1.0610    4.2320 H         1 <0>         0.1203
     46 H15         3.8881    2.3609    5.1394 H         1 <0>         0.1204
     47 H16         6.1690    1.9959    4.2929 H         1 <0>         0.1236
     48 H17         6.5820    0.3189    2.5413 H         1 <0>         0.1263
     49 H18         2.0284   -1.4034   -2.1318 H         1 <0>         0.4435
     50 H19         0.5821   -1.2996   -3.9557 H         1 <0>         0.4254
@<TRIPOS>BOND
     1    1    6 ar
     2    1    2 ar
     3    1   33 1
     4    2    3 ar
     5    2   34 1
     6    3    4 ar
     7    3   35 1
     8    4    5 ar
     9    4    7 1
    10    5    6 ar
    11    5   36 1
    12    6   37 1
    13    7   26 ar
    14    7    8 ar
    15    8    9 ar
    16    8   13 2
    17    9   24 ar
    18    9   10 2
    19   10   12 1
    20   11   12 1
    21   12   13 1
    22   13   14 1
    23   14   15 1
    24   14   49 1
    25   15   16 2
    26   15   23 1
    27   16   17 1
    28   16   50 1
    29   17   22 ar
    30   17   18 ar
    31   18   19 ar
    32   18   38 1
    33   19   20 ar
    34   19   39 1
    35   20   21 ar
    36   20   40 1
    37   21   22 ar
    38   21   41 1
    39   22   42 1
    40   23   43 1
    41   24   25 ar
    42   25   26 ar
    43   26   27 1
    44   27   32 ar
    45   27   28 ar
    46   28   29 ar
    47   28   44 1
    48   29   30 ar
    49   29   45 1
    50   30   31 ar
    51   30   46 1
    52   31   32 ar
    53   31   47 1
    54   32   48 1
@<TRIPOS>MOLECULE
ZINC05646855
   49    53     0     0     0
SMALL
USER_CHARGES

@<TRIPOS>ATOM
      1 C1         -0.1477    1.1701    0.3682 C.ar      1 <0>        -0.1037
      2 C2          0.9267    2.0148    0.1532 C.ar      1 <0>        -0.1094
      3 C3          2.1916    1.4945   -0.0280 C.ar      1 <0>        -0.0828
      4 C4          2.3860    0.1132    0.0062 C.ar      1 <0>        -0.0666
      5 C5          1.2984   -0.7332    0.2239 C.ar      1 <0>        -0.1143
      6 C6          0.0384   -0.2004    0.4033 C.ar      1 <0>        -0.1156
      7 C7          3.7401   -0.4517   -0.1880 C.ar      1 <0>         0.0582
      8 C8          4.0625   -1.2097   -1.3303 C.ar      1 <0>        -0.1681
      9 C9          3.3389   -1.6439   -2.5191 C.2       1 <0>         0.3472
     10 N1          4.1684   -2.3401   -3.2526 N.2       1 <0>        -0.1931
     11 H1          6.1973   -2.8659   -2.9810 H         1 <0>         0.4563
     12 N2          5.4192   -2.4052   -2.6300 N.pl3     1 <0>        -0.4753
     13 C10         5.3733   -1.7172   -1.4491 C.ar      1 <0>         0.2717
     14 N3          6.2575   -1.4673   -0.4902 N.ar      1 <0>        -0.2354
     15 N4          5.9637   -0.7757    0.5502 N.ar      1 <0>        -0.1595
     16 C11         4.7599   -0.2498    0.7562 C.ar      1 <0>         0.0698
     17 C12         4.4942    0.5431    1.9797 C.ar      1 <0>        -0.0383
     18 C13         3.3184    0.3429    2.7019 C.ar      1 <0>        -0.0898
     19 C14         3.0768    1.0838    3.8407 C.ar      1 <0>        -0.1194
     20 C15         3.9981    2.0240    4.2659 C.ar      1 <0>        -0.1052
     21 C16         5.1665    2.2270    3.5536 C.ar      1 <0>        -0.1208
     22 C17         5.4218    1.4881    2.4165 C.ar      1 <0>        -0.0825
     23 N5          2.0004   -1.3664   -2.8205 N.am      1 <0>        -0.6385
     24 C18         1.4557   -1.8335   -3.9614 C.2       1 <0>         0.6985
     25 O1          2.1271   -2.4959   -4.7289 O.2       1 <0>        -0.5186
     26 N6          0.1670   -1.5663   -4.2516 N.am      1 <0>        -0.6768
     27 C19        -0.4271   -2.1332   -5.3847 C.ar      1 <0>         0.1590
     28 C20        -1.3962   -1.4297   -6.0879 C.ar      1 <0>        -0.1441
     29 C21        -1.9807   -1.9920   -7.2058 C.ar      1 <0>        -0.0997
     30 C22        -1.6018   -3.2541   -7.6251 C.ar      1 <0>        -0.1329
     31 C23        -0.6370   -3.9571   -6.9272 C.ar      1 <0>        -0.0989
     32 C24        -0.0446   -3.3980   -5.8118 C.ar      1 <0>        -0.1192
     33 H2         -1.1353    1.5825    0.5136 H         1 <0>         0.1297
     34 H3          0.7749    3.0837    0.1269 H         1 <0>         0.1311
     35 H4          3.0294    2.1548   -0.1965 H         1 <0>         0.1271
     36 H5          1.4424   -1.8032    0.2511 H         1 <0>         0.1273
     37 H6         -0.8043   -0.8546    0.5715 H         1 <0>         0.1321
     38 H7          2.5981   -0.3904    2.3704 H         1 <0>         0.1233
     39 H8          2.1664    0.9296    4.4008 H         1 <0>         0.1255
     40 H9          3.8044    2.6020    5.1574 H         1 <0>         0.1249
     41 H10         5.8821    2.9624    3.8904 H         1 <0>         0.1277
     42 H11         6.3363    1.6443    1.8636 H         1 <0>         0.1283
     43 H12         1.4648   -0.8380   -2.2082 H         1 <0>         0.4202
     44 H13        -0.3487   -0.9811   -3.6751 H         1 <0>         0.4093
     45 H14        -1.6928   -0.4442   -5.7606 H         1 <0>         0.1259
     46 H15        -2.7347   -1.4456   -7.7528 H         1 <0>         0.1278
     47 H16        -2.0605   -3.6917   -8.4994 H         1 <0>         0.1246
     48 H17        -0.3435   -4.9427   -7.2570 H         1 <0>         0.1269
     49 H18         0.7122   -3.9457   -5.2699 H         1 <0>         0.1364
@<TRIPOS>BOND
     1    1    6 ar
     2    1    2 ar
     3    1   33 1
     4    2    3 ar
     5    2   34 1
     6    3    4 ar
     7    3   35 1
     8    4    5 ar
     9    4    7 1
    10    5    6 ar
    11    5   36 1
    12    6   37 1
    13    7   16 ar
    14    7    8 ar
    15    8    9 1
    16    8   13 ar
    17    9   23 1
    18    9   10 2
    19   10   12 1
    20   11   12 1
    21   12   13 1
    22   13   14 ar
    23   14   15 ar
    24   15   16 ar
    25   16   17 1
    26   17   22 ar
    27   17   18 ar
    28   18   19 ar
    29   18   38 1
    30   19   20 ar
    31   19   39 1
    32   20   21 ar
    33   20   40 1
    34   21   22 ar
    35   21   41 1
    36   22   42 1
    37   23   24 am
    38   23   43 1
    39   24   25 2
    40   24   26 am
    41   26   27 1
    42   26   44 1
    43   27   32 ar
    44   27   28 ar
    45   28   29 ar
    46   28   45 1
    47   29   30 ar
    48   29   46 1
    49   30   31 ar
    50   30   47 1
    51   31   32 ar
    52   31   48 1
    53   32   49 1
@<TRIPOS>MOLECULE
ZINC00582590
   54    56     0     0     0
SMALL
USER_CHARGES

@<TRIPOS>ATOM
      1 C1          0.3210   -0.2542   -0.2950 C.3       1 <0>        -0.1471
      2 C2         -0.6989    0.1485    0.7720 C.3       1 <0>        -0.0980
      3 C3         -0.9526    1.6552    0.6922 C.3       1 <0>        -0.1473
      4 C4         -2.0102   -0.6029    0.5335 C.3       1 <0>         0.1711
      5 H1         -2.4152   -0.3269   -0.4401 H         1 <0>         0.1082
      6 C5         -3.0151   -0.2346    1.6269 C.3       1 <0>         0.0616
      7 O1         -2.4404   -0.4943    2.9092 O.3       1 <0>        -0.5710
      8 N1         -1.7592   -2.0458    0.5668 N.pl3     1 <0>        -0.6786
      9 C6         -2.6062   -2.9119   -0.1051 C.ar      1 <0>         0.6293
     10 N2         -3.6349   -2.4098   -0.7763 N.ar      1 <0>        -0.6062
     11 C7         -4.4751   -3.1988   -1.4363 C.ar      1 <0>         0.5376
     12 C8         -4.2539   -4.5867   -1.4114 C.ar      1 <0>        -0.1535
     13 C9         -3.1523   -5.0726   -0.6878 C.ar      1 <0>         0.3509
     14 N3         -2.3585   -4.2107   -0.0601 N.ar      1 <0>        -0.6161
     15 N4         -3.1762   -6.4368   -0.8324 N.pl3     1 <0>        -0.4727
     16 C10        -4.2520   -6.7464   -1.6124 C.2       1 <0>         0.2292
     17 N5         -4.8825   -5.6599   -1.9508 N.2       1 <0>        -0.4526
     18 C11        -2.2219   -7.3866   -0.2551 C.3       1 <0>         0.1354
     19 C12        -2.9632   -8.3593    0.6643 C.3       1 <0>        -0.1619
     20 C13        -1.5372   -8.1679   -1.3784 C.3       1 <0>        -0.1618
     21 N6         -5.5464   -2.6655   -2.1337 N.pl3     1 <0>        -0.6280
     22 C14        -5.6825   -1.2864   -2.2512 C.ar      1 <0>         0.1488
     23 C15        -4.5525   -0.4885   -2.4166 C.ar      1 <0>        -0.1220
     24 C16        -4.6779    0.8657   -2.5326 C.ar      1 <0>        -0.0594
     25 C17        -5.9451    1.4590   -2.4857 C.ar      1 <0>        -0.1364
     26 C18        -7.0831    0.6589   -2.3195 C.ar      1 <0>         0.0117
     27 C19        -6.9477   -0.7079   -2.2089 C.ar      1 <0>        -0.1557
     28 Cl1        -8.6583    1.3861   -2.2597 Cl        1 <0>        -0.0441
     29 C20        -6.0813    2.9182   -2.6102 C.2       1 <0>         0.5168
     30 O2         -5.0862    3.6154   -2.7549 O.co2     1 <0>        -0.6900
     31 O3         -7.1896    3.4349   -2.5690 O.co2     1 <0>        -0.6630
     32 H2          1.2552    0.2811   -0.1251 H         1 <0>         0.0549
     33 H3          0.5018   -1.3276   -0.2382 H         1 <0>         0.0529
     34 H4         -0.0674   -0.0030   -1.2820 H         1 <0>         0.0568
     35 H5         -0.3105   -0.1028    1.7590 H         1 <0>         0.0821
     36 H6         -1.3236    1.9090   -0.3008 H         1 <0>         0.0629
     37 H7         -1.6929    1.9391    1.4402 H         1 <0>         0.0595
     38 H8         -0.0222    2.1908    0.8803 H         1 <0>         0.0576
     39 H9         -3.2659    0.8232    1.5485 H         1 <0>         0.0601
     40 H10        -3.9187   -0.8321    1.5060 H         1 <0>         0.0503
     41 H11        -3.0232   -0.2835    3.6514 H         1 <0>         0.3749
     42 H12        -0.9999   -2.3948    1.0594 H         1 <0>         0.4127
     43 H13        -4.5374   -7.7457   -1.9061 H         1 <0>         0.2129
     44 H14        -1.4715   -6.8438    0.3196 H         1 <0>         0.1056
     45 H15        -3.7136   -8.9021    0.0895 H         1 <0>         0.0647
     46 H16        -2.2531   -9.0660    1.0938 H         1 <0>         0.0772
     47 H17        -3.4510   -7.8027    1.4645 H         1 <0>         0.0630
     48 H18        -1.0091   -7.4750   -2.0333 H         1 <0>         0.0633
     49 H19        -0.8272   -8.8746   -0.9489 H         1 <0>         0.0771
     50 H20        -2.2876   -8.7108   -1.9531 H         1 <0>         0.0647
     51 H21        -6.2018   -3.2539   -2.5402 H         1 <0>         0.4250
     52 H22        -3.5736   -0.9432   -2.4528 H         1 <0>         0.1261
     53 H23        -3.7989    1.4800   -2.6603 H         1 <0>         0.1350
     54 H24        -7.8223   -1.3294   -2.0853 H         1 <0>         0.1255
@<TRIPOS>BOND
     1    1    2 1
     2    1   32 1
     3    1   33 1
     4    1   34 1
     5    2    3 1
     6    2    4 1
     7    2   35 1
     8    3   36 1
     9    3   37 1
    10    3   38 1
    11    4    5 1
    12    4    6 1
    13    4    8 1
    14    6    7 1
    15    6   39 1
    16    6   40 1
    17    7   41 1
    18    8    9 1
    19    8   42 1
    20    9   14 ar
    21    9   10 ar
    22   10   11 ar
    23   11   12 ar
    24   11   21 1
    25   12   17 1
    26   12   13 ar
    27   13   14 ar
    28   13   15 1
    29   15   16 1
    30   15   18 1
    31   16   17 2
    32   16   43 1
    33   18   19 1
    34   18   20 1
    35   18   44 1
    36   19   45 1
    37   19   46 1
    38   19   47 1
    39   20   48 1
    40   20   49 1
    41   20   50 1
    42   21   22 1
    43   21   51 1
    44   22   27 ar
    45   22   23 ar
    46   23   24 ar
    47   23   52 1
    48   24   25 ar
    49   24   53 1
    50   25   26 ar
    51   25   29 1
    52   26   27 ar
    53   26   28 1
    54   27   54 1
    55   29   30 2
    56   29   31 1
@<TRIPOS>MOLECULE
ZINC10254746
   54    56     0     0     0
SMALL
USER_CHARGES
2-chloro-4-[[2-[[(1S)-1-(hydroxymethyl)-2-methyl-propyl]amino]-9-isopropyl-purin-6-yl]amino]benzoic acid
@<TRIPOS>ATOM
      1 C1          8.6928    4.9687   -2.2469 C.3       1 <0>        -0.1430
      2 C2          7.3574    4.2723   -1.9773 C.3       1 <0>        -0.1025
      3 C3          7.3630    2.8883   -2.6295 C.3       1 <0>        -0.1458
      4 C4          7.1552    4.1240   -0.4680 C.3       1 <0>         0.1689
      5 H1          7.9323    3.4783   -0.0590 H         1 <0>         0.1087
      6 C5          7.2347    5.5006    0.1950 C.3       1 <0>         0.0620
      7 O1          6.2542    6.3649   -0.3828 O.3       1 <0>        -0.5639
      8 N1          5.8409    3.5316   -0.2073 N.pl3     1 <0>        -0.6781
      9 C6          5.6819    2.6282    0.8307 C.ar      1 <0>         0.6156
     10 N2          4.4766    2.1235    1.0619 N.ar      1 <0>        -0.5902
     11 C7          4.2734    1.2540    2.0451 C.ar      1 <0>         0.4775
     12 C8          5.3651    0.8789    2.8472 C.ar      1 <0>        -0.1162
     13 C9          6.6233    1.4343    2.5614 C.ar      1 <0>         0.3408
     14 N3          6.7371    2.2979    1.5573 N.ar      1 <0>        -0.5980
     15 N4          7.4915    0.8970    3.4778 N.pl3     1 <0>        -0.4734
     16 C10         6.7748    0.0506    4.2725 C.2       1 <0>         0.2374
     17 N5          5.5287    0.0390    3.8987 N.2       1 <0>        -0.4443
     18 C11         8.9248    1.1805    3.5841 C.3       1 <0>         0.1356
     19 C12         9.2276    1.7679    4.9641 C.3       1 <0>        -0.1627
     20 C13         9.7163   -0.1154    3.3967 C.3       1 <0>        -0.1624
     21 N6          3.0117    0.7325    2.2788 N.pl3     1 <0>        -0.5366
     22 C14         1.9335    1.1448    1.5014 C.ar      1 <0>         0.0927
     23 C15         0.8605    0.2827    1.2891 C.ar      1 <0>        -0.1566
     24 C16        -0.2011    0.6805    0.5279 C.ar      1 <0>        -0.0503
     25 C17        -0.2145    1.9573   -0.0433 C.ar      1 <0>        -0.1207
     26 C18         0.8628    2.8258    0.1680 C.ar      1 <0>         0.0082
     27 C19         1.9301    2.4174    0.9387 C.ar      1 <0>        -0.1257
     28 Cl1         0.8541    4.4121   -0.5372 Cl        1 <0>        -0.0460
     29 C20        -1.3566    2.3846   -0.8700 C.2       1 <0>         0.4859
     30 O2         -1.3666    3.4942   -1.3655 O.co2     1 <0>        -0.6072
     31 H2          8.8262    5.0952   -3.3213 H         1 <0>         0.0584
     32 H3          8.6977    5.9452   -1.7626 H         1 <0>         0.0586
     33 H4          9.5060    4.3616   -1.8489 H         1 <0>         0.0534
     34 H5          6.5461    4.8679   -2.3958 H         1 <0>         0.0855
     35 H6          6.3861    2.4223   -2.5014 H         1 <0>         0.0574
     36 H7          7.5811    2.9887   -3.6928 H         1 <0>         0.0556
     37 H8          8.1260    2.2681   -2.1591 H         1 <0>         0.0513
     38 H9          7.0461    5.4006    1.2639 H         1 <0>         0.0450
     39 H10         8.2277    5.9222    0.0391 H         1 <0>         0.0548
     40 H11         6.2474    7.2569   -0.0096 H         1 <0>         0.3774
     41 H12         5.0820    3.7720   -0.7615 H         1 <0>         0.4211
     42 H13         7.1818   -0.5250    5.0906 H         1 <0>         0.2156
     43 H14         9.2118    1.8962    2.8137 H         1 <0>         0.1048
     44 H15         8.9407    1.0522    5.7345 H         1 <0>         0.0658
     45 H16        10.2940    1.9789    5.0431 H         1 <0>         0.0778
     46 H17         8.6637    2.6911    5.0976 H         1 <0>         0.0632
     47 H18         9.5007   -0.5339    2.4136 H         1 <0>         0.0634
     48 H19        10.7828    0.0956    3.4758 H         1 <0>         0.0777
     49 H20         9.4294   -0.8311    4.1671 H         1 <0>         0.0657
     50 H21         3.0331   -0.2596    2.1556 H         1 <0>         0.3793
     51 H22         0.8679   -0.7039    1.7284 H         1 <0>         0.1261
     52 H23        -1.0310    0.0085    0.3664 H         1 <0>         0.1413
     53 H24         2.7633    3.0840    1.1048 H         1 <0>         0.1502
     54 O3         -2.3903    1.5450   -1.0768 O.co2     1 <0>        -0.7589
@<TRIPOS>BOND
     1    1    2 1
     2    1   31 1
     3    1   32 1
     4    1   33 1
     5    2    3 1
     6    2    4 1
     7    2   34 1
     8    3   35 1
     9    3   36 1
    10    3   37 1
    11    4    5 1
    12    4    6 1
    13    4    8 1
    14    6    7 1
    15    6   38 1
    16    6   39 1
    17    7   40 1
    18    8    9 1
    19    8   41 1
    20    9   14 ar
    21    9   10 ar
    22   10   11 ar
    23   11   12 ar
    24   11   21 1
    25   12   17 1
    26   12   13 ar
    27   13   14 ar
    28   13   15 1
    29   15   16 1
    30   15   18 1
    31   16   17 2
    32   16   42 1
    33   18   19 1
    34   18   20 1
    35   18   43 1
    36   19   44 1
    37   19   45 1
    38   19   46 1
    39   20   47 1
    40   20   48 1
    41   20   49 1
    42   21   22 1
    43   21   50 1
    44   22   27 ar
    45   22   23 ar
    46   23   24 ar
    47   23   51 1
    48   24   25 ar
    49   24   52 1
    50   25   26 ar
    51   25   29 1
    52   26   27 ar
    53   26   28 1
    54   27   53 1
    55   29   30 2
    56   29   54 1
@<TRIPOS>MOLECULE
ZINC13674793
   22    24     0     0     0
SMALL
USER_CHARGES

@<TRIPOS>ATOM
      1 C1         -0.0162    1.3430    0.0094 C.2       1 <0>        -0.2114
      2 C2          1.3256    1.7743   -0.0011 C.2       1 <0>        -0.1625
      3 C3          2.0971    0.6542   -0.0145 C.2       1 <0>         0.0345
      4 O1          1.2805   -0.4171   -0.0124 O.3       1 <0>        -0.1765
      5 C4          0.0021   -0.0041    0.0020 C.2       1 <0>        -0.0320
      6 C5          3.5733    0.6187   -0.0292 C.ar      1 <0>         0.0343
      7 C6          4.2287   -0.6068   -0.0477 C.ar      1 <0>         0.0294
      8 C7          5.6322   -0.5884   -0.0617 C.ar      1 <0>        -0.2777
      9 C8          6.6428   -1.5460   -0.0812 C.2       1 <0>         0.4318
     10 N1          7.8175   -0.8942   -0.0867 N.pl3     1 <0>        -0.4338
     11 H1          8.6894   -1.3191   -0.1001 H         1 <0>         0.4498
     12 N2          7.5988    0.4876   -0.0710 N.2       1 <0>        -0.2805
     13 C9          6.3021    0.7258   -0.0556 C.ar      1 <0>         0.2315
     14 N3          5.5413    1.8317   -0.0368 N.ar      1 <0>        -0.1929
     15 N4          4.2592    1.7649   -0.0300 N.ar      1 <0>        -0.1310
     16 N5          6.4689   -2.9189   -0.0922 N.pl3     1 <0>        -0.8230
     17 H2         -0.8931    1.9731    0.0252 H         1 <0>         0.1533
     18 H3          1.6738    2.7966    0.0008 H         1 <0>         0.1589
     19 H4         -0.8668   -0.6455    0.0072 H         1 <0>         0.2074
     20 H5          3.6796   -1.5367   -0.0509 H         1 <0>         0.1495
     21 H6          5.5746   -3.2946   -0.0863 H         1 <0>         0.4268
     22 H7          7.2413   -3.5056   -0.1057 H         1 <0>         0.4141
@<TRIPOS>BOND
     1    1    5 2
     2    1    2 1
     3    1   17 1
     4    2    3 2
     5    2   18 1
     6    3    4 1
     7    3    6 1
     8    4    5 1
     9    5   19 1
    10    6   15 ar
    11    6    7 ar
    12    7    8 ar
    13    7   20 1
    14    8   13 ar
    15    8    9 2
    16    9   10 1
    17    9   16 1
    18   10   11 1
    19   10   12 1
    20   12   13 2
    21   13   14 ar
    22   14   15 ar
    23   16   21 1
    24   16   22 1
@<TRIPOS>MOLECULE
ZINC06718813
   46    49     0     0     0
SMALL
USER_CHARGES
3-[4-(3-amino-1H-indazol-4-yl)phenyl]-1-(2-fluoro-5-methyl-phenyl)urea
@<TRIPOS>ATOM
      1 C1          6.9492   -0.6708   -4.4566 C.3       1 <0>        -0.1151
      2 C2          7.3188   -0.0066   -3.1554 C.ar      1 <0>        -0.0747
      3 C3          8.6152   -0.0905   -2.6815 C.ar      1 <0>        -0.1060
      4 C4          8.9590    0.5169   -1.4879 C.ar      1 <0>        -0.1295
      5 C5          8.0061    1.2101   -0.7639 C.ar      1 <0>         0.0645
      6 C6          6.7020    1.2957   -1.2387 C.ar      1 <0>         0.1336
      7 C7          6.3607    0.6802   -2.4351 C.ar      1 <0>        -0.0953
      8 N1          5.7336    1.9963   -0.5085 N.am      1 <0>        -0.6783
      9 C8          4.4547    1.5712   -0.5040 C.2       1 <0>         0.7069
     10 O1          4.1265    0.6239   -1.1921 O.2       1 <0>        -0.5500
     11 N2          3.5395    2.1961    0.2631 N.am      1 <0>        -0.6801
     12 C9          2.2409    1.6865    0.3572 C.ar      1 <0>         0.1677
     13 C10         1.1632    2.5541    0.4899 C.ar      1 <0>        -0.1430
     14 C11        -0.1180    2.0545    0.5834 C.ar      1 <0>        -0.0892
     15 C12        -0.3326    0.6766    0.5442 C.ar      1 <0>        -0.0682
     16 C13         0.7509   -0.1919    0.4104 C.ar      1 <0>        -0.0779
     17 C14         2.0300    0.3132    0.3174 C.ar      1 <0>        -0.1142
     18 C15        -1.7083    0.1367    0.6449 C.ar      1 <0>         0.0376
     19 C16        -2.0347   -0.7648    1.6483 C.ar      1 <0>        -0.1557
     20 C17        -3.3230   -1.2675    1.7456 C.ar      1 <0>        -0.0592
     21 C18        -4.2968   -0.8911    0.8473 C.ar      1 <0>        -0.1529
     22 C19        -3.9969    0.0086   -0.1734 C.ar      1 <0>         0.1547
     23 C20        -2.6946    0.5292   -0.2801 C.ar      1 <0>        -0.1858
     24 C21        -2.7034    1.4283   -1.4324 C.2       1 <0>         0.3642
     25 N3         -3.9099    1.4169   -1.9352 N.2       1 <0>        -0.3205
     26 N4         -4.7292    0.5606   -1.1926 N.pl3     1 <0>        -0.5119
     27 H1         -5.6955    0.3797   -1.3759 H         1 <0>         0.4473
     28 N5         -1.6172    2.1667   -1.9108 N.pl3     1 <0>        -0.8360
     29 F1          8.3418    1.8036    0.4023 F         1 <0>        -0.1384
     30 H2          6.6188   -1.6912   -4.2627 H         1 <0>         0.0755
     31 H3          6.1436   -0.1125   -4.9335 H         1 <0>         0.0695
     32 H4          7.8178   -0.6890   -5.1149 H         1 <0>         0.0704
     33 H5          9.3607   -0.6319   -3.2448 H         1 <0>         0.1352
     34 H6          9.9724    0.4496   -1.1204 H         1 <0>         0.1410
     35 H7          5.3477    0.7413   -2.8045 H         1 <0>         0.1523
     36 H8          5.9835    2.7876   -0.0061 H         1 <0>         0.4118
     37 H9          3.7818    2.9993    0.7499 H         1 <0>         0.4106
     38 H10         1.3298    3.6208    0.5203 H         1 <0>         0.1310
     39 H11        -0.9554    2.7293    0.6824 H         1 <0>         0.1315
     40 H12         0.5876   -1.2590    0.3794 H         1 <0>         0.1314
     41 H13         2.8692   -0.3587    0.2138 H         1 <0>         0.1391
     42 H14        -1.2822   -1.0738    2.3586 H         1 <0>         0.1292
     43 H15        -3.5651   -1.9655    2.5334 H         1 <0>         0.1325
     44 H16        -5.2951   -1.2940    0.9345 H         1 <0>         0.1278
     45 H17        -0.7342    2.0309   -1.5329 H         1 <0>         0.4118
     46 H18        -1.7465    2.8151   -2.6206 H         1 <0>         0.4050
@<TRIPOS>BOND
     1    1    2 1
     2    1   30 1
     3    1   31 1
     4    1   32 1
     5    2    7 ar
     6    2    3 ar
     7    3    4 ar
     8    3   33 1
     9    4    5 ar
    10    4   34 1
    11    5    6 ar
    12    5   29 1
    13    6    7 ar
    14    6    8 1
    15    7   35 1
    16    8    9 am
    17    8   36 1
    18    9   10 2
    19    9   11 am
    20   11   12 1
    21   11   37 1
    22   12   17 ar
    23   12   13 ar
    24   13   14 ar
    25   13   38 1
    26   14   15 ar
    27   14   39 1
    28   15   16 ar
    29   15   18 1
    30   16   17 ar
    31   16   40 1
    32   17   41 1
    33   18   23 ar
    34   18   19 ar
    35   19   20 ar
    36   19   42 1
    37   20   21 ar
    38   20   43 1
    39   21   22 ar
    40   21   44 1
    41   22   26 1
    42   22   23 ar
    43   23   24 1
    44   24   25 2
    45   24   28 1
    46   25   26 1
    47   26   27 1
    48   28   45 1
    49   28   46 1
@<TRIPOS>MOLECULE
ZINC16052718
   27    29     0     0     0
SMALL
USER_CHARGES
2-(4-pyridyl)-1,5,6,7-tetrahydropyrrolo[3,2-c]pyridin-4-one
@<TRIPOS>ATOM
      1 C1         -1.2211    1.7394    0.0173 C.ar      1 <0>        -0.1847
      2 C2         -0.0126    1.0758    0.0080 C.ar      1 <0>         0.1111
      3 N1          1.1266    1.7422    0.0007 N.ar      1 <0>        -0.4905
      4 C3          1.1665    3.0614    0.0069 C.ar      1 <0>         0.1119
      5 C4          0.0054    3.8049    0.0215 C.ar      1 <0>        -0.1618
      6 C5         -1.2265    3.1395    0.0297 C.ar      1 <0>         0.0379
      7 C6         -2.4974    3.8941    0.0449 C.2       1 <0>         0.0152
      8 C7         -2.6168    5.2527    0.0519 C.2       1 <0>        -0.0780
      9 C8         -3.9881    5.5373    0.0657 C.2       1 <0>        -0.2330
     10 C9         -4.6662    4.3225    0.0683 C.2       1 <0>         0.0775
     11 N2         -3.7609    3.3429    0.0484 N.pl3     1 <0>        -0.5119
     12 H1         -3.9600    2.3935    0.0405 H         1 <0>         0.4194
     13 C10        -6.1725    4.2736    0.0855 C.3       1 <0>        -0.0706
     14 C11        -6.6980    5.5192    0.7998 C.3       1 <0>         0.1242
     15 N3         -6.0502    6.7447    0.3531 N.am      1 <0>        -0.7362
     16 C12        -4.7270    6.8120    0.0741 C.2       1 <0>         0.5975
     17 O1         -4.1760    7.8712   -0.1574 O.2       1 <0>        -0.5324
     18 H2         -2.1495    1.1876    0.0191 H         1 <0>         0.1271
     19 H3          0.0021   -0.0041    0.0020 H         1 <0>         0.1582
     20 H4          2.1216    3.5654    0.0002 H         1 <0>         0.1618
     21 H5          0.0456    4.8841    0.0262 H         1 <0>         0.1422
     22 H6         -1.8098    5.9704    0.0479 H         1 <0>         0.1542
     23 H7         -6.5491    4.2527   -0.9371 H         1 <0>         0.0964
     24 H8         -6.5030    3.3798    0.6148 H         1 <0>         0.0985
     25 H9         -7.7696    5.6022    0.6183 H         1 <0>         0.0948
     26 H10        -6.5315    5.4063    1.8710 H         1 <0>         0.0675
     27 H11        -6.5885    7.5452    0.2514 H         1 <0>         0.4040
@<TRIPOS>BOND
     1    1    6 ar
     2    1    2 ar
     3    1   18 1
     4    2    3 ar
     5    2   19 1
     6    3    4 ar
     7    4    5 ar
     8    4   20 1
     9    5    6 ar
    10    5   21 1
    11    6    7 1
    12    7   11 1
    13    7    8 2
    14    8    9 1
    15    8   22 1
    16    9   16 1
    17    9   10 2
    18   10   11 1
    19   10   13 1
    20   11   12 1
    21   13   14 1
    22   13   23 1
    23   13   24 1
    24   14   15 1
    25   14   25 1
    26   14   26 1
    27   15   16 am
    28   15   27 1
    29   16   17 2
@<TRIPOS>MOLECULE
ZINC00582575
   52    54     0     0     0
SMALL
USER_CHARGES

@<TRIPOS>ATOM
      1 C1          0.4280   -0.4909    1.8513 C.3       1 <0>        -0.1353
      2 C2         -0.1373    0.3043    0.6728 C.3       1 <0>        -0.0998
      3 C3          0.1219    1.7960    0.8928 C.3       1 <0>        -0.1438
      4 C4          0.5445   -0.1465   -0.6206 C.3       1 <0>         0.1707
      5 H1          1.6116    0.0682   -0.5626 H         1 <0>         0.1020
      6 C5         -0.0633    0.6053   -1.8064 C.3       1 <0>         0.0638
      7 O1         -1.4784    0.4070   -1.8214 O.3       1 <0>        -0.5678
      8 N1          0.3453   -1.5866   -0.8014 N.pl3     1 <0>        -0.6843
      9 C6          1.2038   -2.4865   -0.1915 C.ar      1 <0>         0.6278
     10 N2          2.1960   -2.0197    0.5559 N.ar      1 <0>        -0.6013
     11 C7          3.0454   -2.8423    1.1611 C.ar      1 <0>         0.5297
     12 C8          2.8737   -4.2277    0.9949 C.ar      1 <0>        -0.1465
     13 C9          1.8096   -4.6754    0.1948 C.ar      1 <0>         0.3495
     14 N3          1.0032   -3.7820   -0.3699 N.ar      1 <0>        -0.6072
     15 N4          1.8776   -6.0456    0.2064 N.pl3     1 <0>        -0.4700
     16 C10         2.9424   -6.3955    0.9844 C.2       1 <0>         0.2415
     17 N5          3.5251   -5.3277    1.4458 N.2       1 <0>        -0.4572
     18 C11         0.9729   -6.9645   -0.4890 C.3       1 <0>         0.1340
     19 C12         1.7722   -7.8175   -1.4761 C.3       1 <0>        -0.1629
     20 C13         0.2864   -7.8742    0.5318 C.3       1 <0>        -0.1632
     21 N6          4.0779   -2.3459    1.9386 N.pl3     1 <0>        -0.6355
     22 C14         4.2903   -0.9669    2.0207 C.ar      1 <0>         0.1742
     23 C15         4.0436   -0.1577    0.9185 C.ar      1 <0>        -0.1100
     24 C16         4.2538    1.2045    1.0024 C.ar      1 <0>        -0.0884
     25 C17         4.7100    1.7642    2.1819 C.ar      1 <0>        -0.1271
     26 C18         4.9569    0.9617    3.2819 C.ar      1 <0>        -0.0129
     27 C19         4.7429   -0.4020    3.2058 C.ar      1 <0>        -0.1416
     28 Cl1         5.5294    1.6687    4.7604 Cl        1 <0>        -0.0669
     29 H2          0.2433   -1.5536    1.6946 H         1 <0>         0.0430
     30 H3          1.5012   -0.3158    1.9263 H         1 <0>         0.0707
     31 H4         -0.0578   -0.1697    2.7727 H         1 <0>         0.0403
     32 H5         -1.2106    0.1292    0.5978 H         1 <0>         0.0766
     33 H6          1.1945    1.9872    0.8596 H         1 <0>         0.0559
     34 H7         -0.3739    2.3703    0.1101 H         1 <0>         0.0538
     35 H8         -0.2703    2.0934    1.8654 H         1 <0>         0.0560
     36 H9          0.1535    1.6693   -1.7118 H         1 <0>         0.0658
     37 H10         0.3663    0.2281   -2.7345 H         1 <0>         0.0519
     38 H11        -1.9308    0.8561   -2.5484 H         1 <0>         0.3823
     39 H12        -0.3878   -1.9099   -1.3481 H         1 <0>         0.4179
     40 H13         3.2553   -7.4091    1.1873 H         1 <0>         0.2164
     41 H14         0.2195   -6.3923   -1.0303 H         1 <0>         0.1069
     42 H15         2.5256   -8.3897   -0.9348 H         1 <0>         0.0660
     43 H16         1.0991   -8.5011   -1.9935 H         1 <0>         0.0802
     44 H17         2.2613   -7.1693   -2.2033 H         1 <0>         0.0632
     45 H18        -0.2830   -7.2665    1.2351 H         1 <0>         0.0634
     46 H19        -0.3867   -8.5579    0.0144 H         1 <0>         0.0803
     47 H20         1.0399   -8.4464    1.0731 H         1 <0>         0.0660
     48 H21         4.6539   -2.9553    2.4263 H         1 <0>         0.4297
     49 H22         3.6881   -0.5939   -0.0033 H         1 <0>         0.1411
     50 H23         4.0621    1.8335    0.1457 H         1 <0>         0.1337
     51 H24         4.8742    2.8298    2.2445 H         1 <0>         0.1331
     52 H25         4.9317   -1.0277    4.0656 H         1 <0>         0.1347
@<TRIPOS>BOND
     1    1    2 1
     2    1   29 1
     3    1   30 1
     4    1   31 1
     5    2    3 1
     6    2    4 1
     7    2   32 1
     8    3   33 1
     9    3   34 1
    10    3   35 1
    11    4    5 1
    12    4    6 1
    13    4    8 1
    14    6    7 1
    15    6   36 1
    16    6   37 1
    17    7   38 1
    18    8    9 1
    19    8   39 1
    20    9   14 ar
    21    9   10 ar
    22   10   11 ar
    23   11   12 ar
    24   11   21 1
    25   12   17 1
    26   12   13 ar
    27   13   14 ar
    28   13   15 1
    29   15   16 1
    30   15   18 1
    31   16   17 2
    32   16   40 1
    33   18   19 1
    34   18   20 1
    35   18   41 1
    36   19   42 1
    37   19   43 1
    38   19   44 1
    39   20   45 1
    40   20   46 1
    41   20   47 1
    42   21   22 1
    43   21   48 1
    44   22   27 ar
    45   22   23 ar
    46   23   24 ar
    47   23   49 1
    48   24   25 ar
    49   24   50 1
    50   25   26 ar
    51   25   51 1
    52   26   27 ar
    53   26   28 1
    54   27   52 1
@<TRIPOS>MOLECULE
ZINC14806879
   29    31     0     0     0
SMALL
USER_CHARGES

@<TRIPOS>ATOM
      1 C1         -0.0173    1.4248    0.0099 C.3       1 <0>         0.0271
      2 O1          0.0021   -0.0041    0.0020 O.3       1 <0>        -0.3168
      3 C2         -1.2010   -0.6378    0.0101 C.ar      1 <0>         0.1024
      4 C3         -2.3765    0.1026    0.0196 C.ar      1 <0>        -0.1700
      5 C4         -3.6033   -0.5286    0.0283 C.ar      1 <0>        -0.1033
      6 C5         -3.6754   -1.9173    0.0273 C.ar      1 <0>         0.1187
      7 C6         -2.4893   -2.6625    0.0173 C.ar      1 <0>        -0.0676
      8 C7         -1.2551   -2.0214    0.0032 C.ar      1 <0>        -0.0969
      9 C8         -2.8914   -4.0876    0.0188 C.2       1 <0>        -0.1578
     10 C9         -2.0671   -5.1903    0.0116 C.2       1 <0>         0.0629
     11 C10        -2.6439   -6.5349    0.0144 C.2       1 <0>        -0.0242
     12 C11        -1.9450   -7.7254    0.0136 C.2       1 <0>        -0.0035
     13 N1         -2.8729   -8.7189    0.0171 N.pl3     1 <0>        -0.5670
     14 H1         -2.6907   -9.6716    0.0177 H         1 <0>         0.4219
     15 C12        -4.1014   -8.1382    0.0200 C.2       1 <0>         0.1702
     16 N2         -3.9675   -6.8441    0.0243 N.2       1 <0>        -0.4045
     17 C13        -4.3615   -4.0702    0.0302 C.2       1 <0>         0.5403
     18 O2         -5.0890   -5.0470    0.0353 O.2       1 <0>        -0.4371
     19 N3         -4.7617   -2.7874    0.0347 N.am      1 <0>        -0.6638
     20 H2          1.0053    1.8021    0.0021 H         1 <0>         0.1005
     21 H3         -0.5445    1.7859   -0.8732 H         1 <0>         0.0556
     22 H4         -0.5275    1.7763    0.9067 H         1 <0>         0.0557
     23 H5         -2.3296    1.1815    0.0204 H         1 <0>         0.1351
     24 H6         -4.5103    0.0577    0.0364 H         1 <0>         0.1299
     25 H7         -0.3432   -2.6000   -0.0090 H         1 <0>         0.1360
     26 H8         -0.9947   -5.0627    0.0038 H         1 <0>         0.1494
     27 H9         -0.8715   -7.8442    0.0104 H         1 <0>         0.1860
     28 H10        -5.0423   -8.6684    0.0231 H         1 <0>         0.2076
     29 H11        -5.6893   -2.5039    0.0425 H         1 <0>         0.4133
@<TRIPOS>BOND
     1    1    2 1
     2    1   20 1
     3    1   21 1
     4    1   22 1
     5    2    3 1
     6    3    8 ar
     7    3    4 ar
     8    4    5 ar
     9    4   23 1
    10    5    6 ar
    11    5   24 1
    12    6   19 1
    13    6    7 ar
    14    7    8 ar
    15    7    9 1
    16    8   25 1
    17    9   10 2
    18    9   17 1
    19   10   11 1
    20   10   26 1
    21   11   16 1
    22   11   12 2
    23   12   13 1
    24   12   27 1
    25   13   14 1
    26   13   15 1
    27   15   16 2
    28   15   28 1
    29   17   18 2
    30   17   19 am
    31   19   29 1
@<TRIPOS>MOLECULE
ZINC13597821
   29    32     0     0     0
SMALL
USER_CHARGES

@<TRIPOS>ATOM
      1 C1         -0.0166    1.3747    0.0096 C.ar      1 <0>        -0.1351
      2 C2          1.1715    2.0889    0.0021 C.ar      1 <0>        -0.1558
      3 C3          2.3855    1.4335   -0.0135 C.ar      1 <0>        -0.1218
      4 C4          2.4252    0.0445   -0.0218 C.ar      1 <0>         0.0729
      5 C5          1.2214   -0.6772   -0.0137 C.ar      1 <0>         0.0050
      6 C6          0.0021   -0.0041    0.0020 C.ar      1 <0>        -0.1283
      7 C7          1.5978   -2.1033   -0.0257 C.2       1 <0>        -0.4073
      8 C8          2.9951   -2.1359   -0.0400 C.2       1 <0>         0.4869
      9 N1          3.4697   -0.8656   -0.0376 N.pl3     1 <0>        -0.6262
     10 H1          4.4099   -0.6273   -0.0461 H         1 <0>         0.3986
     11 O1          3.7515   -3.2537   -0.0541 O.3       1 <0>        -0.6939
     12 C9          0.7215   -3.2139   -0.0224 C.2       1 <0>         0.3290
     13 N2          0.2356   -3.8187   -1.0822 N.2       1 <0>        -0.4601
     14 C10        -0.5829   -4.8606   -0.7652 C.ar      1 <0>         0.1157
     15 C11        -1.2960   -5.7560   -1.5635 C.ar      1 <0>        -0.1051
     16 C12        -2.0695   -6.7423   -0.9784 C.ar      1 <0>        -0.0810
     17 C13        -2.1481   -6.8571    0.3980 C.ar      1 <0>        -0.1494
     18 C14        -1.4485   -5.9800    1.2105 C.ar      1 <0>        -0.0317
     19 C15        -0.6689   -4.9852    0.6382 C.ar      1 <0>        -0.2474
     20 C16         0.1882   -3.9130    1.1902 C.2       1 <0>         0.3791
     21 O2          0.4068   -3.6573    2.3562 O.2       1 <0>        -0.3882
     22 H2         -0.9601    1.9000    0.0260 H         1 <0>         0.1069
     23 H3          1.1465    3.1686    0.0081 H         1 <0>         0.1089
     24 H4          3.3050    2.0001   -0.0196 H         1 <0>         0.1064
     25 H5         -0.9242   -0.5593    0.0075 H         1 <0>         0.1029
     26 H6         -1.2443   -5.6785   -2.6395 H         1 <0>         0.1325
     27 H7         -2.6188   -7.4307   -1.6035 H         1 <0>         0.1305
     28 H8         -2.7565   -7.6322    0.8400 H         1 <0>         0.1293
     29 H9         -1.5098   -6.0701    2.2850 H         1 <0>         0.1267
@<TRIPOS>BOND
     1    1    6 ar
     2    1    2 ar
     3    1   22 1
     4    2    3 ar
     5    2   23 1
     6    3    4 ar
     7    3   24 1
     8    4    9 1
     9    4    5 ar
    10    5    6 ar
    11    5    7 1
    12    6   25 1
    13    7    8 2
    14    7   12 1
    15    8    9 1
    16    8   11 1
    17    9   10 1
    18   12   20 1
    19   12   13 2
    20   13   14 1
    21   14   19 ar
    22   14   15 ar
    23   15   16 ar
    24   15   26 1
    25   16   17 ar
    26   16   27 1
    27   17   18 ar
    28   17   28 1
    29   18   19 ar
    30   18   29 1
    31   19   20 1
    32   20   21 2
@<TRIPOS>MOLECULE
ZINC05224686
   35    38     0     0     0
SMALL
USER_CHARGES
4,5-diphenyl-1H-pyrazolo[5,4-c]pyridazin-3-amine
@<TRIPOS>ATOM
      1 C1         -0.1922    6.6056   -0.7110 C.ar      1 <0>        -0.1050
      2 C2          0.6546    6.1644   -1.7122 C.ar      1 <0>        -0.1107
      3 C3          1.3739    4.9986   -1.5474 C.ar      1 <0>        -0.0845
      4 C4          1.2459    4.2643   -0.3679 C.ar      1 <0>        -0.0624
      5 C5          0.3862    4.7118    0.6357 C.ar      1 <0>        -0.1086
      6 C6         -0.3236    5.8820    0.4609 C.ar      1 <0>        -0.1145
      7 C7          2.0142    3.0126   -0.1847 C.ar      1 <0>         0.0620
      8 C8          1.3737    1.7597   -0.1281 C.ar      1 <0>        -0.1827
      9 C9         -0.0083    1.3020   -0.2101 C.2       1 <0>         0.3756
     10 N1          0.0008   -0.0007   -0.0903 N.2       1 <0>        -0.2874
     11 N2          1.3131   -0.4576    0.0690 N.pl3     1 <0>        -0.4815
     12 H1          1.5829   -1.4140    0.1805 H         1 <0>         0.4591
     13 C10         2.1694    0.6082    0.0484 C.ar      1 <0>         0.2762
     14 N3          3.4869    0.7375    0.1551 N.ar      1 <0>        -0.2462
     15 N4          4.0703    1.8794    0.1034 N.ar      1 <0>        -0.1604
     16 C11         3.4130    3.0238   -0.0600 C.ar      1 <0>         0.0599
     17 C12         4.1539    4.3061   -0.1109 C.ar      1 <0>        -0.0350
     18 C13         5.3311    4.4054   -0.8516 C.ar      1 <0>        -0.0841
     19 C14         6.0133    5.6040   -0.9002 C.ar      1 <0>        -0.1210
     20 C15         5.5382    6.7021   -0.2059 C.ar      1 <0>        -0.1070
     21 C16         4.3740    6.6080    0.5353 C.ar      1 <0>        -0.1194
     22 C17         3.6797    5.4165    0.5865 C.ar      1 <0>        -0.0911
     23 N5         -1.1362    2.1073   -0.3899 N.pl3     1 <0>        -0.8246
     24 H2         -0.7528    7.5189   -0.8447 H         1 <0>         0.1280
     25 H3          0.7526    6.7335   -2.6248 H         1 <0>         0.1295
     26 H4          2.0349    4.6554   -2.3295 H         1 <0>         0.1250
     27 H5          0.2795    4.1455    1.5491 H         1 <0>         0.1259
     28 H6         -0.9860    6.2318    1.2388 H         1 <0>         0.1305
     29 H7          5.7055    3.5474   -1.3901 H         1 <0>         0.1277
     30 H8          6.9228    5.6833   -1.4771 H         1 <0>         0.1271
     31 H9          6.0782    7.6367   -0.2429 H         1 <0>         0.1244
     32 H10         4.0074    7.4689    1.0747 H         1 <0>         0.1251
     33 H11         2.7707    5.3444    1.1652 H         1 <0>         0.1230
     34 H12        -2.0174    1.7045   -0.4358 H         1 <0>         0.4126
     35 H13        -1.0379    3.0691   -0.4688 H         1 <0>         0.4146
@<TRIPOS>BOND
     1    1    6 ar
     2    1    2 ar
     3    1   24 1
     4    2    3 ar
     5    2   25 1
     6    3    4 ar
     7    3   26 1
     8    4    5 ar
     9    4    7 1
    10    5    6 ar
    11    5   27 1
    12    6   28 1
    13    7   16 ar
    14    7    8 ar
    15    8   13 ar
    16    8    9 1
    17    9   10 2
    18    9   23 1
    19   10   11 1
    20   11   12 1
    21   11   13 1
    22   13   14 ar
    23   14   15 ar
    24   15   16 ar
    25   16   17 1
    26   17   22 ar
    27   17   18 ar
    28   18   19 ar
    29   18   29 1
    30   19   20 ar
    31   19   30 1
    32   20   21 ar
    33   20   31 1
    34   21   22 ar
    35   21   32 1
    36   22   33 1
    37   23   34 1
    38   23   35 1
@<TRIPOS>MOLECULE
ZINC12355112
   41    43     0     0     0
SMALL
USER_CHARGES

@<TRIPOS>ATOM
      1 C1         -0.1028    1.0961   -0.3671 C.ar      1 <0>        -0.0514
      2 C2          0.1939    0.2453    0.6818 C.ar      1 <0>        -0.1484
      3 C3          1.4264   -0.3800    0.7402 C.ar      1 <0>         0.1639
      4 C4          2.3673   -0.1521   -0.2572 C.ar      1 <0>         0.0453
      5 C5          2.0653    0.7038   -1.3099 C.ar      1 <0>         0.1303
      6 C6          0.8305    1.3253   -1.3612 C.ar      1 <0>        -0.1508
      7 F1          2.9766    0.9287   -2.2816 F         1 <0>        -0.1242
      8 N1          3.6170   -0.7832   -0.2014 N.pl3     1 <0>        -0.5829
      9 C7          3.7027   -2.0774    0.1649 C.2       1 <0>         0.5287
     10 S1          2.2783   -2.9758    0.4732 S.2       1 <0>        -0.4610
     11 N2          4.9096   -2.6643    0.2886 N.pl3     1 <0>        -0.3704
     12 C8          5.1565   -3.9777    0.5555 C.2       1 <0>         0.6130
     13 N3          6.4609   -4.1414    0.5939 N.2       1 <0>        -0.5881
     14 C9          7.0702   -2.9726    0.3596 C.2       1 <0>         0.5344
     15 N4          6.1641   -2.0459    0.1621 N.2       1 <0>        -0.3900
     16 N5          8.4494   -2.7737    0.3248 N.pl3     1 <0>        -0.6253
     17 C10         9.3156   -3.8654    0.4276 C.ar      1 <0>         0.2308
     18 C11         8.9430   -5.1006   -0.0877 C.ar      1 <0>        -0.1475
     19 C12         9.8015   -6.1774    0.0157 C.ar      1 <0>         0.0049
     20 C13        11.0306   -6.0273    0.6313 C.ar      1 <0>        -0.6997
     21 C14        11.4044   -4.7993    1.1458 C.ar      1 <0>         0.0107
     22 C15        10.5534   -3.7167    1.0403 C.ar      1 <0>        -0.1718
     23 S2         12.1228   -7.4039    0.7609 S.o2      1 <0>         2.7036
     24 O1         12.9813   -7.1389    1.8619 O.2       1 <0>        -0.9640
     25 O2         11.3155   -8.5710    0.6881 O.2       1 <0>        -0.9611
     26 N6         13.0757   -7.4022   -0.5934 N.pl3     1 <0>        -1.2489
     27 N7          4.2074   -4.9604    0.7511 N.pl3     1 <0>        -0.7789
     28 F2          1.7155   -1.2107    1.7657 F         1 <0>        -0.0889
     29 H1         -1.0676    1.5793   -0.4122 H         1 <0>         0.1524
     30 H2         -0.5376    0.0691    1.4566 H         1 <0>         0.1538
     31 H3          0.5950    1.9905   -2.1789 H         1 <0>         0.1534
     32 H4          4.4206   -0.2887   -0.4264 H         1 <0>         0.4283
     33 H5          8.8079   -1.8774    0.2293 H         1 <0>         0.4322
     34 H6          7.9831   -5.2186   -0.5683 H         1 <0>         0.1467
     35 H7          9.5123   -7.1380   -0.3844 H         1 <0>         0.1464
     36 H8         12.3649   -4.6855    1.6262 H         1 <0>         0.1476
     37 H9         10.8481   -2.7567    1.4378 H         1 <0>         0.1386
     38 H10        13.9781   -7.7554   -0.5519 H         1 <0>         0.4215
     39 H11        12.7314   -7.0480   -1.4282 H         1 <0>         0.4170
     40 H12         3.2665   -4.7264    0.7830 H         1 <0>         0.4323
     41 H13         4.4811   -5.8849    0.8567 H         1 <0>         0.4174
@<TRIPOS>BOND
     1    1    6 ar
     2    1    2 ar
     3    1   29 1
     4    2    3 ar
     5    2   30 1
     6    3    4 ar
     7    3   28 1
     8    4    5 ar
     9    4    8 1
    10    5    6 ar
    11    5    7 1
    12    6   31 1
    13    8    9 1
    14    8   32 1
    15    9   10 2
    16    9   11 1
    17   11   15 1
    18   11   12 1
    19   12   13 2
    20   12   27 1
    21   13   14 1
    22   14   15 2
    23   14   16 1
    24   16   17 1
    25   16   33 1
    26   17   22 ar
    27   17   18 ar
    28   18   19 ar
    29   18   34 1
    30   19   20 ar
    31   19   35 1
    32   20   21 ar
    33   20   23 1
    34   21   22 ar
    35   21   36 1
    36   22   37 1
    37   23   24 2
    38   23   25 2
    39   23   26 1
    40   26   38 1
    41   26   39 1
    42   27   40 1
    43   27   41 1
@<TRIPOS>MOLECULE
ZINC12354940
   36    41     0     0     0
SMALL
USER_CHARGES

@<TRIPOS>ATOM
      1 C1         -0.0166    1.3735    0.0096 C.ar      1 <0>        -0.1479
      2 C2          1.1715    2.0889    0.0021 C.ar      1 <0>        -0.0724
      3 C3          2.3842    1.4344   -0.0130 C.ar      1 <0>        -0.1443
      4 C4          2.4249    0.0433   -0.0208 C.ar      1 <0>         0.1440
      5 C5          1.2217   -0.6796   -0.0132 C.ar      1 <0>        -0.1070
      6 C6          0.0021   -0.0041    0.0020 C.ar      1 <0>        -0.0471
      7 C7          1.5900   -2.1053   -0.0244 C.ar      1 <0>        -0.0113
      8 C8          0.8450   -3.2914   -0.0236 C.ar      1 <0>        -0.1089
      9 C9          1.5048   -4.5329   -0.0368 C.ar      1 <0>        -0.1090
     10 C10         2.9047   -4.5788   -0.0507 C.ar      1 <0>        -0.0113
     11 C11         3.8802   -5.6817   -0.0671 C.ar      1 <0>        -0.1071
     12 C12         3.7578   -7.0705   -0.0742 C.ar      1 <0>        -0.0471
     13 C13         4.8890   -7.8567   -0.0904 C.ar      1 <0>        -0.1479
     14 C14         6.1466   -7.2721   -0.0996 C.ar      1 <0>        -0.0724
     15 C15         6.2826   -5.9007   -0.0927 C.ar      1 <0>        -0.1443
     16 C16         5.1525   -5.0888   -0.0765 C.ar      1 <0>         0.1440
     17 N1          4.9928   -3.7159   -0.0666 N.pl3     1 <0>        -0.6062
     18 H1          5.7195   -3.0734   -0.0704 H         1 <0>         0.4202
     19 C17         3.6507   -3.3893   -0.0512 C.ar      1 <0>         0.1470
     20 C18         2.9933   -2.1524   -0.0381 C.ar      1 <0>         0.1470
     21 N2          3.4735   -0.8571   -0.0356 N.pl3     1 <0>        -0.6063
     22 H2          4.4125   -0.6141   -0.0429 H         1 <0>         0.4202
     23 C19         0.4437   -5.5556   -0.0320 C.2       1 <0>         0.5841
     24 O1          0.6177   -6.7581   -0.0399 O.2       1 <0>        -0.4586
     25 N3         -0.7498   -4.9352   -0.0170 N.am      1 <0>        -0.6811
     26 C20        -0.5964   -3.5989   -0.0112 C.2       1 <0>         0.5840
     27 O2         -1.4957   -2.7819    0.0023 O.2       1 <0>        -0.4587
     28 H3         -0.9603    1.8985    0.0259 H         1 <0>         0.1315
     29 H4          1.1462    3.1686    0.0077 H         1 <0>         0.1328
     30 H5          3.3035    2.0013   -0.0190 H         1 <0>         0.1270
     31 H6         -0.9246   -0.5587    0.0082 H         1 <0>         0.1419
     32 H7          2.7797   -7.5284   -0.0668 H         1 <0>         0.1419
     33 H8          4.7961   -8.9327   -0.0956 H         1 <0>         0.1315
     34 H9          7.0273   -7.8971   -0.1119 H         1 <0>         0.1328
     35 H10         7.2667   -5.4559   -0.0996 H         1 <0>         0.1270
     36 H11        -1.6062   -5.3906   -0.0108 H         1 <0>         0.4318
@<TRIPOS>BOND
     1    1    6 ar
     2    1    2 ar
     3    1   28 1
     4    2    3 ar
     5    2   29 1
     6    3    4 ar
     7    3   30 1
     8    4   21 1
     9    4    5 ar
    10    5    6 ar
    11    5    7 1
    12    6   31 1
    13    7   20 ar
    14    7    8 ar
    15    8   26 1
    16    8    9 ar
    17    9   10 ar
    18    9   23 1
    19   10   19 ar
    20   10   11 1
    21   11   16 ar
    22   11   12 ar
    23   12   13 ar
    24   12   32 1
    25   13   14 ar
    26   13   33 1
    27   14   15 ar
    28   14   34 1
    29   15   16 ar
    30   15   35 1
    31   16   17 1
    32   17   18 1
    33   17   19 1
    34   19   20 ar
    35   20   21 1
    36   21   22 1
    37   23   24 2
    38   23   25 am
    39   25   26 am
    40   25   36 1
    41   26   27 2
@<TRIPOS>MOLECULE
ZINC12354826
   35    37     0     0     0
SMALL
USER_CHARGES

@<TRIPOS>ATOM
      1 C1         -0.0166    1.3761    0.0096 C.ar      1 <0>        -0.1342
      2 C2          1.1722    2.0866    0.0021 C.ar      1 <0>        -0.0922
      3 C3          2.3845    1.4280   -0.0135 C.ar      1 <0>        -0.1316
      4 C4          2.4231    0.0375   -0.0212 C.ar      1 <0>         0.1319
      5 C5          1.2185   -0.6770   -0.0131 C.ar      1 <0>        -0.0720
      6 C6          0.0021   -0.0041    0.0020 C.ar      1 <0>        -0.0790
      7 C7          1.5853   -2.1126   -0.0239 C.2       1 <0>        -0.2766
      8 C8          0.7414   -3.1854   -0.0218 C.2       1 <0>         0.2412
      9 N1          1.2472   -4.4495   -0.0330 N.pl3     1 <0>        -0.6323
     10 C9          0.3831   -5.5478   -0.0308 C.ar      1 <0>         0.2200
     11 C10        -0.9922   -5.3517   -0.0229 C.ar      1 <0>        -0.1940
     12 C11        -1.8432   -6.4393   -0.0207 C.ar      1 <0>         0.0234
     13 C12        -1.3277   -7.7226   -0.0259 C.ar      1 <0>        -0.7085
     14 C13         0.0408   -7.9214   -0.0337 C.ar      1 <0>         0.0229
     15 C14         0.8975   -6.8383   -0.0422 C.ar      1 <0>        -0.1805
     16 S1         -2.4172   -9.1074   -0.0219 S.o2      1 <0>         2.7047
     17 O1         -1.6863  -10.1975    0.5229 O.2       1 <0>        -0.9631
     18 O2         -3.6438   -8.6575    0.5369 O.2       1 <0>        -0.9633
     19 N2         -2.7291   -9.4896   -1.6027 N.pl3     1 <0>        -1.2505
     20 C15         3.0525   -2.1310   -0.0383 C.2       1 <0>         0.5643
     21 O3          3.7558   -3.1259   -0.0502 O.2       1 <0>        -0.5343
     22 N3          3.4847   -0.8586   -0.0361 N.am      1 <0>        -0.6497
     23 H1         -0.9595    1.9026    0.0259 H         1 <0>         0.1294
     24 H2          1.1501    3.1664    0.0080 H         1 <0>         0.1306
     25 H3          3.3049    1.9929   -0.0199 H         1 <0>         0.1265
     26 H4         -0.9245   -0.5589    0.0082 H         1 <0>         0.1259
     27 H5         -0.3275   -3.0315   -0.0112 H         1 <0>         0.1708
     28 H6          2.2072   -4.5877   -0.0424 H         1 <0>         0.4310
     29 H7         -1.3953   -4.3498   -0.0182 H         1 <0>         0.1404
     30 H8         -2.9124   -6.2875   -0.0146 H         1 <0>         0.1508
     31 H9          0.4400   -8.9249   -0.0373 H         1 <0>         0.1509
     32 H10         1.9661   -6.9943   -0.0531 H         1 <0>         0.1418
     33 H11        -2.3257   -8.9704   -2.3159 H         1 <0>         0.4167
     34 H12        -3.3151  -10.2326   -1.8155 H         1 <0>         0.4216
     35 H13         4.4192   -0.5988   -0.0439 H         1 <0>         0.4168
@<TRIPOS>BOND
     1    1    6 ar
     2    1    2 ar
     3    1   23 1
     4    2    3 ar
     5    2   24 1
     6    3    4 ar
     7    3   25 1
     8    4   22 1
     9    4    5 ar
    10    5    6 ar
    11    5    7 1
    12    6   26 1
    13    7    8 2
    14    7   20 1
    15    8    9 1
    16    8   27 1
    17    9   10 1
    18    9   28 1
    19   10   15 ar
    20   10   11 ar
    21   11   12 ar
    22   11   29 1
    23   12   13 ar
    24   12   30 1
    25   13   14 ar
    26   13   16 1
    27   14   15 ar
    28   14   31 1
    29   15   32 1
    30   16   17 2
    31   16   18 2
    32   16   19 1
    33   19   33 1
    34   19   34 1
    35   20   21 2
    36   20   22 am
    37   22   35 1
@<TRIPOS>MOLECULE
ZINC12354826
   35    37     0     0     0
SMALL
USER_CHARGES

@<TRIPOS>ATOM
      1 C1         -0.0986    1.2634   -0.9624 C.ar      1 <0>        -0.1315
      2 C2          1.0773    1.9817   -1.1028 C.ar      1 <0>        -0.0906
      3 C3          2.3012    1.3605   -0.9622 C.ar      1 <0>        -0.1292
      4 C4          2.3649    0.0007   -0.6765 C.ar      1 <0>         0.1395
      5 C5          1.1733   -0.7217   -0.5349 C.ar      1 <0>        -0.0862
      6 C6         -0.0551   -0.0867   -0.6789 C.ar      1 <0>        -0.0888
      7 C7          1.5659   -2.1193   -0.2380 C.2       1 <0>        -0.2726
      8 C8          0.7414   -3.1854   -0.0218 C.2       1 <0>         0.2402
      9 N1         -0.6018   -2.9947    0.0943 N.pl3     1 <0>        -0.6373
     10 C9         -1.4570   -4.0947    0.2017 C.ar      1 <0>         0.2192
     11 C10        -0.9379   -5.3833    0.1959 C.ar      1 <0>        -0.1912
     12 C11        -1.7859   -6.4681    0.3022 C.ar      1 <0>         0.0245
     13 C12        -3.1504   -6.2728    0.4138 C.ar      1 <0>        -0.7076
     14 C13        -3.6705   -4.9914    0.4198 C.ar      1 <0>         0.0229
     15 C14        -2.8277   -3.9020    0.3201 C.ar      1 <0>        -0.1831
     16 S1         -4.2287   -7.6598    0.5479 S.o2      1 <0>         2.7043
     17 O1         -5.5036   -7.2287    0.0917 O.2       1 <0>        -0.9631
     18 O2         -3.5454   -8.7630   -0.0311 O.2       1 <0>        -0.9625
     19 N2         -4.3928   -7.9982    2.1607 N.pl3     1 <0>        -1.2503
     20 C15         3.0331   -2.1090   -0.2276 C.2       1 <0>         0.5757
     21 O3          3.7542   -3.0689   -0.0198 O.2       1 <0>        -0.5179
     22 N3          3.4424   -0.8557   -0.4874 N.am      1 <0>        -0.6519
     23 H1         -1.0509    1.7613   -1.0705 H         1 <0>         0.1300
     24 H2          1.0357    3.0379   -1.3246 H         1 <0>         0.1322
     25 H3          3.2113    1.9310   -1.0747 H         1 <0>         0.1286
     26 H4         -0.9715   -0.6475   -0.5690 H         1 <0>         0.1138
     27 H5          1.1544   -4.1801    0.0573 H         1 <0>         0.1731
     28 H6         -0.9651   -2.0953    0.1024 H         1 <0>         0.4174
     29 H7          0.1276   -5.5365    0.1081 H         1 <0>         0.1425
     30 H8         -1.3830   -7.4701    0.2978 H         1 <0>         0.1515
     31 H9         -4.7366   -4.8425    0.5068 H         1 <0>         0.1511
     32 H10        -3.2341   -2.9014    0.3297 H         1 <0>         0.1404
     33 H11        -3.9285   -7.4582    2.8192 H         1 <0>         0.4167
     34 H12        -4.9533   -8.7364    2.4468 H         1 <0>         0.4218
     35 H13         4.3721   -0.5834   -0.5366 H         1 <0>         0.4184
@<TRIPOS>BOND
     1    1    6 ar
     2    1    2 ar
     3    1   23 1
     4    2    3 ar
     5    2   24 1
     6    3    4 ar
     7    3   25 1
     8    4   22 1
     9    4    5 ar
    10    5    6 ar
    11    5    7 1
    12    6   26 1
    13    7    8 2
    14    7   20 1
    15    8    9 1
    16    8   27 1
    17    9   10 1
    18    9   28 1
    19   10   15 ar
    20   10   11 ar
    21   11   12 ar
    22   11   29 1
    23   12   13 ar
    24   12   30 1
    25   13   14 ar
    26   13   16 1
    27   14   15 ar
    28   14   31 1
    29   15   32 1
    30   16   17 2
    31   16   18 2
    32   16   19 1
    33   19   33 1
    34   19   34 1
    35   20   21 2
    36   20   22 am
    37   22   35 1
@<TRIPOS>MOLECULE
ZINC12354826
   35    37     0     0     0
SMALL
USER_CHARGES

@<TRIPOS>ATOM
      1 C1         -0.0166    1.3740    0.0096 C.ar      1 <0>        -0.1262
      2 C2          1.1717    2.0891    0.0021 C.ar      1 <0>        -0.0996
      3 C3          2.3849    1.4346   -0.0130 C.ar      1 <0>        -0.1167
      4 C4          2.4245    0.0447   -0.0208 C.ar      1 <0>         0.0948
      5 C5          1.2211   -0.6772   -0.0131 C.ar      1 <0>        -0.0639
      6 C6          0.0021   -0.0041    0.0020 C.ar      1 <0>        -0.0811
      7 C7          1.5989   -2.1038   -0.0244 C.2       1 <0>        -0.2027
      8 C8          2.9847   -2.1380   -0.0377 C.2       1 <0>         0.3558
      9 N1          3.4655   -0.8664   -0.0355 N.pl3     1 <0>        -0.5871
     10 H1          4.4064   -0.6309   -0.0437 H         1 <0>         0.4202
     11 O1          3.7395   -3.2597   -0.0509 O.3       1 <0>        -0.4446
     12 C9          0.7212   -3.2156   -0.0215 C.2       1 <0>         0.2671
     13 N2          1.2056   -4.4321   -0.0327 N.2       1 <0>        -0.5143
     14 C10         0.3578   -5.5060   -0.0299 C.ar      1 <0>         0.1659
     15 C11        -0.7421   -5.5295    0.8308 C.ar      1 <0>        -0.1855
     16 C12        -1.5929   -6.6152    0.8278 C.ar      1 <0>         0.0026
     17 C13        -1.3588   -7.6794   -0.0250 C.ar      1 <0>        -0.6961
     18 C14        -0.2709   -7.6631   -0.8800 C.ar      1 <0>        -0.0022
     19 C15         0.5849   -6.5815   -0.8919 C.ar      1 <0>        -0.1374
     20 S1         -2.4509   -9.0621   -0.0219 S.o2      1 <0>         2.7029
     21 O2         -1.7090  -10.1668   -0.5204 O.2       1 <0>        -0.9645
     22 O3         -3.0803   -9.0797    1.2520 O.2       1 <0>        -0.9649
     23 N3         -3.6390   -8.7502   -1.1325 N.pl3     1 <0>        -1.2507
     24 H2         -0.9602    1.8991    0.0259 H         1 <0>         0.1294
     25 H3          1.1463    3.1688    0.0077 H         1 <0>         0.1312
     26 H4          3.3043    2.0013   -0.0191 H         1 <0>         0.1257
     27 H5         -0.9243   -0.5593    0.0082 H         1 <0>         0.1274
     28 H6         -0.3474   -3.0599   -0.0101 H         1 <0>         0.1107
     29 H7         -0.9258   -4.6997    1.4972 H         1 <0>         0.1325
     30 H8         -2.4435   -6.6349    1.4930 H         1 <0>         0.1437
     31 H9         -0.0941   -8.4973   -1.5428 H         1 <0>         0.1461
     32 H10         1.4310   -6.5681   -1.5629 H         1 <0>         0.1378
     33 H11        -3.6285   -7.9198   -1.6337 H         1 <0>         0.4163
     34 H12        -4.3455   -9.3979   -1.2819 H         1 <0>         0.4208
     35 H13         3.9507   -3.5813   -0.9381 H         1 <0>         0.4066
@<TRIPOS>BOND
     1    1    6 ar
     2    1    2 ar
     3    1   24 1
     4    2    3 ar
     5    2   25 1
     6    3    4 ar
     7    3   26 1
     8    4    9 1
     9    4    5 ar
    10    5    6 ar
    11    5    7 1
    12    6   27 1
    13    7    8 2
    14    7   12 1
    15    8    9 1
    16    8   11 1
    17    9   10 1
    18   11   35 1
    19   12   13 2
    20   12   28 1
    21   13   14 1
    22   14   19 ar
    23   14   15 ar
    24   15   16 ar
    25   15   29 1
    26   16   17 ar
    27   16   30 1
    28   17   18 ar
    29   17   20 1
    30   18   19 ar
    31   18   31 1
    32   19   32 1
    33   20   21 2
    34   20   22 2
    35   20   23 1
    36   23   33 1
    37   23   34 1
@<TRIPOS>MOLECULE
ZINC03873285
   35    37     0     0     0
SMALL
USER_CHARGES

@<TRIPOS>ATOM
      1 C1         -0.0126    1.0758    0.0080 C.2       1 <0>         0.2458
      2 N1         -1.0879    1.8075    0.0278 N.2       1 <0>        -0.4437
      3 H1          2.0169    1.5751   -0.0093 H         1 <0>         0.4321
      4 C2         -0.7417    3.1187    0.0304 C.ar      1 <0>        -0.1173
      5 C3          0.6623    3.1759    0.0104 C.ar      1 <0>         0.3458
      6 N2          1.0941    1.8737    0.0017 N.pl3     1 <0>        -0.5824
      7 N3          1.2618    4.3618    0.0086 N.ar      1 <0>        -0.5978
      8 C4          0.5483    5.4757    0.0254 C.ar      1 <0>         0.6265
      9 N4         -0.7789    5.4662    0.0446 N.ar      1 <0>        -0.6206
     10 C5         -1.4569    4.3263    0.0478 C.ar      1 <0>         0.4766
     11 O1         -2.8114    4.3275    0.0679 O.3       1 <0>        -0.2772
     12 C6         -3.4589    5.6013    0.0847 C.3       1 <0>         0.0692
     13 C7         -4.9757    5.4021    0.1061 C.3       1 <0>        -0.0870
     14 C8         -5.4214    4.7387   -1.1986 C.3       1 <0>        -0.1149
     15 C9         -6.9382    4.5395   -1.1772 C.3       1 <0>        -0.1199
     16 C10        -7.6289    5.8972   -1.0336 C.3       1 <0>        -0.1220
     17 C11        -7.1832    6.5607    0.2711 C.3       1 <0>        -0.1180
     18 C12        -5.6663    6.7598    0.2497 C.3       1 <0>        -0.1110
     19 N5          1.2087    6.6933    0.0233 N.pl3     1 <0>        -0.8136
     20 H2          0.0021   -0.0041    0.0020 H         1 <0>         0.2282
     21 H3         -3.1523    6.1530    0.9734 H         1 <0>         0.0718
     22 H4         -3.1787    6.1630   -0.8064 H         1 <0>         0.0719
     23 H5         -5.2468    4.7657    0.9484 H         1 <0>         0.0826
     24 H6         -5.1503    5.3751   -2.0409 H         1 <0>         0.0612
     25 H7         -4.9294    3.7714   -1.3009 H         1 <0>         0.0704
     26 H8         -7.2558    4.0669   -2.1067 H         1 <0>         0.0627
     27 H9         -7.2093    3.9031   -0.3349 H         1 <0>         0.0628
     28 H10        -7.3578    6.5337   -1.8759 H         1 <0>         0.0615
     29 H11        -8.7095    5.7554   -1.0184 H         1 <0>         0.0617
     30 H12        -7.6752    7.5279    0.3734 H         1 <0>         0.0646
     31 H13        -7.4542    5.9242    1.1134 H         1 <0>         0.0634
     32 H14        -5.3488    7.2324    1.1792 H         1 <0>         0.0656
     33 H15        -5.3953    7.3962   -0.5926 H         1 <0>         0.0661
     34 H16         0.7015    7.5201    0.0355 H         1 <0>         0.4177
     35 H17         2.1782    6.7192    0.0098 H         1 <0>         0.4174
@<TRIPOS>BOND
     1    1   20 1
     2    1    6 1
     3    1    2 2
     4    2    4 1
     5    3    6 1
     6    4    5 ar
     7    4   10 ar
     8    5    6 1
     9    5    7 ar
    10    7    8 ar
    11    8    9 ar
    12    8   19 1
    13    9   10 ar
    14   10   11 1
    15   11   12 1
    16   12   13 1
    17   12   21 1
    18   12   22 1
    19   13   18 1
    20   13   14 1
    21   13   23 1
    22   14   15 1
    23   14   24 1
    24   14   25 1
    25   15   16 1
    26   15   26 1
    27   15   27 1
    28   16   17 1
    29   16   28 1
    30   16   29 1
    31   17   18 1
    32   17   30 1
    33   17   31 1
    34   18   32 1
    35   18   33 1
    36   19   35 1
    37   19   34 1
@<TRIPOS>MOLECULE
ZINC03873285
   36    38     0     0     0
SMALL
USER_CHARGES

@<TRIPOS>ATOM
      1 C1         -0.0126    1.0758    0.0080 C.2       1 <0>         0.3100
      2 N1         -1.0879    1.8075    0.0278 N.2       1 <0>        -0.4318
      3 H1          2.0169    1.5751   -0.0093 H         1 <0>         0.4527
      4 C2         -0.7417    3.1187    0.0304 C.ar      1 <0>        -0.0738
      5 C3          0.6623    3.1759    0.0104 C.ar      1 <0>         0.3823
      6 N2          1.0941    1.8737    0.0017 N.pl3     1 <0>        -0.5585
      7 N3          1.2618    4.3618    0.0086 N.ar      1 <0>        -0.5166
      8 C4          0.5483    5.4757    0.0254 C.ar      1 <0>         0.6503
      9 N4         -0.7789    5.4662    0.0446 N.ar      1 <0>        -0.5806
     10 C5         -1.4569    4.3263    0.0478 C.ar      1 <0>         0.5087
     11 O1         -2.8114    4.3275    0.0679 O.3       1 <0>        -0.2368
     12 C6         -3.4589    5.6013    0.0847 C.3       1 <0>         0.0208
     13 C7         -4.9757    5.4021    0.1061 C.3       1 <0>        -0.0831
     14 C8         -5.4214    4.7387   -1.1986 C.3       1 <0>        -0.1190
     15 C9         -6.9382    4.5395   -1.1772 C.3       1 <0>        -0.1216
     16 C10        -7.6289    5.8972   -1.0336 C.3       1 <0>        -0.1256
     17 C11        -7.1832    6.5607    0.2711 C.3       1 <0>        -0.1201
     18 C12        -5.6663    6.7598    0.2497 C.3       1 <0>        -0.1129
     19 N5          1.2087    6.6933    0.0233 N.pl3     1 <0>        -0.7895
     20 H2          0.0021   -0.0041    0.0020 H         1 <0>         0.2544
     21 H3         -3.1523    6.1530    0.9734 H         1 <0>         0.0915
     22 H4         -3.1787    6.1630   -0.8064 H         1 <0>         0.0910
     23 H5         -5.2468    4.7657    0.9484 H         1 <0>         0.0971
     24 H6         -5.1503    5.3751   -2.0409 H         1 <0>         0.0655
     25 H7         -4.9294    3.7714   -1.3009 H         1 <0>         0.0716
     26 H8         -7.2558    4.0669   -2.1067 H         1 <0>         0.0699
     27 H9         -7.2093    3.9031   -0.3349 H         1 <0>         0.0670
     28 H10        -7.3578    6.5337   -1.8759 H         1 <0>         0.0639
     29 H11        -8.7095    5.7554   -1.0184 H         1 <0>         0.0693
     30 H12        -7.6752    7.5279    0.3734 H         1 <0>         0.0723
     31 H13        -7.4542    5.9242    1.1134 H         1 <0>         0.0678
     32 H14        -5.3488    7.2324    1.1792 H         1 <0>         0.0697
     33 H15        -5.3953    7.3962   -0.5926 H         1 <0>         0.0701
     34 H16         0.7015    7.5201    0.0355 H         1 <0>         0.4305
     35 H17         2.1782    6.7192    0.0098 H         1 <0>         0.4482
     36 H18        -1.2613    6.3076    0.0568 H         1 <0>         0.4451
@<TRIPOS>BOND
     1    1   20 1
     2    1    6 1
     3    1    2 2
     4    2    4 1
     5    3    6 1
     6    4    5 ar
     7    4   10 ar
     8    5    6 1
     9    5    7 ar
    10    7    8 ar
    11    8    9 ar
    12    8   19 1
    13    9   10 ar
    14    9   36 1
    15   10   11 1
    16   11   12 1
    17   12   13 1
    18   12   21 1
    19   12   22 1
    20   13   18 1
    21   13   14 1
    22   13   23 1
    23   14   15 1
    24   14   24 1
    25   14   25 1
    26   15   16 1
    27   15   26 1
    28   15   27 1
    29   16   17 1
    30   16   28 1
    31   16   29 1
    32   17   18 1
    33   17   30 1
    34   17   31 1
    35   18   32 1
    36   18   33 1
    37   19   35 1
    38   19   34 1
@<TRIPOS>MOLECULE
ZINC13470446
   37    39     0     0     0
SMALL
USER_CHARGES

@<TRIPOS>ATOM
      1 C1          1.0252    1.4117    0.0288 C.3       1 <0>        -0.1151
      2 C2          0.7422   -0.0684    0.0151 C.ar      1 <0>        -0.0980
      3 C3          0.6598   -0.7456   -1.1901 C.ar      1 <0>        -0.0730
      4 C4          0.4013   -2.1009   -1.2187 C.ar      1 <0>        -0.1251
      5 C5          0.2204   -2.8021   -0.0313 C.ar      1 <0>         0.1592
      6 C6          0.3051   -2.1133    1.1856 C.ar      1 <0>        -0.1378
      7 C7          0.5712   -0.7486    1.2040 C.ar      1 <0>        -0.0721
      8 C8          0.0719   -3.1162    2.2503 C.2       1 <0>        -0.0019
      9 N1          0.0593   -2.9159    3.5492 N.2       1 <0>        -0.1181
     10 N2          0.1418   -1.7169    4.0177 N.pl3     1 <0>        -0.4948
     11 C9          0.2505   -1.5114    5.3935 C.ar      1 <0>         0.2272
     12 C10         0.2758   -2.5976    6.2603 C.ar      1 <0>        -0.1583
     13 C11         0.3839   -2.3904    7.6211 C.ar      1 <0>         0.0119
     14 C12         0.4670   -1.1039    8.1220 C.ar      1 <0>        -0.7034
     15 C13         0.4417   -0.0206    7.2626 C.ar      1 <0>         0.0198
     16 C14         0.3396   -0.2202    5.9001 C.ar      1 <0>        -0.1797
     17 S1          0.6049   -0.8445    9.8593 S.o2      1 <0>         2.7048
     18 O1          0.1180    0.4660   10.1142 O.2       1 <0>        -0.9627
     19 O2          0.0574   -1.9960   10.4866 O.2       1 <0>        -0.9591
     20 N3          2.2199   -0.8288   10.2254 N.pl3     1 <0>        -1.2484
     21 C15        -0.1436   -4.3865    1.5371 C.2       1 <0>         0.5940
     22 O3         -0.3702   -5.4668    2.0510 O.2       1 <0>        -0.4813
     23 N4         -0.0460   -4.1432    0.2190 N.am      1 <0>        -0.6478
     24 H1          2.1022    1.5754    0.0668 H         1 <0>         0.0744
     25 H2          0.6200    1.8675   -0.8746 H         1 <0>         0.0727
     26 H3          0.5581    1.8629    0.9043 H         1 <0>         0.0670
     27 H4          0.7987   -0.2080   -2.1164 H         1 <0>         0.1377
     28 H5          0.3390   -2.6179   -2.1648 H         1 <0>         0.1360
     29 H6          0.6393   -0.2221    2.1446 H         1 <0>         0.1164
     30 H7          0.1283   -0.9581    3.4135 H         1 <0>         0.3955
     31 H8          0.2106   -3.6025    5.8699 H         1 <0>         0.1510
     32 H9          0.4033   -3.2339    8.2953 H         1 <0>         0.1514
     33 H10         0.5065    0.9826    7.6574 H         1 <0>         0.1517
     34 H11         0.3248    0.6261    5.2293 H         1 <0>         0.1396
     35 H12         2.5431   -0.2990   10.9709 H         1 <0>         0.4221
     36 H13         2.8426   -1.3494    9.6943 H         1 <0>         0.4173
     37 H14        -0.1489   -4.8178   -0.4703 H         1 <0>         0.4269
@<TRIPOS>BOND
     1    1    2 1
     2    1   24 1
     3    1   25 1
     4    1   26 1
     5    2    7 ar
     6    2    3 ar
     7    3    4 ar
     8    3   27 1
     9    4    5 ar
    10    4   28 1
    11    5   23 1
    12    5    6 ar
    13    6    7 ar
    14    6    8 1
    15    7   29 1
    16    8    9 2
    17    8   21 1
    18    9   10 1
    19   10   11 1
    20   10   30 1
    21   11   16 ar
    22   11   12 ar
    23   12   13 ar
    24   12   31 1
    25   13   14 ar
    26   13   32 1
    27   14   15 ar
    28   14   17 1
    29   15   16 ar
    30   15   33 1
    31   16   34 1
    32   17   18 2
    33   17   19 2
    34   17   20 1
    35   20   35 1
    36   20   36 1
    37   21   22 2
    38   21   23 am
    39   23   37 1
@<TRIPOS>MOLECULE
ZINC01641925
   40    42     0     0     0
SMALL
USER_CHARGES

@<TRIPOS>ATOM
      1 C1         -0.0178    1.4608    0.0101 C.3       1 <0>         0.0831
      2 N1          0.0021   -0.0041    0.0020 N.pl3     1 <0>        -0.4808
      3 C2          0.0085   -0.8054   -1.1023 C.2       1 <0>         0.2308
      4 N2          0.0274   -2.0557   -0.7436 N.2       1 <0>        -0.4545
      5 C3          0.0343   -2.1368    0.6098 C.ar      1 <0>        -0.1554
      6 C4          0.0236   -0.8217    1.1034 C.ar      1 <0>         0.3460
      7 N3          0.0327   -0.6231    2.4177 N.ar      1 <0>        -0.6159
      8 C5          0.0544   -1.6488    3.2534 C.ar      1 <0>         0.6298
      9 N4          0.0680   -2.9065    2.8307 N.ar      1 <0>        -0.6237
     10 C6          0.0525   -3.1954    1.5342 C.ar      1 <0>         0.5415
     11 N5          0.0685   -4.5100    1.1029 N.pl3     1 <0>        -0.6890
     12 C7          0.0874   -5.6013    2.0801 C.3       1 <0>         0.1707
     13 C8          0.1022   -6.9232    1.3567 C.ar      1 <0>        -0.1135
     14 C9         -1.0881   -7.5430    1.0249 C.ar      1 <0>        -0.0983
     15 C10        -1.0745   -8.7555    0.3613 C.ar      1 <0>        -0.1220
     16 C11         0.1294   -9.3482    0.0290 C.ar      1 <0>        -0.1103
     17 C12         1.3196   -8.7280    0.3600 C.ar      1 <0>        -0.1222
     18 C13         1.3060   -7.5133    1.0198 C.ar      1 <0>        -0.0984
     19 N6          0.0637   -1.4010    4.6162 N.pl3     1 <0>        -0.6906
     20 C14         0.0877   -2.5182    5.5636 C.3       1 <0>         0.1417
     21 C15         0.0936   -1.9741    6.9936 C.3       1 <0>         0.0611
     22 O1         -1.1346   -1.2892    7.2477 O.3       1 <0>        -0.5709
     23 H1          1.0048    1.8381    0.0023 H         1 <0>         0.0748
     24 H2         -0.5450    1.8219   -0.8730 H         1 <0>         0.0893
     25 H3         -0.5280    1.8123    0.9069 H         1 <0>         0.0882
     26 H4         -0.0013   -0.4536   -2.1234 H         1 <0>         0.2190
     27 H5          0.0672   -4.7091    0.1536 H         1 <0>         0.4197
     28 H6          0.9790   -5.5172    2.7015 H         1 <0>         0.0778
     29 H7         -0.8008   -5.5413    2.7091 H         1 <0>         0.0779
     30 H8         -2.0286   -7.0800    1.2846 H         1 <0>         0.1238
     31 H9         -2.0044   -9.2401    0.1028 H         1 <0>         0.1245
     32 H10         0.1400  -10.2958   -0.4888 H         1 <0>         0.1237
     33 H11         2.2602   -9.1911    0.1006 H         1 <0>         0.1244
     34 H12         2.2359   -7.0270    1.2750 H         1 <0>         0.1237
     35 H13         0.0543   -0.4879    4.9432 H         1 <0>         0.4161
     36 H14        -0.7954   -3.1397    5.4150 H         1 <0>         0.0745
     37 H15         0.9844   -3.1155    5.3984 H         1 <0>         0.0812
     38 H16         0.2009   -2.8004    7.6963 H         1 <0>         0.0659
     39 H17         0.9273   -1.2826    7.1158 H         1 <0>         0.0536
     40 H18        -1.2006   -0.9172    8.1379 H         1 <0>         0.3829
@<TRIPOS>BOND
     1    1    2 1
     2    1   23 1
     3    1   24 1
     4    1   25 1
     5    2    6 1
     6    2    3 1
     7    3    4 2
     8    3   26 1
     9    4    5 1
    10    5   10 ar
    11    5    6 ar
    12    6    7 ar
    13    7    8 ar
    14    8    9 ar
    15    8   19 1
    16    9   10 ar
    17   10   11 1
    18   11   12 1
    19   11   27 1
    20   12   13 1
    21   12   28 1
    22   12   29 1
    23   13   18 ar
    24   13   14 ar
    25   14   15 ar
    26   14   30 1
    27   15   16 ar
    28   15   31 1
    29   16   17 ar
    30   16   32 1
    31   17   18 ar
    32   17   33 1
    33   18   34 1
    34   19   20 1
    35   19   35 1
    36   20   21 1
    37   20   36 1
    38   20   37 1
    39   21   22 1
    40   21   38 1
    41   21   39 1
    42   22   40 1
@<TRIPOS>MOLECULE
ZINC00027361
   25    26     0     0     0
SMALL
USER_CHARGES

@<TRIPOS>ATOM
      1 C1         -0.0178    1.4608    0.0101 C.3       1 <0>         0.1357
      2 N1          0.0021   -0.0041    0.0020 N.am      1 <0>        -0.6248
      3 C2         -1.0449   -0.8567    0.0019 C.2       1 <0>         0.6732
      4 O1         -2.1925   -0.4520    0.0087 O.2       1 <0>        -0.5165
      5 N2         -0.7693   -2.1544   -0.0063 N.am      1 <0>        -0.5753
      6 C3          0.5347   -2.5056   -0.0139 C.2       1 <0>         0.4694
      7 O2          1.0169   -3.6232   -0.0227 O.2       1 <0>        -0.4283
      8 S1          1.3293   -1.0262   -0.0167 S.3       1 <0>         0.2579
      9 C4         -1.8327   -3.1620   -0.0067 C.3       1 <0>         0.1592
     10 C5         -2.2040   -3.4999   -1.4276 C.ar      1 <0>        -0.1254
     11 C6         -3.1939   -2.7823   -2.0726 C.ar      1 <0>        -0.0909
     12 C7         -3.5345   -3.0922   -3.3760 C.ar      1 <0>        -0.1249
     13 C8         -2.8850   -4.1196   -4.0345 C.ar      1 <0>        -0.1064
     14 C9         -1.8945   -4.8367   -3.3897 C.ar      1 <0>        -0.1240
     15 C10        -1.5510   -4.5239   -2.0878 C.ar      1 <0>        -0.0951
     16 H1          1.0048    1.8381    0.0023 H         1 <0>         0.0973
     17 H2         -0.5450    1.8219   -0.8730 H         1 <0>         0.0830
     18 H3         -0.5280    1.8123    0.9069 H         1 <0>         0.0838
     19 H4         -1.4819   -4.0607    0.5007 H         1 <0>         0.1095
     20 H5         -2.7061   -2.7687    0.5134 H         1 <0>         0.1105
     21 H6         -3.7013   -1.9796   -1.5582 H         1 <0>         0.1288
     22 H7         -4.3083   -2.5320   -3.8797 H         1 <0>         0.1253
     23 H8         -3.1516   -4.3622   -5.0525 H         1 <0>         0.1249
     24 H9         -1.3873   -5.6395   -3.9041 H         1 <0>         0.1260
     25 H10        -0.7746   -5.0817   -1.5853 H         1 <0>         0.1272
@<TRIPOS>BOND
     1    1    2 1
     2    1   16 1
     3    1   17 1
     4    1   18 1
     5    2    8 1
     6    2    3 am
     7    3    4 2
     8    3    5 am
     9    5    6 am
    10    5    9 1
    11    6    7 2
    12    6    8 1
    13    9   10 1
    14    9   19 1
    15    9   20 1
    16   10   15 ar
    17   10   11 ar
    18   11   12 ar
    19   11   21 1
    20   12   13 ar
    21   12   22 1
    22   13   14 ar
    23   13   23 1
    24   14   15 ar
    25   14   24 1
    26   15   25 1
