@<TRIPOS>MOLECULE
ZINC12354765
   28    30     0     0     0
SMALL
USER_CHARGES
4-(2-methylimidazo[3,2-a]pyridin-3-yl)pyrimidin-2-amine
@<TRIPOS>ATOM
      1 C1          3.5656    3.8455    1.0626 C.3       1 <0>        -0.0694
      2 C2          2.2678    4.3306    0.4698 C.2       1 <0>         0.1403
      3 C3          1.2424    3.5327    0.0087 C.2       1 <0>        -0.0674
      4 N1          0.2584    4.3822   -0.4500 N.pl3     1 <0>        -0.3420
      5 C4         -0.9672    4.1572   -1.0002 C.2       1 <0>         0.0505
      6 C5         -1.7575    5.1902   -1.3662 C.2       1 <0>        -0.1360
      7 C6         -1.3244    6.5115   -1.1777 C.2       1 <0>        -0.0922
      8 C7         -0.1031    6.7478   -0.6238 C.2       1 <0>        -0.0816
      9 C8          0.7072    5.6594   -0.2484 C.2       1 <0>         0.2457
     10 N2          1.9158    5.5998    0.3016 N.2       1 <0>        -0.4945
     11 C9          1.2078    2.0604    0.0016 C.ar      1 <0>         0.3129
     12 C10        -0.0166    1.3760    0.0096 C.ar      1 <0>        -0.3029
     13 C11         0.0021   -0.0041    0.0020 C.ar      1 <0>         0.2056
     14 N3          1.1663   -0.6378   -0.0125 N.ar      1 <0>        -0.5783
     15 C12         2.3096    0.0321   -0.0198 C.ar      1 <0>         0.5784
     16 N4          2.3410    1.3552   -0.0126 N.ar      1 <0>        -0.5602
     17 N5          3.5022   -0.6703   -0.0350 N.pl3     1 <0>        -0.8184
     18 H1          4.3037    3.7228    0.2700 H         1 <0>         0.0831
     19 H2          3.9287    4.5740    1.7876 H         1 <0>         0.0746
     20 H3          3.4032    2.8888    1.5590 H         1 <0>         0.0801
     21 H4         -1.3088    3.1435   -1.1490 H         1 <0>         0.1672
     22 H5         -2.7253    4.9983   -1.8055 H         1 <0>         0.1564
     23 H6         -1.9563    7.3368   -1.4708 H         1 <0>         0.1484
     24 H7          0.2409    7.7606   -0.4743 H         1 <0>         0.1570
     25 H8         -0.9518    1.9161    0.0170 H         1 <0>         0.1390
     26 H9         -0.9226   -0.5621    0.0082 H         1 <0>         0.1713
     27 H10         3.4938   -1.6402   -0.0401 H         1 <0>         0.4166
     28 H11         4.3464   -0.1925   -0.0405 H         1 <0>         0.4159
@<TRIPOS>BOND
     1    1    2 1
     2    1   18 1
     3    1   19 1
     4    1   20 1
     5    2   10 1
     6    2    3 2
     7    3    4 1
     8    3   11 1
     9    4    9 1
    10    4    5 1
    11    5    6 2
    12    5   21 1
    13    6    7 1
    14    6   22 1
    15    7    8 2
    16    7   23 1
    17    8    9 1
    18    8   24 1
    19    9   10 2
    20   11   16 ar
    21   11   12 ar
    22   12   13 ar
    23   12   25 1
    24   13   14 ar
    25   13   26 1
    26   14   15 ar
    27   15   16 ar
    28   15   17 1
    29   17   27 1
    30   17   28 1
@<TRIPOS>MOLECULE
ZINC12354765
   29    31     0     0     0
SMALL
USER_CHARGES
4-(2-methylimidazo[3,2-a]pyridin-3-yl)pyrimidin-2-amine
@<TRIPOS>ATOM
      1 C1          3.5656    3.8455    1.0626 C.3       1 <0>        -0.1006
      2 C2          2.2678    4.3306    0.4698 C.2       1 <0>         0.1678
      3 C3          1.2424    3.5327    0.0087 C.2       1 <0>         0.0170
      4 N1          0.2584    4.3822   -0.4500 N.pl3     1 <0>        -0.3094
      5 C4         -0.9672    4.1572   -1.0002 C.2       1 <0>         0.0767
      6 C5         -1.7575    5.1902   -1.3662 C.2       1 <0>        -0.1047
      7 C6         -1.3244    6.5115   -1.1777 C.2       1 <0>        -0.0194
      8 C7         -0.1031    6.7478   -0.6238 C.2       1 <0>        -0.1170
      9 C8          0.7072    5.6594   -0.2484 C.cat     1 <0>         0.3052
     10 C9          1.2078    2.0604    0.0016 C.ar      1 <0>         0.2772
     11 C10        -0.0166    1.3760    0.0096 C.ar      1 <0>        -0.2890
     12 C11         0.0021   -0.0041    0.0020 C.ar      1 <0>         0.2210
     13 N2          1.1663   -0.6378   -0.0125 N.ar      1 <0>        -0.5560
     14 C12         2.3096    0.0321   -0.0198 C.ar      1 <0>         0.5880
     15 N3          2.3410    1.3552   -0.0126 N.ar      1 <0>        -0.5567
     16 N4          3.5022   -0.6703   -0.0350 N.pl3     1 <0>        -0.8081
     17 H1          4.3037    3.7228    0.2700 H         1 <0>         0.1138
     18 H2          3.9287    4.5740    1.7876 H         1 <0>         0.0953
     19 H3          3.4032    2.8888    1.5590 H         1 <0>         0.1130
     20 H4         -1.3088    3.1435   -1.1490 H         1 <0>         0.1996
     21 H5         -2.7253    4.9983   -1.8055 H         1 <0>         0.1865
     22 H6         -1.9563    7.3368   -1.4708 H         1 <0>         0.1780
     23 H7          0.2409    7.7606   -0.4743 H         1 <0>         0.1828
     24 H8         -0.9518    1.9161    0.0170 H         1 <0>         0.1443
     25 H9         -0.9226   -0.5621    0.0082 H         1 <0>         0.1829
     26 H10         3.4938   -1.6402   -0.0401 H         1 <0>         0.4242
     27 H11         4.3464   -0.1925   -0.0405 H         1 <0>         0.4196
     28 N5          1.9164    5.6007    0.3019 N.pl3     1 <0>        -0.5122
     29 H12         2.4905    6.4126    0.5578 H         1 <0>         0.4801
@<TRIPOS>BOND
     1    1    2 1
     2    1   17 1
     3    1   18 1
     4    1   19 1
     5    2    3 2
     6    2   28 1
     7    3    4 1
     8    3   10 1
     9    4    9 1
    10    4    5 1
    11    5    6 2
    12    5   20 1
    13    6    7 1
    14    6   21 1
    15    7    8 2
    16    7   22 1
    17    8    9 1
    18    8   23 1
    19    9   28 2
    20   10   15 ar
    21   10   11 ar
    22   11   12 ar
    23   11   24 1
    24   12   13 ar
    25   12   25 1
    26   13   14 ar
    27   14   15 ar
    28   14   16 1
    29   16   26 1
    30   16   27 1
    31   28   29 1
@<TRIPOS>MOLECULE
ZINC01493890
   37    40     0     0     0
SMALL
USER_CHARGES

@<TRIPOS>ATOM
      1 C1         -0.0178    1.4608    0.0101 C.3       1 <0>         0.0734
      2 N1          0.0021   -0.0041    0.0020 N.pl3     1 <0>        -0.4737
      3 C2          0.0078   -0.7727   -1.1169 C.2       1 <0>         0.1075
      4 C3          0.0281   -2.0944   -0.7674 C.2       1 <0>        -0.1579
      5 C4          0.0354   -2.1366    0.7062 C.ar      1 <0>        -0.0717
      6 C5          0.0236   -0.7978    1.1309 C.ar      1 <0>         0.0936
      7 C6          0.0319   -0.5143    2.4922 C.ar      1 <0>        -0.1217
      8 C7          0.0548   -1.5434    3.4092 C.ar      1 <0>        -0.0984
      9 C8          0.0696   -2.8648    2.9882 C.ar      1 <0>        -0.1347
     10 C9          0.0537   -3.1664    1.6433 C.ar      1 <0>        -0.0758
     11 C10         0.0395   -3.2453   -1.6802 C.2       1 <0>         0.0076
     12 C11         1.1151   -3.7103   -2.4252 C.2       1 <0>        -0.0960
     13 C12         0.6209   -4.8797   -3.1750 C.2       1 <0>         0.5637
     14 O1          1.2771   -5.5582   -3.9404 O.2       1 <0>        -0.4429
     15 N2         -0.6738   -5.0723   -2.8722 N.am      1 <0>        -0.6877
     16 C13        -1.0937   -4.1509   -1.9885 C.2       1 <0>         0.5544
     17 O2         -2.2127   -4.0711   -1.5240 O.2       1 <0>        -0.4382
     18 C14         2.4796   -3.1466   -2.4599 C.ar      1 <0>        -0.0170
     19 C15         3.3545   -3.3599   -1.3914 C.ar      1 <0>        -0.0612
     20 C16         4.6271   -2.8314   -1.4301 C.ar      1 <0>        -0.1027
     21 C17         5.0400   -2.0893   -2.5251 C.ar      1 <0>        -0.0144
     22 C18         4.1789   -1.8735   -3.5878 C.ar      1 <0>        -0.1022
     23 C19         2.9039   -2.4018   -3.5647 C.ar      1 <0>        -0.0020
     24 Cl1         1.8274   -2.1362   -4.9005 Cl        1 <0>        -0.0460
     25 Cl2         6.6441   -1.4267   -2.5645 Cl        1 <0>        -0.0499
     26 H1          1.0048    1.8381    0.0023 H         1 <0>         0.0752
     27 H2         -0.5450    1.8219   -0.8730 H         1 <0>         0.0873
     28 H3         -0.5280    1.8123    0.9069 H         1 <0>         0.0858
     29 H4         -0.0026   -0.3972   -2.1295 H         1 <0>         0.1749
     30 H5          0.0209    0.5112    2.8309 H         1 <0>         0.1213
     31 H6          0.0616   -1.3185    4.4655 H         1 <0>         0.1280
     32 H7          0.0879   -3.6611    3.7175 H         1 <0>         0.1260
     33 H8          0.0668   -4.1961    1.3179 H         1 <0>         0.1197
     34 H9         -1.2273   -5.7803   -3.2375 H         1 <0>         0.4319
     35 H10         3.0343   -3.9374   -0.5368 H         1 <0>         0.1466
     36 H11         5.3039   -2.9958   -0.6047 H         1 <0>         0.1469
     37 H12         4.5068   -1.2939   -4.4381 H         1 <0>         0.1501
@<TRIPOS>BOND
     1    1    2 1
     2    1   26 1
     3    1   27 1
     4    1   28 1
     5    2    6 1
     6    2    3 1
     7    3    4 2
     8    3   29 1
     9    4    5 1
    10    4   11 1
    11    5   10 ar
    12    5    6 ar
    13    6    7 ar
    14    7    8 ar
    15    7   30 1
    16    8    9 ar
    17    8   31 1
    18    9   10 ar
    19    9   32 1
    20   10   33 1
    21   11   16 1
    22   11   12 2
    23   12   13 1
    24   12   18 1
    25   13   14 2
    26   13   15 am
    27   15   16 am
    28   15   34 1
    29   16   17 2
    30   18   23 ar
    31   18   19 ar
    32   19   20 ar
    33   19   35 1
    34   20   21 ar
    35   20   36 1
    36   21   22 ar
    37   21   25 1
    38   22   23 ar
    39   22   37 1
    40   23   24 1
@<TRIPOS>MOLECULE
ZINC05932684
   50    53     0     0     0
SMALL
USER_CHARGES
3-[3-[[(2S)-2,3-dihydroxypropyl]amino]phenyl]-4-(5-fluoro-1-methyl-indol-3-yl)pyrrole-2,5-dione
@<TRIPOS>ATOM
      1 C1          1.8520    4.5431    0.0093 C.3       1 <0>         0.0726
      2 N1          0.8716    3.4545    0.0123 N.pl3     1 <0>        -0.4693
      3 C2         -0.4742    3.6256    0.0261 C.2       1 <0>         0.1108
      4 C3         -1.0941    2.3952    0.0195 C.2       1 <0>        -0.1478
      5 C4         -0.0168    1.3885    0.0097 C.ar      1 <0>        -0.0457
      6 C5          1.1878    2.1100    0.0020 C.ar      1 <0>         0.0816
      7 C6          2.3956    1.4207   -0.0137 C.ar      1 <0>        -0.0897
      8 C7          2.4023    0.0424   -0.0211 C.ar      1 <0>        -0.1331
      9 C8          1.2107   -0.6707   -0.0131 C.ar      1 <0>         0.0833
     10 C9          0.0021   -0.0041    0.0020 C.ar      1 <0>        -0.1096
     11 F1          1.2344   -2.0214   -0.0206 F         1 <0>        -0.1388
     12 C10        -2.5397    2.1376    0.0230 C.2       1 <0>        -0.0174
     13 C11        -3.4166    2.2800   -1.0445 C.2       1 <0>        -0.0749
     14 C12        -4.7473    1.9011   -0.5367 C.2       1 <0>         0.5603
     15 O1         -5.7765    1.8987   -1.1830 O.2       1 <0>        -0.4467
     16 N2         -4.6360    1.5589    0.7576 N.am      1 <0>        -0.6894
     17 C13        -3.3599    1.6660    1.1659 C.2       1 <0>         0.5550
     18 O2         -2.9485    1.4209    2.2815 O.2       1 <0>        -0.4424
     19 C14        -3.0827    2.7229   -2.4137 C.ar      1 <0>         0.0137
     20 C15        -2.6250    4.0243   -2.6378 C.ar      1 <0>        -0.1476
     21 C16        -2.3089    4.4333   -3.9167 C.ar      1 <0>        -0.0706
     22 C17        -2.4532    3.5632   -4.9818 C.ar      1 <0>        -0.1871
     23 C18        -2.9132    2.2681   -4.7706 C.ar      1 <0>         0.2196
     24 C19        -3.2287    1.8450   -3.4888 C.ar      1 <0>        -0.1595
     25 N3         -3.0580    1.3936   -5.8502 N.pl3     1 <0>        -0.7407
     26 C20        -2.7246    1.8408   -7.2049 C.3       1 <0>         0.0967
     27 C21        -2.9706    0.6995   -8.1937 C.3       1 <0>         0.0964
     28 H1         -4.0196    0.4058   -8.1559 H         1 <0>         0.1125
     29 C22        -2.6224    1.1665   -9.6085 C.3       1 <0>         0.0474
     30 O3         -2.9614    0.1420  -10.5452 O.3       1 <0>        -0.5627
     31 O4         -2.1503   -0.4176   -7.8455 O.3       1 <0>        -0.5474
     32 H2          2.0857    4.8187   -1.0191 H         1 <0>         0.0769
     33 H3          1.4386    5.4058    0.5316 H         1 <0>         0.0888
     34 H4          2.7611    4.2147    0.5130 H         1 <0>         0.0861
     35 H5         -0.9814    4.5791    0.0355 H         1 <0>         0.1794
     36 H6          3.3282    1.9653   -0.0204 H         1 <0>         0.1325
     37 H7          3.3430   -0.4880   -0.0330 H         1 <0>         0.1410
     38 H8         -0.9241   -0.5595    0.0075 H         1 <0>         0.1323
     39 H9         -5.3732    1.2709    1.3184 H         1 <0>         0.4305
     40 H10        -2.5152    4.7084   -1.8094 H         1 <0>         0.1196
     41 H11        -1.9514    5.4381   -4.0874 H         1 <0>         0.1254
     42 H12        -2.2080    3.8907   -5.9813 H         1 <0>         0.1211
     43 H13        -3.5865    0.8396   -3.3228 H         1 <0>         0.1231
     44 H14        -3.3792    0.4903   -5.7030 H         1 <0>         0.4066
     45 H15        -3.3503    2.6929   -7.4705 H         1 <0>         0.0722
     46 H16        -1.6756    2.1345   -7.2427 H         1 <0>         0.0652
     47 H17        -3.1838    2.0715   -9.8408 H         1 <0>         0.0584
     48 H18        -1.5544    1.3757   -9.6695 H         1 <0>         0.0524
     49 H19        -2.7674    0.3699  -11.4648 H         1 <0>         0.3833
     50 H20        -1.2021   -0.2285   -7.8583 H         1 <0>         0.3759
@<TRIPOS>BOND
     1    1    2 1
     2    1   32 1
     3    1   33 1
     4    1   34 1
     5    2    6 1
     6    2    3 1
     7    3    4 2
     8    3   35 1
     9    4    5 1
    10    4   12 1
    11    5   10 ar
    12    5    6 ar
    13    6    7 ar
    14    7    8 ar
    15    7   36 1
    16    8    9 ar
    17    8   37 1
    18    9   10 ar
    19    9   11 1
    20   10   38 1
    21   12   17 1
    22   12   13 2
    23   13   14 1
    24   13   19 1
    25   14   15 2
    26   14   16 am
    27   16   17 am
    28   16   39 1
    29   17   18 2
    30   19   24 ar
    31   19   20 ar
    32   20   21 ar
    33   20   40 1
    34   21   22 ar
    35   21   41 1
    36   22   23 ar
    37   22   42 1
    38   23   24 ar
    39   23   25 1
    40   24   43 1
    41   25   26 1
    42   25   44 1
    43   26   27 1
    44   26   45 1
    45   26   46 1
    46   27   28 1
    47   27   29 1
    48   27   31 1
    49   29   30 1
    50   29   47 1
    51   29   48 1
    52   30   49 1
    53   31   50 1
@<TRIPOS>MOLECULE
ZINC12501080
   50    53     0     0     0
SMALL
USER_CHARGES
3-[3-[[(2R)-2,3-dihydroxypropyl]amino]phenyl]-4-(5-fluoro-1-methyl-indol-3-yl)pyrrole-2,5-dione
@<TRIPOS>ATOM
      1 C1          7.9960    8.6641    5.2309 C.3       1 <0>         0.0725
      2 N1          6.7497    9.1520    4.6353 N.pl3     1 <0>        -0.4693
      3 C2          6.6022    9.5111    3.3353 C.2       1 <0>         0.1109
      4 C3          5.3062    9.9245    3.1168 C.2       1 <0>        -0.1479
      5 C4          4.6061    9.7932    4.4078 C.ar      1 <0>        -0.0456
      6 C5          5.5586    9.3064    5.3175 C.ar      1 <0>         0.0816
      7 C6          5.1867    9.0788    6.6381 C.ar      1 <0>        -0.0896
      8 C7          3.8932    9.3299    7.0426 C.ar      1 <0>        -0.1332
      9 C8          2.9516    9.8113    6.1425 C.ar      1 <0>         0.0831
     10 C9          3.3022   10.0438    4.8279 C.ar      1 <0>        -0.1098
     11 F1          1.6878   10.0524    6.5549 F         1 <0>        -0.1389
     12 C10         4.7345   10.3959    1.8492 C.2       1 <0>        -0.0174
     13 C11         4.3897    9.6221    0.7487 C.2       1 <0>        -0.0750
     14 C12         3.8564   10.5555   -0.2594 C.2       1 <0>         0.5602
     15 O1          3.4446   10.2476   -1.3606 O.2       1 <0>        -0.4463
     16 N2          3.8999   11.8025    0.2386 N.am      1 <0>        -0.6894
     17 C13         4.4103   11.7964    1.4819 C.2       1 <0>         0.5551
     18 O2          4.5743   12.7713    2.1867 O.2       1 <0>        -0.4425
     19 C14         4.5245    8.1568    0.6175 C.ar      1 <0>         0.0137
     20 C15         5.7914    7.5666    0.6147 C.ar      1 <0>        -0.1477
     21 C16         5.9142    6.1981    0.4924 C.ar      1 <0>        -0.0706
     22 C17         4.7870    5.4053    0.3777 C.ar      1 <0>        -0.1870
     23 C18         3.5222    5.9828    0.3740 C.ar      1 <0>         0.2196
     24 C19         3.3872    7.3570    0.4963 C.ar      1 <0>        -0.1595
     25 N3          2.3871    5.1776    0.2529 N.pl3     1 <0>        -0.7410
     26 C20         2.5297    3.7253    0.1236 C.3       1 <0>         0.0972
     27 C21         1.1449    3.0852    0.0077 C.3       1 <0>         0.0964
     28 H1          0.5324    3.3879    0.8570 H         1 <0>         0.1122
     29 C22         1.2864    1.5618   -0.0018 C.3       1 <0>         0.0474
     30 O3         -0.0110    0.9628    0.0073 O.3       1 <0>        -0.5628
     31 O4          0.5223    3.5133   -1.2052 O.3       1 <0>        -0.5475
     32 H2          8.0425    7.5790    5.1383 H         1 <0>         0.0768
     33 H3          8.8452    9.1096    4.7126 H         1 <0>         0.0889
     34 H4          8.0278    8.9405    6.2848 H         1 <0>         0.0863
     35 H5          7.3811    9.4801    2.5878 H         1 <0>         0.1794
     36 H6          5.9110    8.7045    7.3464 H         1 <0>         0.1325
     37 H7          3.6094    9.1511    8.0692 H         1 <0>         0.1410
     38 H8          2.5690   10.4178    4.1286 H         1 <0>         0.1323
     39 H9          3.6042   12.5966   -0.2335 H         1 <0>         0.4306
     40 H10         6.6741    8.1818    0.7086 H         1 <0>         0.1196
     41 H11         6.8941    5.7438    0.4905 H         1 <0>         0.1255
     42 H12         4.8896    4.3340    0.2864 H         1 <0>         0.1211
     43 H13         2.4055    7.8070    0.4981 H         1 <0>         0.1231
     44 H14         1.5046    5.5800    0.2544 H         1 <0>         0.4060
     45 H15         3.0400    3.3307    1.0023 H         1 <0>         0.0714
     46 H16         3.1121    3.4953   -0.7686 H         1 <0>         0.0663
     47 H17         1.8401    1.2428    0.8812 H         1 <0>         0.0582
     48 H18         1.8231    1.2523   -0.8987 H         1 <0>         0.0528
     49 H19         0.0021   -0.0041    0.0020 H         1 <0>         0.3833
     50 H20         1.0134    3.2774   -2.0040 H         1 <0>         0.3762
@<TRIPOS>BOND
     1    1    2 1
     2    1   32 1
     3    1   33 1
     4    1   34 1
     5    2    6 1
     6    2    3 1
     7    3    4 2
     8    3   35 1
     9    4    5 1
    10    4   12 1
    11    5   10 ar
    12    5    6 ar
    13    6    7 ar
    14    7    8 ar
    15    7   36 1
    16    8    9 ar
    17    8   37 1
    18    9   10 ar
    19    9   11 1
    20   10   38 1
    21   12   17 1
    22   12   13 2
    23   13   14 1
    24   13   19 1
    25   14   15 2
    26   14   16 am
    27   16   17 am
    28   16   39 1
    29   17   18 2
    30   19   24 ar
    31   19   20 ar
    32   20   21 ar
    33   20   40 1
    34   21   22 ar
    35   21   41 1
    36   22   23 ar
    37   22   42 1
    38   23   24 ar
    39   23   25 1
    40   24   43 1
    41   25   26 1
    42   25   44 1
    43   26   27 1
    44   26   45 1
    45   26   46 1
    46   27   28 1
    47   27   29 1
    48   27   31 1
    49   29   30 1
    50   29   47 1
    51   29   48 1
    52   30   49 1
    53   31   50 1
@<TRIPOS>MOLECULE
ZINC49113058
   62    66     0     0     0
SMALL
USER_CHARGES

@<TRIPOS>ATOM
      1 C1          0.0280    1.1038   -0.0577 C.3       1 <0>         0.0862
      2 N1          0.7835   -0.1512   -0.0345 N.pl3     1 <0>        -0.2368
      3 C2          1.2848   -0.7741   -1.1183 C.2       1 <0>         0.0233
      4 C3          1.9409   -1.9003   -0.6679 C.2       1 <0>        -0.1001
      5 C4          1.7732   -1.9052    0.7170 C.2       1 <0>        -0.0127
      6 N2          1.0739   -0.8239    1.0284 N.2       1 <0>        -0.2422
      7 C5          2.2840   -2.9218    1.6595 C.2       1 <0>         0.6112
      8 O1          2.9205   -3.8706    1.2439 O.2       1 <0>        -0.5290
      9 N3          2.0445   -2.7974    2.9799 N.am      1 <0>        -0.8394
     10 C6          2.6653   -2.8356   -1.5916 C.3       1 <0>        -0.0520
     11 C7          1.9706   -2.8582   -2.9533 C.3       1 <0>        -0.0643
     12 C8          1.6241   -1.4832   -3.4453 C.ar      1 <0>        -0.2117
     13 C9          1.2621   -0.4598   -2.5570 C.ar      1 <0>         0.2994
     14 N4          0.9247    0.7321   -3.0254 N.ar      1 <0>        -0.5525
     15 C10         0.9505    0.9653   -4.3312 C.ar      1 <0>         0.5639
     16 N5          1.3106    0.0280   -5.1962 N.ar      1 <0>        -0.5606
     17 C11         1.6470   -1.1890   -4.7955 C.ar      1 <0>         0.1918
     18 N6          0.5923    2.2177   -4.8015 N.pl3     1 <0>        -0.6275
     19 C12         0.6747    2.5016   -6.1704 C.ar      1 <0>         0.1841
     20 C13         0.4057    1.5105   -7.1026 C.ar      1 <0>        -0.1464
     21 C14         0.4877    1.7952   -8.4585 C.ar      1 <0>         0.1793
     22 C15         0.8392    3.0707   -8.8806 C.ar      1 <0>        -0.1627
     23 C16         1.1079    4.0588   -7.9520 C.ar      1 <0>        -0.1427
     24 C17         1.0213    3.7812   -6.5979 C.ar      1 <0>         0.0684
     25 O2          1.2802    4.7569   -5.6851 O.3       1 <0>        -0.3185
     26 C18         1.6295    6.0455   -6.1944 C.3       1 <0>         0.0285
     27 N7          0.2167    0.7966   -9.4005 N.pl3     1 <0>        -0.6423
     28 C19        -0.2961   -0.5176   -8.9834 C.3       1 <0>         0.1029
     29 C20        -1.5309   -0.8477   -9.8284 C.3       1 <0>        -0.0239
     30 N8         -1.1869   -0.7557  -11.2529 N.4       1 <0>        -0.3833
     31 C21        -0.8335    0.6282  -11.5936 C.3       1 <0>        -0.0233
     32 C22         0.4306    1.0333  -10.8366 C.3       1 <0>         0.1008
     33 C23        -2.3384   -1.1783  -12.0612 C.3       1 <0>        -0.0471
     34 H1          0.7164    1.9440    0.0325 H         1 <0>         0.0931
     35 H2         -0.5188    1.1813   -0.9975 H         1 <0>         0.1027
     36 H3         -0.6758    1.1196    0.7745 H         1 <0>         0.1007
     37 H4          1.5366   -2.0404    3.3115 H         1 <0>         0.4084
     38 H5          2.3799   -3.4648    3.5987 H         1 <0>         0.4099
     39 H6          3.6943   -2.4981   -1.7152 H         1 <0>         0.0842
     40 H7          2.6624   -3.8392   -1.1664 H         1 <0>         0.1050
     41 H8          2.6303   -3.3359   -3.6777 H         1 <0>         0.0890
     42 H9          1.0554   -3.4447   -2.8724 H         1 <0>         0.0825
     43 H10         1.9357   -1.9413   -5.5145 H         1 <0>         0.1753
     44 H11         0.2844    2.8983   -4.1827 H         1 <0>         0.4299
     45 H12         0.1331    0.5186   -6.7738 H         1 <0>         0.1534
     46 H13         0.9030    3.2909   -9.9360 H         1 <0>         0.1260
     47 H14         1.3813    5.0499   -8.2828 H         1 <0>         0.1376
     48 H15         2.5320    5.9643   -6.8003 H         1 <0>         0.0569
     49 H16         0.8133    6.4273   -6.8077 H         1 <0>         0.0569
     50 H17         1.8098    6.7278   -5.3637 H         1 <0>         0.1039
     51 H18         0.4698   -1.2768   -9.1419 H         1 <0>         0.0875
     52 H19        -0.5715   -0.4856   -7.9292 H         1 <0>         0.1246
     53 H20        -1.8676   -1.8590   -9.6004 H         1 <0>         0.1398
     54 H21        -2.3274   -0.1393   -9.6003 H         1 <0>         0.1315
     55 H22        -0.6562    0.7044  -12.6664 H         1 <0>         0.1404
     56 H23        -1.6510    1.2919  -11.3121 H         1 <0>         0.1317
     57 H24         0.6353    2.0903  -11.0071 H         1 <0>         0.1260
     58 H25         1.2711    0.4335  -11.1855 H         1 <0>         0.0867
     59 H26        -3.1886   -0.5298  -11.8494 H         1 <0>         0.1211
     60 H27        -2.0843   -1.1104  -13.1190 H         1 <0>         0.1249
     61 H28        -2.5968   -2.2082  -11.8149 H         1 <0>         0.1248
     62 H29        -0.4025   -1.3596  -11.4479 H         1 <0>         0.4247
@<TRIPOS>BOND
     1    1    2 1
     2    1   34 1
     3    1   35 1
     4    1   36 1
     5    2    6 1
     6    2    3 1
     7    3   13 1
     8    3    4 2
     9    4    5 1
    10    4   10 1
    11    5    6 2
    12    5    7 1
    13    7    8 2
    14    7    9 am
    15    9   37 1
    16    9   38 1
    17   10   11 1
    18   10   39 1
    19   10   40 1
    20   11   12 1
    21   11   41 1
    22   11   42 1
    23   12   17 ar
    24   12   13 ar
    25   13   14 ar
    26   14   15 ar
    27   15   16 ar
    28   15   18 1
    29   16   17 ar
    30   17   43 1
    31   18   19 1
    32   18   44 1
    33   19   24 ar
    34   19   20 ar
    35   20   21 ar
    36   20   45 1
    37   21   22 ar
    38   21   27 1
    39   22   23 ar
    40   22   46 1
    41   23   24 ar
    42   23   47 1
    43   24   25 1
    44   25   26 1
    45   26   48 1
    46   26   49 1
    47   26   50 1
    48   27   32 1
    49   27   28 1
    50   28   29 1
    51   28   51 1
    52   28   52 1
    53   29   30 1
    54   29   53 1
    55   29   54 1
    56   30   31 1
    57   30   33 1
    58   30   62 1
    59   31   32 1
    60   31   55 1
    61   31   56 1
    62   32   57 1
    63   32   58 1
    64   33   59 1
    65   33   60 1
    66   33   61 1
@<TRIPOS>MOLECULE
ZINC06160812
   26    27     0     0     0
SMALL
USER_CHARGES

@<TRIPOS>ATOM
      1 C1         -0.0184    1.5028    0.0103 C.3       1 <0>        -0.0944
      2 C2          0.0021   -0.0041    0.0020 C.2       1 <0>         0.0973
      3 C3          0.0079   -0.7942   -1.0955 C.2       1 <0>        -0.2679
      4 C4          0.0279   -2.1304   -0.6642 C.2       1 <0>         0.3026
      5 N1          0.0339   -2.1341    0.6481 N.2       1 <0>        -0.3214
      6 N2          0.0237   -0.8045    1.0886 N.pl3     1 <0>        -0.4667
      7 H1          0.0289   -0.5104    2.0129 H         1 <0>         0.4415
      8 N3          0.0396   -3.2617   -1.4904 N.am      1 <0>        -0.6327
      9 C5          0.0316   -3.1176   -2.8304 C.2       1 <0>         0.5706
     10 O1          0.0143   -2.0060   -3.3221 O.2       1 <0>        -0.5071
     11 C6          0.0439   -4.3113   -3.7021 C.ar      1 <0>        -0.1367
     12 C7          0.0579   -5.5893   -3.1407 C.ar      1 <0>        -0.0853
     13 C8          0.0688   -6.6991   -3.9600 C.ar      1 <0>        -0.1260
     14 C9          0.0659   -6.5476   -5.3353 C.ar      1 <0>        -0.0884
     15 C10         0.0524   -5.2838   -5.8982 C.ar      1 <0>        -0.1265
     16 C11         0.0356   -4.1657   -5.0904 C.ar      1 <0>        -0.0544
     17 H2          1.0042    1.8801    0.0026 H         1 <0>         0.0835
     18 H3         -0.5455    1.8639   -0.8728 H         1 <0>         0.0894
     19 H4         -0.5286    1.8543    0.9071 H         1 <0>         0.0730
     20 H5         -0.0014   -0.4573   -2.1215 H         1 <0>         0.1729
     21 H6          0.0534   -4.1487   -1.0980 H         1 <0>         0.4152
     22 H7          0.0606   -5.7088   -2.0673 H         1 <0>         0.1268
     23 H8          0.0801   -7.6884   -3.5269 H         1 <0>         0.1320
     24 H9          0.0745   -7.4198   -5.9722 H         1 <0>         0.1302
     25 H10         0.0509   -5.1725   -6.9725 H         1 <0>         0.1333
     26 H11         0.0203   -3.1798   -5.5310 H         1 <0>         0.1393
@<TRIPOS>BOND
     1    1    2 1
     2    1   17 1
     3    1   18 1
     4    1   19 1
     5    2    6 1
     6    2    3 2
     7    3    4 1
     8    3   20 1
     9    4    5 2
    10    4    8 1
    11    5    6 1
    12    6    7 1
    13    8    9 am
    14    8   21 1
    15    9   10 2
    16    9   11 1
    17   11   16 ar
    18   11   12 ar
    19   12   13 ar
    20   12   22 1
    21   13   14 ar
    22   13   23 1
    23   14   15 ar
    24   14   24 1
    25   15   16 ar
    26   15   25 1
    27   16   26 1
@<TRIPOS>MOLECULE
ZINC13580432
   30    32     0     0     0
SMALL
USER_CHARGES

@<TRIPOS>ATOM
      1 C1         -0.0169    1.3920    0.0097 C.ar      1 <0>        -0.0474
      2 C2          1.1696    2.0948    0.0021 C.ar      1 <0>        -0.0969
      3 C3          2.3781    1.4188   -0.0135 C.ar      1 <0>        -0.0644
      4 C4          2.4034    0.0343   -0.0216 C.ar      1 <0>        -0.0966
      5 C5          1.2237   -0.6799   -0.0137 C.ar      1 <0>        -0.0787
      6 C6          0.0021   -0.0041    0.0020 C.ar      1 <0>        -0.1204
      7 C7         -1.2657   -0.7633    0.0100 C.2       1 <0>         0.5704
      8 O1         -2.3280   -0.1723    0.0234 O.2       1 <0>        -0.5016
      9 N1         -1.2442   -2.1108    0.0026 N.am      1 <0>        -0.6308
     10 C8         -2.4461   -2.8305    0.0102 C.2       1 <0>         0.3027
     11 C9         -3.7376   -2.2794    0.0199 C.2       1 <0>        -0.2587
     12 C10        -4.6244   -3.3003    0.0250 C.2       1 <0>         0.1325
     13 N2         -3.9261   -4.4553    0.0188 N.pl3     1 <0>        -0.4654
     14 H1         -4.3030   -5.3491    0.0201 H         1 <0>         0.4400
     15 N3         -2.5619   -4.1377    0.0038 N.2       1 <0>        -0.3158
     16 C11        -6.1258   -3.1713    0.0361 C.3       1 <0>        -0.0991
     17 C12        -6.9209   -4.2379    0.7919 C.3       1 <0>        -0.1700
     18 C13        -6.9305   -4.2174   -0.7379 C.3       1 <0>        -0.1697
     19 Br1         4.0004    2.3903   -0.0244 Br        1 <0>        -0.0360
     20 H2         -0.9587    1.9203    0.0260 H         1 <0>         0.1499
     21 H3          1.1563    3.1747    0.0081 H         1 <0>         0.1443
     22 H4          3.3490   -0.4873   -0.0345 H         1 <0>         0.1431
     23 H5          1.2447   -1.7597   -0.0205 H         1 <0>         0.1371
     24 H6         -0.3966   -2.5823   -0.0080 H         1 <0>         0.4159
     25 H7         -3.9797   -1.2269    0.0228 H         1 <0>         0.1740
     26 H8         -6.5099   -2.1514    0.0518 H         1 <0>         0.1351
     27 H9         -6.3580   -5.0328    1.2811 H         1 <0>         0.0949
     28 H10        -7.8283   -3.9196    1.3052 H         1 <0>         0.1084
     29 H11        -7.8442   -3.8858   -1.2311 H         1 <0>         0.1084
     30 H12        -6.3739   -4.9990   -1.2552 H         1 <0>         0.0950
@<TRIPOS>BOND
     1    1    6 ar
     2    1    2 ar
     3    1   20 1
     4    2    3 ar
     5    2   21 1
     6    3    4 ar
     7    3   19 1
     8    4    5 ar
     9    4   22 1
    10    5    6 ar
    11    5   23 1
    12    6    7 1
    13    7    8 2
    14    7    9 am
    15    9   10 1
    16    9   24 1
    17   10   15 2
    18   10   11 1
    19   11   12 2
    20   11   25 1
    21   12   13 1
    22   12   16 1
    23   13   14 1
    24   13   15 1
    25   16   18 1
    26   16   17 1
    27   16   26 1
    28   17   18 1
    29   17   27 1
    30   17   28 1
    31   18   29 1
    32   18   30 1
@<TRIPOS>MOLECULE
ZINC01738108
   29    30     0     0     0
SMALL
USER_CHARGES

@<TRIPOS>ATOM
      1 C1         -0.0166    1.3766    0.0096 C.ar      1 <0>        -0.0653
      2 C2          1.1707    2.0859    0.0021 C.ar      1 <0>        -0.1827
      3 C3          2.3799    1.4157   -0.0135 C.ar      1 <0>        -0.1422
      4 C4          2.4059    0.0347   -0.0211 C.ar      1 <0>        -0.1300
      5 C5          1.2154   -0.6807   -0.0131 C.ar      1 <0>         0.2807
      6 C6          0.0021   -0.0041    0.0020 C.ar      1 <0>        -0.2374
      7 N1          1.2380   -2.0772   -0.0208 N.2       1 <0>        -1.0747
      8 S1         -0.1825   -2.9284   -0.0112 S.o2      1 <0>         2.5992
      9 O1         -0.8016   -2.6713    1.2417 O.2       1 <0>        -1.0200
     10 O2         -0.8263   -2.6580   -1.2488 O.2       1 <0>        -1.0040
     11 C7          0.2357   -4.6400   -0.0245 C.ar      1 <0>        -0.6017
     12 C8         -0.0862   -5.4382    1.0572 C.ar      1 <0>         0.0026
     13 C9          0.2418   -6.7818    1.0473 C.ar      1 <0>        -0.0544
     14 C10         0.8924   -7.3275   -0.0467 C.ar      1 <0>         0.0164
     15 C11         1.2138   -6.5286   -1.1287 C.ar      1 <0>        -0.1184
     16 C12         0.8809   -5.1856   -1.1198 C.ar      1 <0>         0.0720
     17 Cl1         1.2783   -4.1839   -2.4808 Cl        1 <0>        -0.0065
     18 Cl2         1.3049   -9.0137   -0.0595 Cl        1 <0>        -0.0373
     19 Cl3        -0.1616   -7.7839    2.4063 Cl        1 <0>        -0.0419
     20 C13         3.6711    2.1928   -0.0226 C.3       1 <0>         0.5086
     21 F1          3.3905    3.5634   -0.0129 F         1 <0>        -0.1848
     22 F2          4.4222    1.8626    1.1105 F         1 <0>        -0.1823
     23 F3          4.3991    1.8740   -1.1739 F         1 <0>        -0.1824
     24 H1         -0.9594    1.9032    0.0259 H         1 <0>         0.1149
     25 H2          1.1532    3.1658    0.0080 H         1 <0>         0.1183
     26 H3          3.3508   -0.4882   -0.0336 H         1 <0>         0.1239
     27 H4         -0.9254   -0.5574    0.0082 H         1 <0>         0.1045
     28 H5         -0.5936   -5.0126    1.9103 H         1 <0>         0.1671
     29 H6          1.7215   -6.9535   -1.9820 H         1 <0>         0.1580
@<TRIPOS>BOND
     1    1    6 ar
     2    1    2 ar
     3    1   24 1
     4    2    3 ar
     5    2   25 1
     6    3    4 ar
     7    3   20 1
     8    4    5 ar
     9    4   26 1
    10    5    6 ar
    11    5    7 1
    12    6   27 1
    13    7    8 1
    14    8    9 2
    15    8   10 2
    16    8   11 1
    17   11   16 ar
    18   11   12 ar
    19   12   13 ar
    20   12   28 1
    21   13   14 ar
    22   13   19 1
    23   14   15 ar
    24   14   18 1
    25   15   16 ar
    26   15   29 1
    27   16   17 1
    28   20   21 1
    29   20   22 1
    30   20   23 1
@<TRIPOS>MOLECULE
ZINC01661760
   33    36     0     0     0
SMALL
NO_CHARGES

@<TRIPOS>ATOM
      1 C1         -0.0168    1.3885    0.0097 C.ar      1 <0>        -0.0975
      2 C2          1.1670    2.0942    0.0022 C.ar      1 <0>        -0.0849
      3 C3          2.3877    1.4300   -0.0135 C.ar      1 <0>        -0.0425
      4 C4          2.4244    0.0400   -0.0218 C.ar      1 <0>         0.0462
      5 C5          1.2097   -0.6720   -0.0136 C.ar      1 <0>        -0.2092
      6 C6          0.0021   -0.0041    0.0020 C.ar      1 <0>        -0.0305
      7 C7          1.5961   -2.1091   -0.0262 C.2       1 <0>         0.4018
      8 O1          0.8671   -3.0787   -0.0245 O.2       1 <0>        -0.3613
      9 C8          3.0863   -2.0810   -0.0414 C.2       1 <0>         0.0800
     10 C9          3.9915   -3.2858   -0.0579 C.3       1 <0>        -0.0168
     11 C10         5.4408   -2.8587   -0.0975 C.ar      1 <0>        -0.0824
     12 C11         6.1792   -2.1349   -1.0066 C.ar      1 <0>         0.0199
     13 C12         7.5215   -1.8947   -0.7704 C.ar      1 <0>        -0.4726
     14 C13         8.1159   -2.3833    0.3789 C.ar      1 <0>        -0.0017
     15 C14         7.3783   -3.1088    1.2913 C.ar      1 <0>        -0.0935
     16 C15         6.0261   -3.3547    1.0603 C.ar      1 <0>         0.2851
     17 N1          5.0830   -4.0496    1.8183 N.am      1 <0>        -0.5426
     18 C16         3.8707   -4.0579    1.2387 C.2       1 <0>         0.5203
     19 O2          2.8681   -4.5844    1.6729 O.2       1 <0>        -0.3680
     20 S1          8.4709   -0.9694   -1.9310 S.o2      1 <0>         2.6470
     21 O3          9.8375   -1.4605   -1.8459 O.2       1 <0>        -1.0122
     22 O4          7.8875   -1.2105   -3.2416 O.2       1 <0>        -1.0122
     23 O5          8.3704    0.4282   -1.5403 O.3       1 <0>        -1.0012
     24 N2          3.4689   -0.8476   -0.0379 N.2       1 <0>        -0.3552
     25 H1         -0.9594    1.9155    0.0260 H         1 <0>         0.1474
     26 H2          1.1458    3.1739    0.0082 H         1 <0>         0.1491
     27 H3          3.3087    1.9941   -0.0197 H         1 <0>         0.1490
     28 H4         -0.9244   -0.5590    0.0083 H         1 <0>         0.1417
     29 H5          5.7115   -1.7553   -1.9031 H         1 <0>         0.1860
     30 H6          9.1635   -2.1961    0.5628 H         1 <0>         0.1929
     31 H7          7.8498   -3.4873    2.1862 H         1 <0>         0.1809
     32 H8          5.2798   -4.4776    2.6662 H         1 <0>         0.4460
     33 H9          3.7568   -3.9270   -0.9076 H         1 <0>         0.1911
@<TRIPOS>BOND
     1    1    6 ar
     2    1    2 ar
     3    1   25 1
     4    2    3 ar
     5    2   26 1
     6    3    4 ar
     7    3   27 1
     8    4    5 ar
     9    4   24 1
    10    5    6 ar
    11    5    7 1
    12    6   28 1
    13    7    8 2
    14    7    9 1
    15    9   24 2
    16    9   10 1
    17   10   18 1
    18   10   11 1
    19   10   33 1
    20   11   16 ar
    21   11   12 ar
    22   12   13 ar
    23   12   29 1
    24   13   14 ar
    25   13   20 1
    26   14   15 ar
    27   14   30 1
    28   15   16 ar
    29   15   31 1
    30   16   17 1
    31   17   18 am
    32   17   32 1
    33   18   19 2
    34   20   21 2
    35   20   22 2
    36   20   23 1
@<TRIPOS>MOLECULE
ZINC01661760
   32    35     0     0     0
SMALL
USER_CHARGES

@<TRIPOS>ATOM
      1 C1         -0.0167    1.3810    0.0096 C.ar      1 <0>        -0.1552
      2 C2          1.1698    2.0922    0.0021 C.ar      1 <0>        -0.0822
      3 C3          2.3879    1.4369   -0.0135 C.ar      1 <0>        -0.1092
      4 C4          2.4316    0.0419   -0.0219 C.ar      1 <0>         0.1238
      5 C5          1.2160   -0.6755   -0.0137 C.ar      1 <0>        -0.2467
      6 C6          0.0021   -0.0041    0.0020 C.ar      1 <0>        -0.0313
      7 C7          1.5937   -2.1060   -0.0257 C.2       1 <0>         0.3784
      8 O1          0.8595   -3.0723   -0.0237 O.2       1 <0>        -0.3866
      9 C8          3.0913   -2.0862   -0.0407 C.2       1 <0>         0.3404
     10 N1          3.4775   -0.8309   -0.0375 N.2       1 <0>        -0.4667
     11 C9          3.9392   -3.2185   -0.0554 C.2       1 <0>        -0.4076
     12 C10         4.4633   -3.9181   -1.2434 C.ar      1 <0>        -0.0220
     13 C11         4.3180   -3.7259   -2.6152 C.ar      1 <0>        -0.0281
     14 C12         4.9542   -4.5760   -3.4950 C.ar      1 <0>        -0.6697
     15 C13         5.7346   -5.6177   -3.0181 C.ar      1 <0>        -0.0615
     16 C14         5.8858   -5.8187   -1.6614 C.ar      1 <0>        -0.1488
     17 C15         5.2535   -4.9721   -0.7589 C.ar      1 <0>         0.0960
     18 N2          5.2219   -4.9294    0.6255 N.pl3     1 <0>        -0.6252
     19 H1          5.6874   -5.5497    1.2081 H         1 <0>         0.3954
     20 C16         4.4544   -3.8965    1.0531 C.2       1 <0>         0.4816
     21 O2          4.2222   -3.5761    2.3436 O.3       1 <0>        -0.7076
     22 S1          4.7740   -4.3378   -5.2315 S.o2      1 <0>         2.7072
     23 O3          4.8861   -5.6489   -5.8516 O.2       1 <0>        -1.0776
     24 O4          3.4616   -3.7472   -5.4429 O.2       1 <0>        -1.0743
     25 O5          5.8448   -3.4460   -5.6488 O.3       1 <0>        -1.0759
     26 H2         -0.9599    1.9069    0.0260 H         1 <0>         0.1263
     27 H3          1.1449    3.1719    0.0082 H         1 <0>         0.1276
     28 H4          3.3062    2.0053   -0.0196 H         1 <0>         0.1315
     29 H5         -0.9244   -0.5590    0.0083 H         1 <0>         0.1253
     30 H6          3.7097   -2.9151   -2.9881 H         1 <0>         0.1145
     31 H7          6.2286   -6.2785   -3.7150 H         1 <0>         0.1217
     32 H8          6.4957   -6.6339   -1.3010 H         1 <0>         0.1064
@<TRIPOS>BOND
     1    1    6 ar
     2    1    2 ar
     3    1   26 1
     4    2    3 ar
     5    2   27 1
     6    3    4 ar
     7    3   28 1
     8    4   10 1
     9    4    5 ar
    10    5    6 ar
    11    5    7 1
    12    6   29 1
    13    7    8 2
    14    7    9 1
    15    9   10 2
    16    9   11 1
    17   11   20 2
    18   11   12 1
    19   12   17 ar
    20   12   13 ar
    21   13   14 ar
    22   13   30 1
    23   14   15 ar
    24   14   22 1
    25   15   16 ar
    26   15   31 1
    27   16   17 ar
    28   16   32 1
    29   17   18 1
    30   18   19 1
    31   18   20 1
    32   20   21 1
    33   22   23 2
    34   22   24 2
    35   22   25 1
@<TRIPOS>MOLECULE
ZINC01661760
   33    36     0     0     0
SMALL
USER_CHARGES
3-(3-hydroxy-1H-indol-2-yl)-2-oxo-indole-5-sulfonic acid
@<TRIPOS>ATOM
      1 C1          2.5834    2.3675   -3.4097 C.ar      1 <0>        -0.1784
      2 C2          3.7496    2.9775   -2.9658 C.ar      1 <0>        -0.0327
      3 C3          4.0114    3.1002   -1.6166 C.ar      1 <0>        -0.1664
      4 C4          3.1029    2.6105   -0.6840 C.ar      1 <0>         0.2077
      5 C5          1.9191    1.9920   -1.1373 C.ar      1 <0>        -0.2352
      6 C6          1.6748    1.8787   -2.5167 C.ar      1 <0>         0.0044
      7 C7          1.1803    1.5904   -0.0007 C.2       1 <0>         0.3668
      8 C8          1.9663    1.9989    1.1675 C.2       1 <0>         0.1739
      9 N1          3.1180    2.6034    0.6985 N.pl3     1 <0>        -0.6427
     10 H1          3.9690    3.0404    1.2415 H         1 <0>         0.4631
     11 C9          1.6207    1.8114    2.4945 C.2       1 <0>        -0.1122
     12 C10         2.3838    2.2011    3.6912 C.ar      1 <0>        -0.1534
     13 C11         3.6011    2.8482    3.8879 C.ar      1 <0>         0.0357
     14 C12         4.0529    3.0809    5.1727 C.ar      1 <0>        -0.6850
     15 C13         3.2967    2.6782    6.2620 C.ar      1 <0>         0.0176
     16 C14         2.0840    2.0402    6.0859 C.ar      1 <0>        -0.1669
     17 C15         1.6036    1.7930    4.7983 C.ar      1 <0>         0.1780
     18 N2          0.4648    1.1950    4.3570 N.am      1 <0>        -0.6477
     19 C16         0.3902    1.1612    3.0398 C.2       1 <0>         0.5629
     20 O1         -0.5214    0.6842    2.3836 O.2       1 <0>        -0.4663
     21 S1          5.5962    3.8920    5.4271 S.o2      1 <0>         2.6987
     22 O2          5.8524    4.6544    4.2556 O.2       1 <0>        -1.0570
     23 O3          5.5385    4.4785    6.7202 O.2       1 <0>        -1.0526
     24 O4          6.6676    2.8126    5.4865 O.3       1 <0>        -1.0732
     25 O5         -0.0110    0.9628    0.0073 O.3       1 <0>        -0.4331
     26 H2          2.3942    2.2797   -4.4694 H         1 <0>         0.1324
     27 H3          4.4591    3.3602   -3.6845 H         1 <0>         0.1363
     28 H4          4.9220    3.5767   -1.2845 H         1 <0>         0.1386
     29 H5          0.7698    1.4063   -2.8691 H         1 <0>         0.1342
     30 H6          4.1917    3.1624    3.0400 H         1 <0>         0.1275
     31 H7          3.6600    2.8658    7.2616 H         1 <0>         0.1463
     32 H8          1.5067    1.7327    6.9453 H         1 <0>         0.1325
     33 H9         -0.2678    0.8061    5.0796 H         1 <0>         0.4459
@<TRIPOS>BOND
     1    1    6 ar
     2    1    2 ar
     3    1   26 1
     4    2    3 ar
     5    2   27 1
     6    3    4 ar
     7    3   28 1
     8    4    9 1
     9    4    5 ar
    10    5    6 ar
    11    5    7 1
    12    6   29 1
    13    7    8 2
    14    7   25 1
    15    8    9 1
    16    8   11 1
    17    9   10 1
    18   11   19 1
    19   11   12 2
    20   12   17 ar
    21   12   13 ar
    22   13   14 ar
    23   13   30 1
    24   14   15 ar
    25   14   21 1
    26   15   16 ar
    27   15   31 1
    28   16   17 ar
    29   16   32 1
    30   17   18 2
    31   18   19 am
    32   18   33 1
    33   19   20 2
    34   21   22 2
    35   21   23 2
    36   21   24 1
@<TRIPOS>MOLECULE
ZINC00039321
   30    32     0     0     0
SMALL
USER_CHARGES

@<TRIPOS>ATOM
      1 C1         -0.0334    1.3455   -0.2922 C.ar      1 <0>        -0.1501
      2 C2          1.1411    2.0384   -0.5481 C.ar      1 <0>        -0.0496
      3 C3          2.3560    1.3872   -0.5488 C.ar      1 <0>        -0.1422
      4 C4          2.4121    0.0223   -0.2913 C.ar      1 <0>         0.1500
      5 C5          1.2231   -0.6778   -0.0325 C.ar      1 <0>        -0.2247
      6 C6          0.0001   -0.0072   -0.0346 C.ar      1 <0>        -0.0262
      7 C7          1.3004   -2.1260    0.2388 C.2       1 <0>         0.3988
      8 O1          0.2977   -2.7822    0.4694 O.2       1 <0>        -0.4637
      9 C8          2.5845   -2.7252    0.2207 C.2       1 <0>        -0.0489
     10 C9          3.6863   -1.9479   -0.0438 C.2       1 <0>         0.1393
     11 O2          3.5928   -0.6302   -0.2887 O.3       1 <0>        -0.2007
     12 C10         5.0171   -2.5818   -0.0596 C.ar      1 <0>        -0.0437
     13 C11         5.2185   -3.7710   -0.7663 C.ar      1 <0>        -0.0568
     14 C12         6.4636   -4.3618   -0.7801 C.ar      1 <0>        -0.1328
     15 C13         7.5196   -3.7791   -0.0932 C.ar      1 <0>         0.1027
     16 C14         7.3263   -2.5934    0.6135 C.ar      1 <0>         0.0773
     17 C15         6.0824   -1.9922    0.6273 C.ar      1 <0>        -0.0952
     18 O3          8.3634   -2.0255    1.2853 O.3       1 <0>        -0.4840
     19 O4          8.7448   -4.3662   -0.1095 O.3       1 <0>        -0.4857
     20 O5          2.7250   -4.0568    0.4634 O.3       1 <0>        -0.4497
     21 H1         -0.9775    1.8699   -0.2905 H         1 <0>         0.1391
     22 H2          1.1030    3.0988   -0.7491 H         1 <0>         0.1437
     23 H3          3.2636    1.9370   -0.7497 H         1 <0>         0.1463
     24 H4         -0.9149   -0.5454    0.1641 H         1 <0>         0.1437
     25 H5          4.3984   -4.2269   -1.3011 H         1 <0>         0.1403
     26 H6          6.6179   -5.2805   -1.3265 H         1 <0>         0.1429
     27 H7          5.9323   -1.0713    1.1712 H         1 <0>         0.1404
     28 H8          8.8760   -1.3969    0.7588 H         1 <0>         0.3896
     29 H9          9.3123   -4.0721   -0.8351 H         1 <0>         0.3920
     30 H10         1.8916   -4.5147    0.6387 H         1 <0>         0.4078
@<TRIPOS>BOND
     1    1    6 ar
     2    1    2 ar
     3    1   21 1
     4    2    3 ar
     5    2   22 1
     6    3    4 ar
     7    3   23 1
     8    4   11 1
     9    4    5 ar
    10    5    6 ar
    11    5    7 1
    12    6   24 1
    13    7    8 2
    14    7    9 1
    15    9   10 2
    16    9   20 1
    17   10   11 1
    18   10   12 1
    19   12   17 ar
    20   12   13 ar
    21   13   14 ar
    22   13   25 1
    23   14   15 ar
    24   14   26 1
    25   15   16 ar
    26   15   19 1
    27   16   17 ar
    28   16   18 1
    29   17   27 1
    30   18   28 1
    31   19   29 1
    32   20   30 1
@<TRIPOS>MOLECULE
ZINC27415684
   54    56     0     0     0
SMALL
USER_CHARGES

@<TRIPOS>ATOM
      1 C1         -0.1780    1.4896    0.0162 C.3       1 <0>        -0.1198
      2 C2         -0.0809   -0.0142    0.0079 C.2       1 <0>        -0.1375
      3 C3          0.1206   -0.6637    1.1276 C.2       1 <0>        -0.1539
      4 C4          0.1232    0.0784    2.4392 C.3       1 <0>        -0.0513
      5 C5         -0.8640   -0.5621    3.3807 C.ar      1 <0>        -0.1052
      6 C6         -0.4213   -1.4255    4.3642 C.ar      1 <0>        -0.0808
      7 C7         -1.3264   -2.0138    5.2279 C.ar      1 <0>        -0.0925
      8 C8         -2.6767   -1.7395    5.1101 C.ar      1 <0>        -0.0921
      9 C9         -3.1243   -0.8766    4.1288 C.ar      1 <0>        -0.1500
     10 C10        -2.2173   -0.2808    3.2641 C.ar      1 <0>         0.1030
     11 O1         -2.6546    0.5728    2.3013 O.3       1 <0>        -0.4953
     12 C11        -0.8409   -2.9560    6.2991 C.3       1 <0>        -0.0649
     13 C12        -0.5299   -2.1649    7.5713 C.3       1 <0>         0.2106
     14 C13        -0.0056   -3.0919    8.6429 C.2       1 <0>        -0.4342
     15 C14         1.2425   -2.6626    8.9461 C.2       1 <0>         0.2241
     16 C15         1.5511   -1.4971    8.1179 C.2       1 <0>         0.4688
     17 O2          2.5964   -0.8763    8.1486 O.2       1 <0>        -0.4593
     18 O3          0.5076   -1.2134    7.3164 O.3       1 <0>        -0.3137
     19 O4          2.0712   -3.2219    9.8680 O.3       1 <0>        -0.6404
     20 C16        -0.7114   -4.2353    9.2393 C.ar      1 <0>         0.0723
     21 C17        -1.0339   -5.3483    8.4545 C.ar      1 <0>        -0.1134
     22 C18        -1.6952   -6.4166    9.0180 C.ar      1 <0>        -0.1431
     23 C19        -2.0423   -6.3909   10.3636 C.ar      1 <0>         0.0689
     24 C20        -1.7243   -5.2881   11.1473 C.ar      1 <0>        -0.1423
     25 C21        -1.0581   -4.2169   10.5951 C.ar      1 <0>        -0.0959
     26 O5         -2.6946   -7.4468   10.9143 O.3       1 <0>        -0.5042
     27 C22        -1.7700   -1.4600    8.0574 C.2       1 <0>         0.4809
     28 O6         -2.8617   -1.8904    7.7695 O.2       1 <0>        -0.5004
     29 O7         -1.6618   -0.3539    8.8102 O.3       1 <0>        -0.3420
     30 C23        -2.8785    0.2627    9.2360 C.3       1 <0>         0.0332
     31 C24        -0.2157   -0.7709   -1.2883 C.3       1 <0>        -0.1156
     32 H1          0.7122    1.9086    0.4853 H         1 <0>         0.0636
     33 H2         -0.2547    1.8544   -1.0081 H         1 <0>         0.0559
     34 H3         -1.0616    1.7936    0.5773 H         1 <0>         0.0738
     35 H4          0.2849   -1.7310    1.1107 H         1 <0>         0.1075
     36 H5          1.1206    0.0392    2.8769 H         1 <0>         0.0792
     37 H6         -0.1585    1.1176    2.2692 H         1 <0>         0.0850
     38 H7          0.6327   -1.6414    4.4582 H         1 <0>         0.1260
     39 H8         -3.3819   -2.2005    5.7858 H         1 <0>         0.1415
     40 H9         -4.1789   -0.6627    4.0372 H         1 <0>         0.1228
     41 H10        -2.8739    0.1420    1.4638 H         1 <0>         0.3812
     42 H11        -1.6137   -3.6950    6.5106 H         1 <0>         0.1034
     43 H12         0.0616   -3.4619    5.9562 H         1 <0>         0.0933
     44 H13        -0.7650   -5.3691    7.4087 H         1 <0>         0.1212
     45 H14        -1.9449   -7.2759    8.4132 H         1 <0>         0.1184
     46 H15        -1.9966   -5.2729   12.1924 H         1 <0>         0.1179
     47 H16        -0.8075   -3.3623   11.2060 H         1 <0>         0.1194
     48 H17        -2.1089   -8.1234   11.2807 H         1 <0>         0.3796
     49 H18        -3.4609    0.5582    8.3632 H         1 <0>         0.0565
     50 H19        -3.4538   -0.4438    9.8344 H         1 <0>         0.0586
     51 H20        -2.6491    1.1439    9.8350 H         1 <0>         0.0966
     52 H21        -0.3777   -0.0671   -2.1047 H         1 <0>         0.0593
     53 H22         0.6958   -1.3390   -1.4739 H         1 <0>         0.0625
     54 H23        -1.0628   -1.4539   -1.2240 H         1 <0>         0.0630
@<TRIPOS>BOND
     1    1    2 1
     2    1   32 1
     3    1   33 1
     4    1   34 1
     5    2    3 2
     6    2   31 1
     7    3    4 1
     8    3   35 1
     9    4    5 1
    10    4   36 1
    11    4   37 1
    12    5   10 ar
    13    5    6 ar
    14    6    7 ar
    15    6   38 1
    16    7    8 ar
    17    7   12 1
    18    8    9 ar
    19    8   39 1
    20    9   10 ar
    21    9   40 1
    22   10   11 1
    23   11   41 1
    24   12   13 1
    25   12   42 1
    26   12   43 1
    27   13   18 1
    28   13   14 1
    29   13   27 1
    30   14   15 2
    31   14   20 1
    32   15   16 1
    33   15   19 1
    34   16   17 2
    35   16   18 1
    36   20   25 ar
    37   20   21 ar
    38   21   22 ar
    39   21   44 1
    40   22   23 ar
    41   22   45 1
    42   23   24 ar
    43   23   26 1
    44   24   25 ar
    45   24   46 1
    46   25   47 1
    47   26   48 1
    48   27   28 2
    49   27   29 1
    50   29   30 1
    51   30   49 1
    52   30   50 1
    53   30   51 1
    54   31   52 1
    55   31   53 1
    56   31   54 1
@<TRIPOS>MOLECULE
ZINC20149036
   46    50     0     0     0
SMALL
USER_CHARGES

@<TRIPOS>ATOM
      1 C1         -0.0167    1.3788    0.0096 C.ar      1 <0>        -0.0397
      2 C2          1.1946    2.0581    0.0017 C.ar      1 <0>        -0.2015
      3 C3          2.3728    1.3394   -0.0134 C.ar      1 <0>         0.1467
      4 N1          2.3606    0.0197   -0.0204 N.ar      1 <0>        -0.5267
      5 C4          1.2269   -0.6641   -0.0132 C.ar      1 <0>         0.3792
      6 C5          0.0021   -0.0041    0.0020 C.ar      1 <0>        -0.1980
      7 N2          1.2605   -2.0537   -0.0210 N.pl3     1 <0>        -1.0350
      8 S1          2.7142   -2.8466   -0.0391 S.o2      1 <0>         2.6953
      9 O1          2.4190   -4.2364   -0.0167 O.2       1 <0>        -0.9521
     10 O2          3.4899   -2.2491   -1.0689 O.2       1 <0>        -0.9261
     11 C6          3.5267   -2.4798    1.4807 C.ar      1 <0>        -0.7002
     12 C7          4.3558   -1.3766    1.5710 C.ar      1 <0>         0.0443
     13 C8          4.9945   -1.0865    2.7605 C.ar      1 <0>        -0.1824
     14 C9          4.8031   -1.9040    3.8673 C.ar      1 <0>         0.2126
     15 C10         3.9692   -3.0111    3.7732 C.ar      1 <0>        -0.1953
     16 C11         3.3295   -3.2925    2.5821 C.ar      1 <0>         0.0197
     17 N3          5.4482   -1.6136    5.0723 N.pl3     1 <0>        -0.6271
     18 C12         5.2595   -2.4161    6.1565 C.2       1 <0>         0.2554
     19 C13         5.8897   -2.1324    7.3338 C.2       1 <0>        -0.2847
     20 C14         5.8079   -2.8909    8.6045 C.ar      1 <0>        -0.0205
     21 C15         6.6255   -2.2129    9.5174 C.ar      1 <0>         0.1568
     22 C16         6.7394   -2.7115   10.8156 C.ar      1 <0>        -0.1136
     23 C17         6.0798   -3.8325   11.2108 C.ar      1 <0>        -0.0301
     24 C18         5.2468   -4.5428   10.3178 C.ar      1 <0>         0.0608
     25 C19         5.1365   -4.0308    9.0074 C.ar      1 <0>        -0.1244
     26 S2          4.0294   -5.1909    8.2496 S.3       1 <0>         0.0729
     27 C20         3.7928   -6.1942    9.5801 C.2       1 <0>         0.0769
     28 N4          4.5185   -5.6612   10.5190 N.2       1 <0>        -0.4987
     29 N5          7.1905   -1.1079    8.8930 N.am      1 <0>        -0.6412
     30 C21         6.7986   -1.0149    7.6113 C.2       1 <0>         0.5680
     31 O3          7.1365   -0.1525    6.8194 O.2       1 <0>        -0.5274
     32 H1         -0.9522    1.9182    0.0259 H         1 <0>         0.1408
     33 H2          1.2145    3.1379    0.0070 H         1 <0>         0.1401
     34 H3          3.3170    1.8637   -0.0200 H         1 <0>         0.1659
     35 H4         -0.9214   -0.5640    0.0078 H         1 <0>         0.1397
     36 H5          0.4325   -2.5589   -0.0158 H         1 <0>         0.4355
     37 H6          4.5041   -0.7415    0.7101 H         1 <0>         0.1599
     38 H7          5.6424   -0.2252    2.8301 H         1 <0>         0.1403
     39 H8          3.8182   -3.6487    4.6317 H         1 <0>         0.1376
     40 H9          2.6779   -4.1507    2.5094 H         1 <0>         0.1471
     41 H10         6.0305   -0.8404    5.1367 H         1 <0>         0.4318
     42 H11         4.6112   -3.2769    6.0848 H         1 <0>         0.1664
     43 H12         7.3682   -2.1936   11.5247 H         1 <0>         0.1414
     44 H13         6.1947   -4.1863   12.2247 H         1 <0>         0.1439
     45 H14         3.1788   -7.0807    9.6403 H         1 <0>         0.2249
     46 H15         7.7946   -0.4848    9.3263 H         1 <0>         0.4212
@<TRIPOS>BOND
     1    1    6 ar
     2    1    2 ar
     3    1   32 1
     4    2    3 ar
     5    2   33 1
     6    3    4 ar
     7    3   34 1
     8    4    5 ar
     9    5    6 ar
    10    5    7 1
    11    6   35 1
    12    7    8 1
    13    7   36 1
    14    8    9 2
    15    8   10 2
    16    8   11 1
    17   11   16 ar
    18   11   12 ar
    19   12   13 ar
    20   12   37 1
    21   13   14 ar
    22   13   38 1
    23   14   15 ar
    24   14   17 1
    25   15   16 ar
    26   15   39 1
    27   16   40 1
    28   17   18 1
    29   17   41 1
    30   18   19 2
    31   18   42 1
    32   19   30 1
    33   19   20 1
    34   20   25 ar
    35   20   21 ar
    36   21   22 ar
    37   21   29 1
    38   22   23 ar
    39   22   43 1
    40   23   24 ar
    41   23   44 1
    42   24   28 1
    43   24   25 ar
    44   25   26 1
    45   26   27 1
    46   27   28 2
    47   27   45 1
    48   29   30 am
    49   29   46 1
    50   30   31 2
@<TRIPOS>MOLECULE
ZINC20149036
   44    48     0     0     0
SMALL
USER_CHARGES

@<TRIPOS>ATOM
      1 C1         -0.0167    1.3788    0.0096 C.ar      1 <0>        -0.0531
      2 C2          1.1946    2.0581    0.0017 C.ar      1 <0>        -0.2961
      3 C3          2.3728    1.3394   -0.0134 C.ar      1 <0>         0.1474
      4 N1          2.3606    0.0197   -0.0204 N.ar      1 <0>        -0.5987
      5 C4          1.2269   -0.6641   -0.0132 C.ar      1 <0>         0.4429
      6 C5          0.0021   -0.0041    0.0020 C.ar      1 <0>        -0.2213
      7 N2          1.2605   -2.0537   -0.0210 N.2       1 <0>        -1.0739
      8 S1          2.7142   -2.8466   -0.0391 S.o2      1 <0>         2.6379
      9 O1          3.3226   -2.5509   -1.2888 O.2       1 <0>        -1.0292
     10 O2          3.3464   -2.5642    1.2018 O.2       1 <0>        -1.0289
     11 C6          2.3654   -4.5738   -0.0451 C.ar      1 <0>        -0.6637
     12 C7          2.2349   -5.2540    1.1528 C.ar      1 <0>        -0.0078
     13 C8          1.9615   -6.6059    1.1558 C.ar      1 <0>        -0.1579
     14 C9          1.8164   -7.2883   -0.0544 C.ar      1 <0>         0.1739
     15 C10         1.9494   -6.5952   -1.2599 C.ar      1 <0>        -0.2080
     16 C11         2.2177   -5.2423   -1.2476 C.ar      1 <0>        -0.0028
     17 N3          1.5456   -8.6294   -0.0590 N.2       1 <0>        -0.5366
     18 C12         0.6258   -9.1089   -0.8582 C.2       1 <0>         0.2815
     19 C13         0.3454  -10.4976   -0.8630 C.2       1 <0>        -0.3521
     20 C14        -0.6489  -11.1963   -1.7008 C.ar      1 <0>         0.0184
     21 C15        -0.5617  -12.5532   -1.3526 C.ar      1 <0>         0.0932
     22 C16        -1.3966  -13.4702   -1.9914 C.ar      1 <0>        -0.1011
     23 C17        -2.2878  -13.0802   -2.9393 C.ar      1 <0>        -0.0907
     24 C18        -2.4059  -11.7223   -3.3186 C.ar      1 <0>         0.0488
     25 C19        -1.5592  -10.8022   -2.6675 C.ar      1 <0>        -0.1316
     26 S2         -2.0289   -9.2681   -3.4236 S.3       1 <0>         0.0692
     27 C20        -3.2095   -9.8692   -4.4616 C.2       1 <0>         0.0350
     28 N4         -3.2216  -11.1490   -4.2282 N.2       1 <0>        -0.5066
     29 N5          0.4098  -12.6809   -0.3770 N.pl3     1 <0>        -0.6232
     30 H1          0.6689  -13.5180    0.0388 H         1 <0>         0.3998
     31 C21         0.9546  -11.4706   -0.0862 C.2       1 <0>         0.4860
     32 O3          1.9341  -11.2498    0.8199 O.3       1 <0>        -0.6382
     33 H2         -0.9522    1.9182    0.0259 H         1 <0>         0.1092
     34 H3          1.2145    3.1379    0.0070 H         1 <0>         0.1059
     35 H4          3.3170    1.8637   -0.0200 H         1 <0>         0.1282
     36 H5         -0.9214   -0.5640    0.0078 H         1 <0>         0.1181
     37 H6          2.3478   -4.7252    2.0877 H         1 <0>         0.1293
     38 H7          1.8603   -7.1357    2.0914 H         1 <0>         0.1241
     39 H8          1.8384   -7.1165   -2.1991 H         1 <0>         0.1170
     40 H9          2.3168   -4.7042   -2.1788 H         1 <0>         0.1267
     41 H10         0.0810   -8.4457   -1.5138 H         1 <0>         0.0758
     42 H11        -1.3326  -14.5152   -1.7263 H         1 <0>         0.1199
     43 H12        -2.9172  -13.8197   -3.4120 H         1 <0>         0.1219
     44 H13        -3.8179   -9.3178   -5.1632 H         1 <0>         0.2113
@<TRIPOS>BOND
     1    1    6 ar
     2    1    2 ar
     3    1   33 1
     4    2    3 ar
     5    2   34 1
     6    3    4 ar
     7    3   35 1
     8    4    5 ar
     9    5    6 ar
    10    5    7 1
    11    6   36 1
    12    7    8 1
    13    8    9 2
    14    8   10 2
    15    8   11 1
    16   11   16 ar
    17   11   12 ar
    18   12   13 ar
    19   12   37 1
    20   13   14 ar
    21   13   38 1
    22   14   15 ar
    23   14   17 1
    24   15   16 ar
    25   15   39 1
    26   16   40 1
    27   17   18 2
    28   18   19 1
    29   18   41 1
    30   19   31 2
    31   19   20 1
    32   20   25 ar
    33   20   21 ar
    34   21   22 ar
    35   21   29 1
    36   22   23 ar
    37   22   42 1
    38   23   24 ar
    39   23   43 1
    40   24   28 1
    41   24   25 ar
    42   25   26 1
    43   26   27 1
    44   27   28 2
    45   27   44 1
    46   29   30 1
    47   29   31 1
    48   31   32 1
@<TRIPOS>MOLECULE
ZINC20149036
   45    49     0     0     0
SMALL
USER_CHARGES

@<TRIPOS>ATOM
      1 C1         -0.0163    1.3544    0.0095 C.2       1 <0>        -0.0171
      2 C2          1.1954    2.0667    0.0017 C.2       1 <0>        -0.2158
      3 C3          2.3740    1.4093   -0.0135 C.2       1 <0>         0.1325
      4 N1          2.4120    0.0471   -0.0216 N.pl3     1 <0>        -0.6267
      5 C4          1.2455   -0.6792   -0.0139 C.2       1 <0>         0.5145
      6 C5          0.0021   -0.0041    0.0020 C.2       1 <0>        -0.1579
      7 N2          1.2846   -1.9955   -0.0223 N.2       1 <0>        -1.0030
      8 S1          2.7426   -2.7805   -0.0420 S.o2      1 <0>         2.6203
      9 O1          3.3484   -2.4805   -1.2919 O.2       1 <0>        -0.9989
     10 O2          3.3741   -2.4955    1.1986 O.2       1 <0>        -0.9984
     11 C6          2.4033   -4.5095   -0.0489 C.ar      1 <0>        -0.6815
     12 C7          2.2775   -5.1913    1.1486 C.ar      1 <0>        -0.0001
     13 C8          2.0115   -6.5447    1.1508 C.ar      1 <0>        -0.1589
     14 C9          1.8691   -7.2270   -0.0598 C.ar      1 <0>         0.2084
     15 C10         1.9975   -6.5323   -1.2648 C.ar      1 <0>        -0.2114
     16 C11         2.2583   -5.1780   -1.2518 C.ar      1 <0>         0.0068
     17 N3          1.6057   -8.5696   -0.0651 N.2       1 <0>        -0.5527
     18 C12         0.6880   -9.0536   -0.8640 C.2       1 <0>         0.2963
     19 C13         0.4152  -10.4438   -0.8695 C.2       1 <0>        -0.3529
     20 C14        -0.5759  -11.1473   -1.7070 C.ar      1 <0>         0.0140
     21 C15        -0.4810  -12.5040   -1.3598 C.ar      1 <0>         0.1032
     22 C16        -1.3113  -13.4251   -1.9987 C.ar      1 <0>        -0.1028
     23 C17        -2.2053  -13.0393   -2.9456 C.ar      1 <0>        -0.0808
     24 C18        -2.3312  -11.6818   -3.3239 C.ar      1 <0>         0.0491
     25 C19        -1.4890  -10.7576   -2.6728 C.ar      1 <0>        -0.1294
     26 S2         -1.9677   -9.2255   -3.4274 S.3       1 <0>         0.0586
     27 C20        -3.1457   -9.8324   -4.4650 C.2       1 <0>         0.0412
     28 N4         -3.1506  -11.1124   -4.2325 N.2       1 <0>        -0.5026
     29 N5          0.4920  -12.6270   -0.3851 N.pl3     1 <0>        -0.6235
     30 H1          0.7560  -13.4630    0.0300 H         1 <0>         0.4033
     31 C21         1.0303  -11.4140   -0.0939 C.2       1 <0>         0.4921
     32 O3          2.0093  -11.1884    0.8117 O.3       1 <0>        -0.6326
     33 H2         -0.9573    1.8844    0.0258 H         1 <0>         0.1472
     34 H3          1.1833    3.1466    0.0077 H         1 <0>         0.1523
     35 H4          3.2975    1.9692   -0.0197 H         1 <0>         0.1724
     36 H5         -0.9223   -0.5626    0.0078 H         1 <0>         0.1644
     37 H6          2.3881   -4.6625    2.0838 H         1 <0>         0.1314
     38 H7          1.9139   -7.0757    2.0862 H         1 <0>         0.1318
     39 H8          1.8886   -7.0536   -2.2044 H         1 <0>         0.1244
     40 H9          2.3538   -4.6388   -2.1827 H         1 <0>         0.1289
     41 H10         0.1391   -8.3929   -1.5187 H         1 <0>         0.0788
     42 H11        -1.2413  -14.4699   -1.7344 H         1 <0>         0.1238
     43 H12        -2.8310  -13.7820   -3.4184 H         1 <0>         0.1258
     44 H13        -3.7577   -9.2839   -5.1658 H         1 <0>         0.2127
     45 H14         3.2664   -0.4120   -0.0332 H         1 <0>         0.4130
@<TRIPOS>BOND
     1    1    6 2
     2    1    2 1
     3    1   33 1
     4    2    3 2
     5    2   34 1
     6    3    4 1
     7    3   35 1
     8    4    5 1
     9    4   45 1
    10    5    6 1
    11    5    7 2
    12    6   36 1
    13    7    8 1
    14    8    9 2
    15    8   10 2
    16    8   11 1
    17   11   16 ar
    18   11   12 ar
    19   12   13 ar
    20   12   37 1
    21   13   14 ar
    22   13   38 1
    23   14   15 ar
    24   14   17 1
    25   15   16 ar
    26   15   39 1
    27   16   40 1
    28   17   18 2
    29   18   19 1
    30   18   41 1
    31   19   31 2
    32   19   20 1
    33   20   25 ar
    34   20   21 ar
    35   21   22 ar
    36   21   29 1
    37   22   23 ar
    38   22   42 1
    39   23   24 ar
    40   23   43 1
    41   24   28 1
    42   24   25 ar
    43   25   26 1
    44   26   27 1
    45   27   28 2
    46   27   44 1
    47   29   30 1
    48   29   31 1
    49   31   32 1
@<TRIPOS>MOLECULE
ZINC20149036
   46    50     0     0     0
SMALL
USER_CHARGES

@<TRIPOS>ATOM
      1 C1         -0.0167    1.3788    0.0096 C.ar      1 <0>        -0.0400
      2 C2          1.1946    2.0581    0.0017 C.ar      1 <0>        -0.2028
      3 C3          2.3728    1.3394   -0.0134 C.ar      1 <0>         0.1471
      4 N1          2.3606    0.0197   -0.0204 N.ar      1 <0>        -0.5251
      5 C4          1.2269   -0.6641   -0.0132 C.ar      1 <0>         0.3804
      6 C5          0.0021   -0.0041    0.0020 C.ar      1 <0>        -0.1989
      7 N2          1.2605   -2.0537   -0.0210 N.pl3     1 <0>        -1.0355
      8 S1          2.7142   -2.8466   -0.0391 S.o2      1 <0>         2.6932
      9 O1          2.4190   -4.2364   -0.0167 O.2       1 <0>        -0.9539
     10 O2          3.4899   -2.2491   -1.0689 O.2       1 <0>        -0.9276
     11 C6          3.5267   -2.4798    1.4807 C.ar      1 <0>        -0.6877
     12 C7          4.3559   -1.3755    1.5691 C.ar      1 <0>         0.0202
     13 C8          4.9948   -1.0820    2.7558 C.ar      1 <0>        -0.1396
     14 C9          4.8032   -1.9027    3.8698 C.ar      1 <0>         0.1580
     15 C10         3.9648   -3.0158    3.7732 C.ar      1 <0>        -0.1854
     16 C11         3.3282   -3.2941    2.5817 C.ar      1 <0>        -0.0018
     17 N3          5.4341   -1.6178    5.0500 N.2       1 <0>        -0.5006
     18 C12         4.7701   -1.6725    6.1772 C.2       1 <0>         0.2572
     19 C13         5.4235   -1.3776    7.3992 C.2       1 <0>        -0.1880
     20 C14         4.8263   -1.3983    8.7489 C.ar      1 <0>        -0.0163
     21 C15         5.8563   -1.0391    9.6322 C.ar      1 <0>         0.1095
     22 C16         5.5828   -0.9727   10.9985 C.ar      1 <0>        -0.0959
     23 C17         4.3470   -1.2474   11.4905 C.ar      1 <0>        -0.0421
     24 C18         3.2825   -1.6135   10.6334 C.ar      1 <0>         0.0733
     25 C19         3.5672   -1.6772    9.2542 C.ar      1 <0>        -0.1288
     26 S2          2.0004   -2.1561    8.5748 S.3       1 <0>         0.0982
     27 C20         1.1342   -2.2375   10.0155 C.2       1 <0>         0.0684
     28 N4          2.0022   -1.9196   10.9310 N.2       1 <0>        -0.5022
     29 N5          6.9983   -0.8147    8.8858 N.pl3     1 <0>        -0.5715
     30 H1          7.8566   -0.5524    9.2539 H         1 <0>         0.4248
     31 C21         6.7518   -1.0182    7.5652 C.2       1 <0>         0.3506
     32 O3          7.6583   -0.8879    6.5699 O.3       1 <0>        -0.4401
     33 H2         -0.9522    1.9182    0.0259 H         1 <0>         0.1404
     34 H3          1.2145    3.1379    0.0070 H         1 <0>         0.1397
     35 H4          3.3170    1.8637   -0.0200 H         1 <0>         0.1653
     36 H5         -0.9214   -0.5640    0.0078 H         1 <0>         0.1394
     37 H6          0.4325   -2.5589   -0.0158 H         1 <0>         0.4349
     38 H7          4.5033   -0.7421    0.7069 H         1 <0>         0.1552
     39 H8          5.6419   -0.2200    2.8234 H         1 <0>         0.1359
     40 H9          3.8121   -3.6545    4.6306 H         1 <0>         0.1302
     41 H10         2.6764   -4.1521    2.5067 H         1 <0>         0.1395
     42 H11         3.7244   -1.9425    6.1754 H         1 <0>         0.1069
     43 H12         6.3727   -0.6967   11.6814 H         1 <0>         0.1397
     44 H13         4.1739   -1.1856   12.5548 H         1 <0>         0.1438
     45 H14         0.0943   -2.4963   10.1498 H         1 <0>         0.2246
     46 H15         7.7026    0.0012    6.1922 H         1 <0>         0.4073
@<TRIPOS>BOND
     1    1    6 ar
     2    1    2 ar
     3    1   33 1
     4    2    3 ar
     5    2   34 1
     6    3    4 ar
     7    3   35 1
     8    4    5 ar
     9    5    6 ar
    10    5    7 1
    11    6   36 1
    12    7    8 1
    13    7   37 1
    14    8    9 2
    15    8   10 2
    16    8   11 1
    17   11   16 ar
    18   11   12 ar
    19   12   13 ar
    20   12   38 1
    21   13   14 ar
    22   13   39 1
    23   14   15 ar
    24   14   17 1
    25   15   16 ar
    26   15   40 1
    27   16   41 1
    28   17   18 2
    29   18   19 1
    30   18   42 1
    31   19   31 2
    32   19   20 1
    33   20   25 ar
    34   20   21 ar
    35   21   22 ar
    36   21   29 1
    37   22   23 ar
    38   22   43 1
    39   23   24 ar
    40   23   44 1
    41   24   28 1
    42   24   25 ar
    43   25   26 1
    44   26   27 1
    45   27   28 2
    46   27   45 1
    47   29   30 1
    48   29   31 1
    49   31   32 1
    50   32   46 1
@<TRIPOS>MOLECULE
ZINC20149036
   46    50     0     0     0
SMALL
USER_CHARGES

@<TRIPOS>ATOM
      1 C1          0.5366    2.5219    0.3830 C.ar      1 <0>        -0.0396
      2 C2          1.8727    2.8742    0.2433 C.ar      1 <0>        -0.2016
      3 C3          2.8271    1.8817    0.1469 C.ar      1 <0>         0.1463
      4 N1          2.4850    0.6077    0.1858 N.ar      1 <0>        -0.5267
      5 C4          1.2225    0.2316    0.3179 C.ar      1 <0>         0.3796
      6 C5          0.2086    1.1789    0.4206 C.ar      1 <0>        -0.1977
      7 N2          0.9071   -1.1217    0.3543 N.pl3     1 <0>        -1.0350
      8 S1          2.1080   -2.2553    0.2326 S.o2      1 <0>         2.6949
      9 O1          1.4786   -3.5257    0.3286 O.2       1 <0>        -0.9515
     10 O2          2.9065   -1.8831   -0.8824 O.2       1 <0>        -0.9258
     11 C6          3.1277   -2.0894    1.6600 C.ar      1 <0>        -0.6991
     12 C7          4.2107   -1.2297    1.6380 C.ar      1 <0>         0.0444
     13 C8          5.0122   -1.0975    2.7548 C.ar      1 <0>        -0.1827
     14 C9          4.7292   -1.8291    3.9014 C.ar      1 <0>         0.2131
     15 C10         3.6401   -2.6914    3.9202 C.ar      1 <0>        -0.1916
     16 C11         2.8398   -2.8149    2.8016 C.ar      1 <0>         0.0201
     17 N3          5.5383   -1.6982    5.0332 N.pl3     1 <0>        -0.6264
     18 C12         5.2595   -2.4161    6.1565 C.2       1 <0>         0.2550
     19 C13         5.9671   -2.1929    7.3024 C.2       1 <0>        -0.2857
     20 C14         6.8939   -1.0712    7.5843 C.ar      1 <0>        -0.0382
     21 C15         7.3720   -1.2769    8.8846 C.ar      1 <0>         0.1671
     22 C16         8.2767   -0.3595    9.4203 C.ar      1 <0>        -0.1128
     23 C17         8.7008    0.7215    8.7135 C.ar      1 <0>        -0.0281
     24 C18         8.2401    0.9618    7.3998 C.ar      1 <0>         0.0615
     25 C19         7.3263    0.0283    6.8656 C.ar      1 <0>        -0.1291
     26 S2          7.0214    0.6931    5.2498 S.3       1 <0>         0.0358
     27 C20         8.0246    2.0404    5.3564 C.2       1 <0>         0.0855
     28 N4          8.5401    1.9651    6.5483 N.2       1 <0>        -0.4894
     29 N5          6.8041   -2.4339    9.4035 N.am      1 <0>        -0.6432
     30 C21         5.9687   -3.0083    8.5218 C.2       1 <0>         0.5795
     31 O3          5.3274   -4.0286    8.7024 O.2       1 <0>        -0.5108
     32 H1         -0.2285    3.2797    0.4649 H         1 <0>         0.1406
     33 H2          2.1620    3.9142    0.2101 H         1 <0>         0.1400
     34 H3          3.8672    2.1513    0.0378 H         1 <0>         0.1657
     35 H4         -0.8206    0.8697    0.5283 H         1 <0>         0.1397
     36 H5         -0.0165   -1.4020    0.4509 H         1 <0>         0.4357
     37 H6          4.4301   -0.6613    0.7463 H         1 <0>         0.1605
     38 H7          5.8582   -0.4265    2.7367 H         1 <0>         0.1373
     39 H8          3.4173   -3.2616    4.8100 H         1 <0>         0.1408
     40 H9          1.9906   -3.4820    2.8169 H         1 <0>         0.1477
     41 H10         6.2986   -1.0960    5.0187 H         1 <0>         0.4046
     42 H11         4.4785   -3.1619    6.1407 H         1 <0>         0.1791
     43 H12         8.6493   -0.5121   10.4224 H         1 <0>         0.1440
     44 H13         9.4017    1.4085    9.1642 H         1 <0>         0.1460
     45 H14         8.1993    2.7970    4.6058 H         1 <0>         0.2276
     46 H15         6.9847   -2.7807   10.2911 H         1 <0>         0.4229
@<TRIPOS>BOND
     1    1    6 ar
     2    1    2 ar
     3    1   32 1
     4    2    3 ar
     5    2   33 1
     6    3    4 ar
     7    3   34 1
     8    4    5 ar
     9    5    6 ar
    10    5    7 1
    11    6   35 1
    12    7    8 1
    13    7   36 1
    14    8    9 2
    15    8   10 2
    16    8   11 1
    17   11   16 ar
    18   11   12 ar
    19   12   13 ar
    20   12   37 1
    21   13   14 ar
    22   13   38 1
    23   14   15 ar
    24   14   17 1
    25   15   16 ar
    26   15   39 1
    27   16   40 1
    28   17   18 1
    29   17   41 1
    30   18   19 2
    31   18   42 1
    32   19   30 1
    33   19   20 1
    34   20   25 ar
    35   20   21 ar
    36   21   22 ar
    37   21   29 1
    38   22   23 ar
    39   22   43 1
    40   23   24 ar
    41   23   44 1
    42   24   28 1
    43   24   25 ar
    44   25   26 1
    45   26   27 1
    46   27   28 2
    47   27   45 1
    48   29   30 am
    49   29   46 1
    50   30   31 2
@<TRIPOS>MOLECULE
ZINC20149036
   46    50     0     0     0
SMALL
USER_CHARGES

@<TRIPOS>ATOM
      1 C1         -0.0163    1.3544    0.0095 C.2       1 <0>        -0.0091
      2 C2          1.1954    2.0667    0.0017 C.2       1 <0>        -0.2090
      3 C3          2.3740    1.4093   -0.0135 C.2       1 <0>         0.1321
      4 N1          2.4120    0.0471   -0.0216 N.pl3     1 <0>        -0.6234
      5 C4          1.2455   -0.6792   -0.0139 C.2       1 <0>         0.5196
      6 C5          0.0021   -0.0041    0.0020 C.2       1 <0>        -0.1622
      7 N2          1.2846   -1.9955   -0.0223 N.2       1 <0>        -1.0110
      8 S1          2.7426   -2.7805   -0.0420 S.o2      1 <0>         2.6183
      9 O1          3.3484   -2.4805   -1.2919 O.2       1 <0>        -0.9898
     10 O2          3.3741   -2.4955    1.1986 O.2       1 <0>        -0.9900
     11 C6          2.4033   -4.5095   -0.0489 C.ar      1 <0>        -0.6595
     12 C7          2.2773   -5.1926    1.1469 C.ar      1 <0>         0.0220
     13 C8          2.0118   -6.5478    1.1451 C.ar      1 <0>        -0.1746
     14 C9          1.8710   -7.2248   -0.0598 C.ar      1 <0>         0.2089
     15 C10         1.9978   -6.5355   -1.2592 C.ar      1 <0>        -0.1895
     16 C11         2.2581   -5.1792   -1.2501 C.ar      1 <0>         0.0234
     17 N3          1.6028   -8.5963   -0.0652 N.pl3     1 <0>        -0.6264
     18 C12         1.4650   -9.2585   -1.2474 C.2       1 <0>         0.2565
     19 C13         1.2031  -10.5983   -1.2527 C.2       1 <0>        -0.2857
     20 C14         1.0291  -11.4770   -2.4335 C.ar      1 <0>        -0.0197
     21 C15         0.7799  -12.7607   -1.9318 C.ar      1 <0>         0.1563
     22 C16         0.5737  -13.8056   -2.8333 C.ar      1 <0>        -0.1134
     23 C17         0.6096  -13.6068   -4.1776 C.ar      1 <0>        -0.0306
     24 C18         0.8585  -12.3263   -4.7202 C.ar      1 <0>         0.0608
     25 C19         1.0647  -11.2754   -3.8012 C.ar      1 <0>        -0.1247
     26 S2          1.3320   -9.8911   -4.8773 S.3       1 <0>         0.0739
     27 C20         1.1702  -10.6989   -6.3449 C.2       1 <0>         0.0764
     28 N4          0.9324  -11.9330   -6.0092 N.2       1 <0>        -0.4990
     29 N5          0.7910  -12.7195   -0.5431 N.am      1 <0>        -0.6412
     30 C21         1.0396  -11.4790   -0.0911 C.2       1 <0>         0.5681
     31 O3          1.1136  -11.1439    1.0782 O.2       1 <0>        -0.5277
     32 H1         -0.9573    1.8844    0.0258 H         1 <0>         0.1507
     33 H2          1.1833    3.1466    0.0077 H         1 <0>         0.1565
     34 H3          3.2975    1.9692   -0.0197 H         1 <0>         0.1762
     35 H4         -0.9223   -0.5626    0.0078 H         1 <0>         0.1656
     36 H5          2.3869   -4.6656    2.0832 H         1 <0>         0.1482
     37 H6          1.9142   -7.0808    2.0794 H         1 <0>         0.1427
     38 H7          1.8888   -7.0588   -2.1977 H         1 <0>         0.1397
     39 H8          2.3528   -4.6419   -2.1822 H         1 <0>         0.1485
     40 H9          1.5148   -9.0766    0.7729 H         1 <0>         0.4319
     41 H10         1.5630   -8.7237   -2.1806 H         1 <0>         0.1667
     42 H11         0.3811  -14.7979   -2.4532 H         1 <0>         0.1412
     43 H12         0.4452  -14.4421   -4.8422 H         1 <0>         0.1437
     44 H13         1.2481  -10.2865   -7.3400 H         1 <0>         0.2247
     45 H14         0.6421  -13.4896    0.0276 H         1 <0>         0.4210
     46 H15         3.2664   -0.4120   -0.0332 H         1 <0>         0.4130
@<TRIPOS>BOND
     1    1    6 2
     2    1    2 1
     3    1   32 1
     4    2    3 2
     5    2   33 1
     6    3    4 1
     7    3   34 1
     8    4    5 1
     9    4   46 1
    10    5    6 1
    11    5    7 2
    12    6   35 1
    13    7    8 1
    14    8    9 2
    15    8   10 2
    16    8   11 1
    17   11   16 ar
    18   11   12 ar
    19   12   13 ar
    20   12   36 1
    21   13   14 ar
    22   13   37 1
    23   14   15 ar
    24   14   17 1
    25   15   16 ar
    26   15   38 1
    27   16   39 1
    28   17   18 1
    29   17   40 1
    30   18   19 2
    31   18   41 1
    32   19   30 1
    33   19   20 1
    34   20   25 ar
    35   20   21 ar
    36   21   22 ar
    37   21   29 1
    38   22   23 ar
    39   22   42 1
    40   23   24 ar
    41   23   43 1
    42   24   28 1
    43   24   25 ar
    44   25   26 1
    45   26   27 1
    46   27   28 2
    47   27   44 1
    48   29   30 am
    49   29   45 1
    50   30   31 2
@<TRIPOS>MOLECULE
ZINC20149036
   46    50     0     0     0
SMALL
USER_CHARGES

@<TRIPOS>ATOM
      1 C1         -1.4750    0.8961    0.9087 C.2       1 <0>        -0.0090
      2 C2         -0.4270    1.8099    0.7029 C.2       1 <0>        -0.2089
      3 C3          0.8159    1.3701    0.4148 C.2       1 <0>         0.1321
      4 N1          1.0782    0.0362    0.3181 N.pl3     1 <0>        -0.6234
      5 C4          0.0761   -0.8834    0.5140 C.2       1 <0>         0.5197
      6 C5         -1.2321   -0.4375    0.8168 C.2       1 <0>        -0.1622
      7 N2          0.3317   -2.1718    0.4197 N.2       1 <0>        -1.0110
      8 S1          1.8644   -2.6881    0.0640 S.o2      1 <0>         2.6178
      9 O1          2.1412   -2.2561   -1.2612 O.2       1 <0>        -0.9893
     10 O2          2.6814   -2.3269    1.1692 O.2       1 <0>        -0.9898
     11 C6          1.8243   -4.4491    0.0216 C.ar      1 <0>        -0.6583
     12 C7          2.0630   -5.1726    1.1758 C.ar      1 <0>         0.0224
     13 C8          2.0328   -6.5529    1.1460 C.ar      1 <0>        -0.1752
     14 C9          1.7618   -7.2146   -0.0450 C.ar      1 <0>         0.2095
     15 C10         1.5220   -6.4848   -1.2025 C.ar      1 <0>        -0.1857
     16 C11         1.5487   -5.1045   -1.1645 C.ar      1 <0>         0.0238
     17 N3          1.7309   -8.6113   -0.0788 N.pl3     1 <0>        -0.6260
     18 C12         1.4650   -9.2585   -1.2474 C.2       1 <0>         0.2560
     19 C13         1.3049  -10.6142   -1.2557 C.2       1 <0>        -0.2866
     20 C14         1.1492  -11.5096   -0.0849 C.ar      1 <0>        -0.0375
     21 C15         1.0168  -12.8057   -0.5993 C.ar      1 <0>         0.1665
     22 C16         0.8535  -13.8678    0.2907 C.ar      1 <0>        -0.1126
     23 C17         0.8198  -13.6739    1.6358 C.ar      1 <0>        -0.0285
     24 C18         0.9496  -12.3813    2.1910 C.ar      1 <0>         0.0617
     25 C19         1.1155  -11.3133    1.2836 C.ar      1 <0>        -0.1293
     26 S2          1.2357   -9.9187    2.3728 S.3       1 <0>         0.0358
     27 C20         1.0771  -10.7443    3.8308 C.2       1 <0>         0.0857
     28 N4          0.9416  -11.9903    3.4827 N.2       1 <0>        -0.4898
     29 N5          1.0811  -12.7564   -1.9863 N.am      1 <0>        -0.6431
     30 C21         1.2436  -11.4972   -2.4255 C.2       1 <0>         0.5797
     31 O3          1.3280  -11.1500   -3.5905 O.2       1 <0>        -0.5112
     32 H1         -2.4673    1.2522    1.1432 H         1 <0>         0.1507
     33 H2         -0.6176    2.8705    0.7754 H         1 <0>         0.1565
     34 H3          1.6118    2.0833    0.2586 H         1 <0>         0.1762
     35 H4         -2.0291   -1.1495    0.9729 H         1 <0>         0.1656
     36 H5          2.2736   -4.6575    2.1014 H         1 <0>         0.1487
     37 H6          2.2200   -7.1173    2.0476 H         1 <0>         0.1393
     38 H7          1.3110   -6.9961   -2.1301 H         1 <0>         0.1430
     39 H8          1.3584   -4.5364   -2.0631 H         1 <0>         0.1491
     40 H9          1.8988   -9.1198    0.7299 H         1 <0>         0.4046
     41 H10         1.3809   -8.6992   -2.1674 H         1 <0>         0.1795
     42 H11         0.7508  -14.8697   -0.0991 H         1 <0>         0.1439
     43 H12         0.6913  -14.5226    2.2913 H         1 <0>         0.1458
     44 H13         1.0843  -10.3325    4.8293 H         1 <0>         0.2277
     45 H14         1.0132  -13.5324   -2.5644 H         1 <0>         0.4228
     46 H15         1.9762   -0.2654    0.1097 H         1 <0>         0.4131
@<TRIPOS>BOND
     1    1    6 2
     2    1    2 1
     3    1   32 1
     4    2    3 2
     5    2   33 1
     6    3    4 1
     7    3   34 1
     8    4    5 1
     9    4   46 1
    10    5    6 1
    11    5    7 2
    12    6   35 1
    13    7    8 1
    14    8    9 2
    15    8   10 2
    16    8   11 1
    17   11   16 ar
    18   11   12 ar
    19   12   13 ar
    20   12   36 1
    21   13   14 ar
    22   13   37 1
    23   14   15 ar
    24   14   17 1
    25   15   16 ar
    26   15   38 1
    27   16   39 1
    28   17   18 1
    29   17   40 1
    30   18   19 2
    31   18   41 1
    32   19   30 1
    33   19   20 1
    34   20   25 ar
    35   20   21 ar
    36   21   22 ar
    37   21   29 1
    38   22   23 ar
    39   22   42 1
    40   23   24 ar
    41   23   43 1
    42   24   28 1
    43   24   25 ar
    44   25   26 1
    45   26   27 1
    46   27   28 2
    47   27   44 1
    48   29   30 am
    49   29   45 1
    50   30   31 2
@<TRIPOS>MOLECULE
ZINC03828650
   37    39     0     0     0
SMALL
USER_CHARGES
3-(6,7-dimethoxyquinazolin-4-yl)aminophenol
@<TRIPOS>ATOM
      1 C1          5.8804    3.1956   -0.9435 C.3       1 <0>         0.0217
      2 O1          4.6825    3.9745   -0.9222 O.3       1 <0>        -0.3002
      3 C2          3.5194    3.3117   -0.6836 C.ar      1 <0>         0.1101
      4 C3          3.5412    1.9613   -0.4787 C.ar      1 <0>        -0.1480
      5 C4          2.3443    1.2779   -0.2335 C.ar      1 <0>        -0.1833
      6 C5          1.1190    1.9888   -0.1989 C.ar      1 <0>         0.2011
      7 C6          1.1201    3.3727   -0.4112 C.ar      1 <0>        -0.1836
      8 C7          2.3111    4.0216   -0.6510 C.ar      1 <0>         0.1633
      9 O2          2.3150    5.3643   -0.8578 O.3       1 <0>        -0.2974
     10 C8          1.0521    6.0314   -0.8122 C.3       1 <0>         0.0201
     11 N1         -0.0140    1.3095    0.0388 N.ar      1 <0>        -0.5426
     12 C9          0.0167    0.0128    0.2347 C.ar      1 <0>         0.3433
     13 N2          1.1365   -0.6924    0.2117 N.ar      1 <0>        -0.5780
     14 C10         2.3117   -0.1199   -0.0145 C.ar      1 <0>         0.4635
     15 N3          3.4719   -0.8679   -0.0362 N.pl3     1 <0>        -0.6413
     16 C11         3.4074   -2.2607    0.0620 C.ar      1 <0>         0.1685
     17 C12         4.4003   -2.9571    0.7404 C.ar      1 <0>        -0.1562
     18 C13         4.3341   -4.3330    0.8410 C.ar      1 <0>        -0.0823
     19 C14         3.2861   -5.0215    0.2594 C.ar      1 <0>        -0.1601
     20 C15         2.2945   -4.3319   -0.4238 C.ar      1 <0>         0.1255
     21 C16         2.3546   -2.9506   -0.5230 C.ar      1 <0>        -0.1360
     22 O3          1.2653   -5.0104   -0.9958 O.3       1 <0>        -0.4957
     23 H1          6.7326    3.8451   -1.1435 H         1 <0>         0.1069
     24 H2          6.0140    2.7080    0.0222 H         1 <0>         0.0572
     25 H3          5.8085    2.4396   -1.7254 H         1 <0>         0.0573
     26 H4          4.4774    1.4235   -0.5055 H         1 <0>         0.1390
     27 H5          0.1936    3.9273   -0.3878 H         1 <0>         0.1562
     28 H6          1.1970    7.0965   -0.9929 H         1 <0>         0.1074
     29 H7          0.3955    5.6190   -1.5783 H         1 <0>         0.0622
     30 H8          0.6004    5.8875    0.1693 H         1 <0>         0.0622
     31 H9         -0.9135   -0.5026    0.4230 H         1 <0>         0.1980
     32 H10         4.3318   -0.4269   -0.1195 H         1 <0>         0.4196
     33 H11         5.2222   -2.4219    1.1925 H         1 <0>         0.1270
     34 H12         5.1046   -4.8723    1.3718 H         1 <0>         0.1322
     35 H13         3.2391   -6.0977    0.3366 H         1 <0>         0.1302
     36 H14         1.5840   -2.4122   -1.0546 H         1 <0>         0.1408
     37 H15         1.4317   -5.2806   -1.9092 H         1 <0>         0.3915
@<TRIPOS>BOND
     1    1    2 1
     2    1   23 1
     3    1   24 1
     4    1   25 1
     5    2    3 1
     6    3    8 ar
     7    3    4 ar
     8    4    5 ar
     9    4   26 1
    10    5   14 ar
    11    5    6 ar
    12    6    7 ar
    13    6   11 ar
    14    7    8 ar
    15    7   27 1
    16    8    9 1
    17    9   10 1
    18   10   28 1
    19   10   29 1
    20   10   30 1
    21   11   12 ar
    22   12   13 ar
    23   12   31 1
    24   13   14 ar
    25   14   15 1
    26   15   16 1
    27   15   32 1
    28   16   21 ar
    29   16   17 ar
    30   17   18 ar
    31   17   33 1
    32   18   19 ar
    33   18   34 1
    34   19   20 ar
    35   19   35 1
    36   20   21 ar
    37   20   22 1
    38   21   36 1
    39   22   37 1
@<TRIPOS>MOLECULE
ZINC08287240
   33    35     0     0     0
SMALL
USER_CHARGES
N-(4-methoxyphenyl)-1H-indazole-3-carboxamide
@<TRIPOS>ATOM
      1 C1        -10.7616    5.2323   -1.0107 C.3       1 <0>         0.0263
      2 O1        -10.0144    4.2479   -0.2934 O.3       1 <0>        -0.3170
      3 C2         -8.6709    4.4374   -0.2031 C.ar      1 <0>         0.1159
      4 C3         -7.8857    3.5197    0.4793 C.ar      1 <0>        -0.1328
      5 C4         -6.5213    3.7115    0.5714 C.ar      1 <0>        -0.0784
      6 C5         -5.9353    4.8233   -0.0193 C.ar      1 <0>         0.1050
      7 C6         -6.7227    5.7442   -0.6977 C.ar      1 <0>        -0.1002
      8 C7         -8.0862    5.5481   -0.7938 C.ar      1 <0>        -0.1901
      9 N1         -4.5518    5.0187    0.0741 N.am      1 <0>        -0.6582
     10 C8         -3.7190    3.9592    0.0575 C.2       1 <0>         0.6098
     11 O2         -4.1713    2.8302    0.0462 O.2       1 <0>        -0.5084
     12 C9         -2.2603    4.1686    0.0530 C.2       1 <0>        -0.0032
     13 C10        -1.2218    3.1299    0.0362 C.ar      1 <0>        -0.1072
     14 C11        -1.2084    1.7383    0.0149 C.ar      1 <0>        -0.0458
     15 C12        -0.0121    1.0764    0.0077 C.ar      1 <0>        -0.1353
     16 C13         1.1844    1.7818    0.0102 C.ar      1 <0>        -0.0805
     17 C14         1.1934    3.1485    0.0255 C.ar      1 <0>        -0.1186
     18 C15        -0.0095    3.8474    0.0388 C.ar      1 <0>         0.0642
     19 N2         -0.3542    5.1737    0.0556 N.pl3     1 <0>        -0.4119
     20 H1          0.3027    5.9277    0.0611 H         1 <0>         0.4565
     21 N3         -1.6293    5.3232    0.0633 N.2       1 <0>        -0.2023
     22 H2        -11.8174    4.9611   -1.0068 H         1 <0>         0.1007
     23 H3        -10.6343    6.2040   -0.5337 H         1 <0>         0.0557
     24 H4        -10.4032    5.2825   -2.0389 H         1 <0>         0.0557
     25 H5         -8.3416    2.6553    0.9390 H         1 <0>         0.1360
     26 H6         -5.9100    2.9968    1.1024 H         1 <0>         0.1477
     27 H7         -6.2683    6.6112   -1.1539 H         1 <0>         0.1296
     28 H8         -8.6982    6.2619   -1.3252 H         1 <0>         0.1329
     29 H9         -4.1929    5.9166    0.1507 H         1 <0>         0.4163
     30 H10        -2.1360    1.1853    0.0084 H         1 <0>         0.1398
     31 H11         0.0026   -0.0035   -0.0044 H         1 <0>         0.1329
     32 H12         2.1204    1.2431    0.0003 H         1 <0>         0.1342
     33 H13         2.1312    3.6842    0.0269 H         1 <0>         0.1306
@<TRIPOS>BOND
     1    1    2 1
     2    1   22 1
     3    1   23 1
     4    1   24 1
     5    2    3 1
     6    3    8 ar
     7    3    4 ar
     8    4    5 ar
     9    4   25 1
    10    5    6 ar
    11    5   26 1
    12    6    7 ar
    13    6    9 1
    14    7    8 ar
    15    7   27 1
    16    8   28 1
    17    9   10 am
    18    9   29 1
    19   10   11 2
    20   10   12 1
    21   12   21 2
    22   12   13 1
    23   13   18 ar
    24   13   14 ar
    25   14   15 ar
    26   14   30 1
    27   15   16 ar
    28   15   31 1
    29   16   17 ar
    30   16   32 1
    31   17   18 ar
    32   17   33 1
    33   18   19 1
    34   19   20 1
    35   19   21 1
@<TRIPOS>MOLECULE
ZINC01649340
   52    54     0     0     0
SMALL
USER_CHARGES

@<TRIPOS>ATOM
      1 C1         -0.0187    1.5258    0.0104 C.3       1 <0>        -0.1531
      2 C2          0.0021   -0.0041    0.0020 C.3       1 <0>        -0.1278
      3 C3         -1.4333   -0.5336    0.0129 C.3       1 <0>         0.1689
      4 H1         -1.9701   -0.1109    0.8621 H         1 <0>         0.1030
      5 C4         -1.4133   -2.0590    0.1302 C.3       1 <0>         0.0625
      6 O1         -0.6117   -2.6069   -0.9183 O.3       1 <0>        -0.5692
      7 N1         -2.1054   -0.1483   -1.2305 N.pl3     1 <0>        -0.6816
      8 C5         -3.4856   -0.0365   -1.2658 C.ar      1 <0>         0.6305
      9 N2         -4.1766   -0.2783   -0.1589 N.ar      1 <0>        -0.6256
     10 C6         -5.5013   -0.1844   -0.1423 C.ar      1 <0>         0.5407
     11 C7         -6.1646    0.1788   -1.3275 C.ar      1 <0>        -0.1560
     12 C8         -5.3921    0.4251   -2.4741 C.ar      1 <0>         0.3485
     13 N3         -4.0693    0.3129   -2.4004 N.ar      1 <0>        -0.6161
     14 N4         -6.2808    0.7538   -3.4662 N.pl3     1 <0>        -0.4704
     15 C9         -7.5330    0.7038   -2.9264 C.2       1 <0>         0.2320
     16 N5         -7.4624    0.3664   -1.6720 N.2       1 <0>        -0.4548
     17 C10        -5.9467    1.0964   -4.8508 C.3       1 <0>         0.1344
     18 C11        -6.6196    0.1019   -5.7989 C.3       1 <0>        -0.1626
     19 C12        -6.4419    2.5107   -5.1599 C.3       1 <0>        -0.1626
     20 N6         -6.2133   -0.4389    1.0165 N.pl3     1 <0>        -0.6899
     21 C13        -5.5062   -0.8166    2.2427 C.3       1 <0>         0.1717
     22 C14        -6.5039   -1.0364    3.3505 C.ar      1 <0>        -0.1135
     23 C15        -6.8801    0.0183    4.1611 C.ar      1 <0>        -0.0982
     24 C16        -7.7953   -0.1833    5.1773 C.ar      1 <0>        -0.1219
     25 C17        -8.3347   -1.4394    5.3826 C.ar      1 <0>        -0.1101
     26 C18        -7.9592   -2.4939    4.5714 C.ar      1 <0>        -0.1221
     27 C19        -7.0472   -2.2913    3.5524 C.ar      1 <0>        -0.0986
     28 H2          1.0039    1.9031    0.0027 H         1 <0>         0.0563
     29 H3         -0.5459    1.8868   -0.8726 H         1 <0>         0.0552
     30 H4         -0.5289    1.8773    0.9072 H         1 <0>         0.0537
     31 H5          0.5123   -0.3556   -0.8948 H         1 <0>         0.0768
     32 H6          0.5293   -0.3651    0.8851 H         1 <0>         0.0774
     33 H7         -0.9936   -2.3437    1.0951 H         1 <0>         0.0524
     34 H8         -2.4301   -2.4431    0.0488 H         1 <0>         0.0503
     35 H9         -0.5540   -3.5721   -0.9058 H         1 <0>         0.3776
     36 H10        -1.5839    0.0285   -2.0291 H         1 <0>         0.4145
     37 H11        -8.4474    0.9139   -3.4613 H         1 <0>         0.2138
     38 H12        -4.8660    1.0524   -4.9853 H         1 <0>         0.1061
     39 H13        -7.7004    0.1459   -5.6644 H         1 <0>         0.0654
     40 H14        -6.3710    0.3568   -6.8291 H         1 <0>         0.0793
     41 H15        -6.2668   -0.9057   -5.5787 H         1 <0>         0.0629
     42 H16        -5.9625    3.2193   -4.4845 H         1 <0>         0.0629
     43 H17        -6.1933    2.7656   -6.1901 H         1 <0>         0.0793
     44 H18        -7.5227    2.5547   -5.0254 H         1 <0>         0.0654
     45 H19        -7.1807   -0.3672    1.0169 H         1 <0>         0.4195
     46 H20        -4.9460   -1.7357    2.0706 H         1 <0>         0.0763
     47 H21        -4.8186   -0.0196    2.5258 H         1 <0>         0.0773
     48 H22        -6.4587    0.9996    4.0008 H         1 <0>         0.1237
     49 H23        -8.0886    0.6405    5.8111 H         1 <0>         0.1245
     50 H24        -9.0492   -1.5971    6.1770 H         1 <0>         0.1237
     51 H25        -8.3804   -3.4753    4.7320 H         1 <0>         0.1244
     52 H26        -6.7567   -3.1143    2.9163 H         1 <0>         0.1232
@<TRIPOS>BOND
     1    1    2 1
     2    1   28 1
     3    1   29 1
     4    1   30 1
     5    2    3 1
     6    2   31 1
     7    2   32 1
     8    3    4 1
     9    3    5 1
    10    3    7 1
    11    5    6 1
    12    5   33 1
    13    5   34 1
    14    6   35 1
    15    7    8 1
    16    7   36 1
    17    8   13 ar
    18    8    9 ar
    19    9   10 ar
    20   10   11 ar
    21   10   20 1
    22   11   16 1
    23   11   12 ar
    24   12   13 ar
    25   12   14 1
    26   14   15 1
    27   14   17 1
    28   15   16 2
    29   15   37 1
    30   17   18 1
    31   17   19 1
    32   17   38 1
    33   18   39 1
    34   18   40 1
    35   18   41 1
    36   19   42 1
    37   19   43 1
    38   19   44 1
    39   20   21 1
    40   20   45 1
    41   21   22 1
    42   21   46 1
    43   21   47 1
    44   22   27 ar
    45   22   23 ar
    46   23   24 ar
    47   23   48 1
    48   24   25 ar
    49   24   49 1
    50   25   26 ar
    51   25   50 1
    52   26   27 ar
    53   26   51 1
    54   27   52 1
@<TRIPOS>MOLECULE
ZINC14945706
   33    34     0     0     0
SMALL
USER_CHARGES
N-tert-butyl-2-(trifluoromethyl)quinazolin-4-amine
@<TRIPOS>ATOM
      1 C1          1.6403   -4.7634   -1.2889 C.3       1 <0>        -0.1661
      2 C2          2.3840   -4.2763   -0.0437 C.3       1 <0>         0.1712
      3 C3          3.8150   -4.8177   -0.0600 C.3       1 <0>        -0.1578
      4 C4          1.6634   -4.7775    1.2095 C.3       1 <0>        -0.1654
      5 N1          2.4161   -2.8117   -0.0357 N.pl3     1 <0>        -0.6809
      6 C5          1.2377   -2.0966   -0.0208 C.ar      1 <0>         0.4891
      7 C6          1.2462   -0.6801   -0.0134 C.ar      1 <0>        -0.1815
      8 C7          2.4355    0.0569   -0.0208 C.ar      1 <0>        -0.0739
      9 C8          2.3813    1.4197   -0.0130 C.ar      1 <0>        -0.1189
     10 C9          1.1592    2.0863    0.0022 C.ar      1 <0>        -0.0726
     11 C10        -0.0169    1.3973    0.0097 C.ar      1 <0>        -0.0981
     12 C11         0.0021   -0.0041    0.0020 C.ar      1 <0>         0.1841
     13 N2         -1.1259   -0.7300    0.0084 N.ar      1 <0>        -0.5065
     14 C12        -1.0734   -2.0407    0.0005 C.ar      1 <0>         0.2932
     15 N3          0.0650   -2.7159   -0.0134 N.ar      1 <0>        -0.5623
     16 C13        -2.3676   -2.8126    0.0081 C.3       1 <0>         0.5462
     17 F1         -3.4238   -1.9554   -0.3187 F         1 <0>        -0.1552
     18 F2         -2.2991   -3.8472   -0.9311 F         1 <0>        -0.1608
     19 F3         -2.5815   -3.3519    1.2811 F         1 <0>        -0.1643
     20 H1          2.1537   -4.4064   -2.1816 H         1 <0>         0.0529
     21 H2          1.6164   -5.8531   -1.2948 H         1 <0>         0.0683
     22 H3          0.6208   -4.3777   -1.2773 H         1 <0>         0.0846
     23 H4          4.3448   -4.4707    0.8271 H         1 <0>         0.0634
     24 H5          3.7911   -5.9074   -0.0659 H         1 <0>         0.0803
     25 H6          4.3284   -4.4607   -0.9528 H         1 <0>         0.0634
     26 H7          0.6440   -4.3918    1.2211 H         1 <0>         0.0830
     27 H8          1.6395   -5.8672    1.2036 H         1 <0>         0.0685
     28 H9          2.1933   -4.4305    2.0965 H         1 <0>         0.0531
     29 H10         3.2665   -2.3452   -0.0410 H         1 <0>         0.4131
     30 H11         3.3893   -0.4495   -0.0330 H         1 <0>         0.1298
     31 H12         3.2988    1.9894   -0.0188 H         1 <0>         0.1355
     32 H13         1.1428    3.1662    0.0078 H         1 <0>         0.1390
     33 H14        -0.9575    1.9279    0.0171 H         1 <0>         0.1458
@<TRIPOS>BOND
     1    1    2 1
     2    1   20 1
     3    1   21 1
     4    1   22 1
     5    2    3 1
     6    2    4 1
     7    2    5 1
     8    3   23 1
     9    3   24 1
    10    3   25 1
    11    4   26 1
    12    4   27 1
    13    4   28 1
    14    5    6 1
    15    5   29 1
    16    6   15 ar
    17    6    7 ar
    18    7   12 ar
    19    7    8 ar
    20    8    9 ar
    21    8   30 1
    22    9   10 ar
    23    9   31 1
    24   10   11 ar
    25   10   32 1
    26   11   12 ar
    27   11   33 1
    28   12   13 ar
    29   13   14 ar
    30   14   15 ar
    31   14   16 1
    32   16   17 1
    33   16   18 1
    34   16   19 1
@<TRIPOS>MOLECULE
ZINC03814434
   62    69     0     0     0
SMALL
USER_CHARGES

@<TRIPOS>ATOM
      1 C1         -0.1295    1.5952   -0.2973 C.3       1 <0>        -0.1687
      2 C2         -0.0862    0.0696   -0.1900 C.3       1 <0>         0.3342
      3 C3          0.5692   -0.4501   -1.4637 C.3       1 <0>         0.0405
      4 H1          1.4796    0.1159   -1.6612 H         1 <0>         0.1372
      5 C4          0.9167   -1.9328   -1.2889 C.3       1 <0>        -0.0061
      6 H2          1.3963   -2.3075   -2.1932 H         1 <0>         0.1555
      7 C5          1.8785   -2.0596   -0.1021 C.3       1 <0>        -0.1827
      8 C6          1.2061   -1.5198    1.1541 C.3       1 <0>         0.2999
      9 H3          1.9797   -1.4243    1.9161 H         1 <0>         0.1550
     10 O1          0.6555   -0.2442    0.9666 O.3       1 <0>        -0.3234
     11 N1          0.2189   -2.4746    1.6600 N.pl3     1 <0>        -0.5366
     12 C7          0.4705   -3.5508    2.4739 C.ar      1 <0>         0.1469
     13 C8          1.6649   -4.0152    3.0240 C.ar      1 <0>        -0.1522
     14 C9          1.5948   -5.1456    3.8201 C.ar      1 <0>        -0.0582
     15 C10         0.4006   -5.7997    4.0696 C.ar      1 <0>        -0.1457
     16 C11        -0.7984   -5.3597    3.5358 C.ar      1 <0>        -0.0280
     17 C12        -0.7487   -4.2198    2.7307 C.ar      1 <0>        -0.1131
     18 C13        -1.7893   -3.4830    2.0197 C.ar      1 <0>         0.0276
     19 C14        -1.1442   -2.4197    1.3841 C.ar      1 <0>         0.0376
     20 C15        -1.8806   -1.5095    0.6175 C.ar      1 <0>         0.0894
     21 N2         -1.4718   -0.3951   -0.1095 N.pl3     1 <0>        -0.5183
     22 C16        -2.5611    0.1913   -0.7090 C.ar      1 <0>         0.1618
     23 C17        -2.6521    1.3277   -1.5118 C.ar      1 <0>        -0.1305
     24 C18        -3.9109    1.6745   -1.9733 C.ar      1 <0>        -0.0737
     25 C19        -5.0393    0.9368   -1.6616 C.ar      1 <0>        -0.1358
     26 C20        -4.9745   -0.1955   -0.8662 C.ar      1 <0>        -0.0503
     27 C21        -3.7147   -0.5596   -0.3919 C.ar      1 <0>        -0.1042
     28 C22        -3.2693   -1.6660    0.4845 C.ar      1 <0>        -0.0360
     29 C23        -3.9084   -2.7313    1.1102 C.ar      1 <0>        -0.0288
     30 C24        -3.1873   -3.6421    1.8754 C.ar      1 <0>        -0.1255
     31 C25        -4.1221   -4.6480    2.4030 C.2       1 <0>         0.5632
     32 O2         -3.8062   -5.5851    3.1110 O.2       1 <0>        -0.5106
     33 N3         -5.3744   -4.3851    1.9926 N.am      1 <0>        -0.7162
     34 C26        -5.3495   -3.1771    1.1601 C.3       1 <0>         0.1358
     35 N4         -0.3067   -2.7008   -1.0216 N.4       1 <0>        -0.5252
     36 C27         0.0145   -4.1336   -0.9773 C.3       1 <0>        -0.0497
     37 O3         -0.3340   -0.2979   -2.5607 O.3       1 <0>        -0.3614
     38 C28         0.3101   -0.0933   -3.8198 C.3       1 <0>         0.0162
     39 H4          0.8261    2.0094    0.0240 H         1 <0>         0.0984
     40 H5         -0.3202    1.8814   -1.3317 H         1 <0>         0.1036
     41 H6         -0.9255    1.9818    0.3392 H         1 <0>         0.0921
     42 H7          2.1370   -3.1081    0.0458 H         1 <0>         0.1233
     43 H8          2.7835   -1.4869   -0.3048 H         1 <0>         0.1455
     44 H9          2.6036   -3.5149    2.8368 H         1 <0>         0.1365
     45 H10         2.5026   -5.5304    4.2610 H         1 <0>         0.1359
     46 H11         0.4045   -6.6780    4.6980 H         1 <0>         0.1352
     47 H12        -1.7278   -5.8736    3.7323 H         1 <0>         0.1600
     48 H13        -1.7792    1.9122   -1.7624 H         1 <0>         0.1440
     49 H14        -4.0153    2.5500   -2.5970 H         1 <0>         0.1336
     50 H15        -5.9967    1.2527   -2.0488 H         1 <0>         0.1332
     51 H16        -5.8575   -0.7687   -0.6249 H         1 <0>         0.1415
     52 H17        -6.1628   -4.9065    2.2103 H         1 <0>         0.4348
     53 H18        -5.9671   -2.3994    1.6094 H         1 <0>         0.1115
     54 H19        -5.7060   -3.4063    0.1559 H         1 <0>         0.1103
     55 H20        -0.6958   -2.4158   -0.1353 H         1 <0>         0.4186
     56 H21         0.4349   -4.4415   -1.9347 H         1 <0>         0.1256
     57 H22         0.7403   -4.3189   -0.1854 H         1 <0>         0.1191
     58 H23        -0.8932   -4.7035   -0.7789 H         1 <0>         0.1256
     59 H24         0.9168    0.8112   -3.7748 H         1 <0>         0.0633
     60 H25         0.9482   -0.9479   -4.0446 H         1 <0>         0.0514
     61 H26        -0.4433    0.0130   -4.6003 H         1 <0>         0.1100
     62 H27        -0.9785   -2.5293   -1.7546 H         1 <0>         0.4274
@<TRIPOS>BOND
     1    1    2 1
     2    1   39 1
     3    1   40 1
     4    1   41 1
     5    2   10 1
     6    2   21 1
     7    2    3 1
     8    3    4 1
     9    3    5 1
    10    3   37 1
    11    5    6 1
    12    5    7 1
    13    5   35 1
    14    7    8 1
    15    7   42 1
    16    7   43 1
    17    8    9 1
    18    8   10 1
    19    8   11 1
    20   11   19 1
    21   11   12 1
    22   12   17 ar
    23   12   13 ar
    24   13   14 ar
    25   13   44 1
    26   14   15 ar
    27   14   45 1
    28   15   16 ar
    29   15   46 1
    30   16   17 ar
    31   16   47 1
    32   17   18 1
    33   18   30 ar
    34   18   19 ar
    35   19   20 ar
    36   20   28 ar
    37   20   21 1
    38   21   22 1
    39   22   27 ar
    40   22   23 ar
    41   23   24 ar
    42   23   48 1
    43   24   25 ar
    44   24   49 1
    45   25   26 ar
    46   25   50 1
    47   26   27 ar
    48   26   51 1
    49   27   28 1
    50   28   29 ar
    51   29   34 1
    52   29   30 ar
    53   30   31 1
    54   31   32 2
    55   31   33 am
    56   33   34 1
    57   33   52 1
    58   34   53 1
    59   34   54 1
    60   35   36 1
    61   35   55 1
    62   35   62 1
    63   36   56 1
    64   36   57 1
    65   36   58 1
    66   37   38 1
    67   38   59 1
    68   38   60 1
    69   38   61 1
@<TRIPOS>MOLECULE
ZINC14945722
   37    39     0     0     0
SMALL
USER_CHARGES
N-[(1R)-1-phenylethyl]-2-(trifluoromethyl)quinazolin-4-amine
@<TRIPOS>ATOM
      1 C1         -5.2448    4.3834    1.5083 C.3       1 <0>        -0.1582
      2 C2         -4.8935    4.0117    0.0663 C.3       1 <0>         0.1871
      3 H1         -4.7557    4.9202   -0.5198 H         1 <0>         0.1069
      4 C3         -6.0115    3.1948   -0.5285 C.ar      1 <0>        -0.0970
      5 C4         -6.1072    1.8450   -0.2460 C.ar      1 <0>        -0.1177
      6 C5         -7.1352    1.0966   -0.7881 C.ar      1 <0>        -0.1142
      7 C6         -8.0620    1.6959   -1.6204 C.ar      1 <0>        -0.1159
      8 C7         -7.9635    3.0447   -1.9067 C.ar      1 <0>        -0.1130
      9 C8         -6.9380    3.7940   -1.3611 C.ar      1 <0>        -0.1041
     10 N1         -3.6553    3.2287    0.0517 N.pl3     1 <0>        -0.6827
     11 C9         -2.4348    3.8693    0.0443 C.ar      1 <0>         0.4877
     12 C10        -1.2257    3.1314    0.0296 C.ar      1 <0>        -0.1796
     13 C11        -1.2080    1.7323    0.0172 C.ar      1 <0>        -0.0744
     14 C12        -0.0126    1.0758    0.0080 C.ar      1 <0>        -0.1174
     15 C13         1.1889    1.7788    0.0003 C.ar      1 <0>        -0.0722
     16 C14         1.2055    3.1419    0.0074 C.ar      1 <0>        -0.0972
     17 C15        -0.0047    3.8484    0.0222 C.ar      1 <0>         0.1839
     18 N2         -0.0446    5.1893    0.0292 N.ar      1 <0>        -0.5048
     19 C16        -1.1945    5.8203    0.0427 C.ar      1 <0>         0.2969
     20 N3         -2.3602    5.1934    0.0502 N.ar      1 <0>        -0.5677
     21 C17        -1.1880    7.3273    0.0506 C.3       1 <0>         0.5468
     22 F1          0.0849    7.7900   -0.2996 F         1 <0>        -0.1548
     23 F2         -2.1269    7.8025   -0.8713 F         1 <0>        -0.1606
     24 F3         -1.5161    7.7883    1.3301 F         1 <0>        -0.1639
     25 H2         -4.4362    4.9742    1.9385 H         1 <0>         0.0679
     26 H3         -6.1660    4.9659    1.5192 H         1 <0>         0.0735
     27 H4         -5.3825    3.4748    2.0945 H         1 <0>         0.0590
     28 H5         -5.3807    1.3758    0.4010 H         1 <0>         0.1176
     29 H6         -7.2124    0.0429   -0.5641 H         1 <0>         0.1251
     30 H7         -8.8633    1.1105   -2.0466 H         1 <0>         0.1249
     31 H8         -8.6876    3.5130   -2.5570 H         1 <0>         0.1267
     32 H9         -6.8608    4.8477   -1.5851 H         1 <0>         0.1271
     33 H10        -3.6944    2.2595    0.0472 H         1 <0>         0.4133
     34 H11        -2.1340    1.1764    0.0190 H         1 <0>         0.1291
     35 H12         0.0021   -0.0041    0.0020 H         1 <0>         0.1361
     36 H13         2.1225    1.2359   -0.0112 H         1 <0>         0.1396
     37 H14         2.1453    3.6739    0.0020 H         1 <0>         0.1465
@<TRIPOS>BOND
     1    1    2 1
     2    1   25 1
     3    1   26 1
     4    1   27 1
     5    2    3 1
     6    2    4 1
     7    2   10 1
     8    4    9 ar
     9    4    5 ar
    10    5    6 ar
    11    5   28 1
    12    6    7 ar
    13    6   29 1
    14    7    8 ar
    15    7   30 1
    16    8    9 ar
    17    8   31 1
    18    9   32 1
    19   10   11 1
    20   10   33 1
    21   11   20 ar
    22   11   12 ar
    23   12   17 ar
    24   12   13 ar
    25   13   14 ar
    26   13   34 1
    27   14   15 ar
    28   14   35 1
    29   15   16 ar
    30   15   36 1
    31   16   17 ar
    32   16   37 1
    33   17   18 ar
    34   18   19 ar
    35   19   20 ar
    36   19   21 1
    37   21   22 1
    38   21   23 1
    39   21   24 1
@<TRIPOS>MOLECULE
ZINC14945723
   37    39     0     0     0
SMALL
USER_CHARGES
N-[(1S)-1-phenylethyl]-2-(trifluoromethyl)quinazolin-4-amine
@<TRIPOS>ATOM
      1 C1         -0.0127    1.0858    0.0080 C.3       1 <0>        -0.1580
      2 C2         -0.7288    1.5792    1.2668 C.3       1 <0>         0.1874
      3 H1         -0.7436    2.6691    1.2728 H         1 <0>         0.1068
      4 C3         -2.1426    1.0576    1.2775 C.ar      1 <0>        -0.0972
      5 C4         -2.3972   -0.2410    1.6771 C.ar      1 <0>        -0.1176
      6 C5         -3.6946   -0.7181    1.6911 C.ar      1 <0>        -0.1143
      7 C6         -4.7363    0.1005    1.2968 C.ar      1 <0>        -0.1159
      8 C7         -4.4812    1.3975    0.8922 C.ar      1 <0>        -0.1131
      9 C8         -3.1843    1.8760    0.8824 C.ar      1 <0>        -0.1041
     10 N1         -0.0203    1.0939    2.4537 N.pl3     1 <0>        -0.6827
     11 C9          1.0559    1.7981    2.9499 C.ar      1 <0>         0.4873
     12 C10         1.7513    1.3497    4.0996 C.ar      1 <0>        -0.1796
     13 C11         1.3943    0.1774    4.7750 C.ar      1 <0>        -0.0744
     14 C12         2.1055   -0.2082    5.8732 C.ar      1 <0>        -0.1174
     15 C13         3.1843    0.5455    6.3270 C.ar      1 <0>        -0.0721
     16 C14         3.5607    1.6892    5.6878 C.ar      1 <0>        -0.0973
     17 C15         2.8519    2.1147    4.5561 C.ar      1 <0>         0.1842
     18 N2          3.1808    3.2318    3.8903 N.ar      1 <0>        -0.5055
     19 C16         2.4970    3.6021    2.8339 C.ar      1 <0>         0.2969
     20 N3          1.4652    2.9169    2.3672 N.ar      1 <0>        -0.5668
     21 C17         2.9050    4.8644    2.1190 C.3       1 <0>         0.5467
     22 F1          2.4996    5.9754    2.8664 F         1 <0>        -0.1637
     23 F2          4.2957    4.8862    1.9681 F         1 <0>        -0.1595
     24 F3          2.2985    4.9035    0.8590 F         1 <0>        -0.1561
     25 H2          0.0021   -0.0041    0.0020 H         1 <0>         0.0587
     26 H3          1.0099    1.4631    0.0003 H         1 <0>         0.0681
     27 H4         -0.5399    1.4469   -0.8751 H         1 <0>         0.0734
     28 H5         -1.5829   -0.8818    1.9815 H         1 <0>         0.1177
     29 H6         -3.8940   -1.7313    2.0075 H         1 <0>         0.1251
     30 H7         -5.7496   -0.2730    1.3052 H         1 <0>         0.1248
     31 H8         -5.2951    2.0371    0.5842 H         1 <0>         0.1267
     32 H9         -2.9850    2.8893    0.5663 H         1 <0>         0.1270
     33 H10        -0.3084    0.2771    2.8903 H         1 <0>         0.4132
     34 H11         0.5594   -0.4155    4.4319 H         1 <0>         0.1291
     35 H12         1.8276   -1.1103    6.3980 H         1 <0>         0.1361
     36 H13         3.7313    0.2193    7.1992 H         1 <0>         0.1396
     37 H14         4.4000    2.2637    6.0511 H         1 <0>         0.1463
@<TRIPOS>BOND
     1    1    2 1
     2    1   25 1
     3    1   26 1
     4    1   27 1
     5    2    3 1
     6    2    4 1
     7    2   10 1
     8    4    9 ar
     9    4    5 ar
    10    5    6 ar
    11    5   28 1
    12    6    7 ar
    13    6   29 1
    14    7    8 ar
    15    7   30 1
    16    8    9 ar
    17    8   31 1
    18    9   32 1
    19   10   11 1
    20   10   33 1
    21   11   20 ar
    22   11   12 ar
    23   12   17 ar
    24   12   13 ar
    25   13   14 ar
    26   13   34 1
    27   14   15 ar
    28   14   35 1
    29   15   16 ar
    30   15   36 1
    31   16   17 ar
    32   16   37 1
    33   17   18 ar
    34   18   19 ar
    35   19   20 ar
    36   19   21 1
    37   21   22 1
    38   21   23 1
    39   21   24 1
@<TRIPOS>MOLECULE
ZINC60328032
   42    45     0     0     0
SMALL
USER_CHARGES

@<TRIPOS>ATOM
      1 C1         -0.0178    1.4608    0.0101 C.3       1 <0>         0.0979
      2 N1          0.0021   -0.0041    0.0020 N.pl3     1 <0>        -0.3700
      3 C2          0.0078   -0.7910   -1.0967 C.2       1 <0>         0.0710
      4 C3          0.0278   -2.0877   -0.6746 C.2       1 <0>        -0.1589
      5 C4          0.0343   -2.0768    0.7335 C.2       1 <0>         0.0682
      6 N2          0.0245   -0.8316    1.1313 N.2       1 <0>        -0.2952
      7 C5          0.0400   -3.2927   -1.5426 C.2       1 <0>        -0.1298
      8 C6         -0.8204   -3.5512   -2.6135 C.2       1 <0>         0.1187
      9 N3         -0.5065   -4.7112   -3.1394 N.2       1 <0>        -0.3005
     10 N4          0.5710   -5.2585   -2.4348 N.pl3     1 <0>        -0.3482
     11 C7          0.9182   -4.3763   -1.4441 C.2       1 <0>         0.2938
     12 N5          1.9322   -4.6467   -0.6138 N.2       1 <0>        -0.4885
     13 C8          2.6231   -5.7607   -0.7273 C.2       1 <0>         0.2625
     14 C9          2.3093   -6.6869   -1.7228 C.2       1 <0>        -0.3210
     15 C10         1.2687   -6.4296   -2.5748 C.2       1 <0>         0.5405
     16 N6          0.9389   -7.3270   -3.5686 N.pl3     1 <0>        -0.8128
     17 Br1         3.3032   -8.2873   -1.8855 Br        1 <0>         0.0052
     18 C11         3.7598   -6.0377    0.2226 C.3       1 <0>        -0.0555
     19 H1          4.6693   -6.2335   -0.3454 H         1 <0>         0.1216
     20 C12         3.4213   -7.2587    1.0828 C.3       1 <0>        -0.1448
     21 C13         4.5467   -7.4842    2.0967 C.3       1 <0>        -0.1417
     22 C14         4.7319   -6.2176    2.9350 C.3       1 <0>        -0.0109
     23 N7          5.0794   -5.0928    2.0584 N.4       1 <0>        -0.5052
     24 C15         3.9749   -4.8243    1.1296 C.3       1 <0>         0.0058
     25 H2          1.0048    1.8381    0.0023 H         1 <0>         0.0775
     26 H3         -0.5450    1.8219   -0.8730 H         1 <0>         0.0915
     27 H4         -0.5280    1.8123    0.9069 H         1 <0>         0.0929
     28 H5         -0.0022   -0.4541   -2.1228 H         1 <0>         0.1772
     29 H6          0.0489   -2.9465    1.3737 H         1 <0>         0.1780
     30 H7         -1.6140   -2.9019   -2.9525 H         1 <0>         0.2067
     31 H8          0.2079   -7.1315   -4.1755 H         1 <0>         0.4258
     32 H9          1.4379   -8.1537   -3.6607 H         1 <0>         0.4290
     33 H10         2.4842   -7.0838    1.6113 H         1 <0>         0.0883
     34 H11         3.3232   -8.1376    0.4456 H         1 <0>         0.1099
     35 H12         4.2870   -8.3178    2.7492 H         1 <0>         0.1174
     36 H13         5.4729   -7.7097    1.5682 H         1 <0>         0.0918
     37 H14         3.8052   -5.9932    3.4632 H         1 <0>         0.1321
     38 H15         5.5323   -6.3748    3.6581 H         1 <0>         0.1350
     39 H16         5.2531   -4.2720    2.6189 H         1 <0>         0.4350
     40 H17         4.2162   -3.9536    0.5198 H         1 <0>         0.1403
     41 H18         3.0645   -4.6288    1.6963 H         1 <0>         0.1426
     42 H19         5.9102   -5.3210    1.5333 H         1 <0>         0.4266
@<TRIPOS>BOND
     1    1    2 1
     2    1   25 1
     3    1   26 1
     4    1   27 1
     5    2    6 1
     6    2    3 1
     7    3    4 2
     8    3   28 1
     9    4    5 1
    10    4    7 1
    11    5    6 2
    12    5   29 1
    13    7   11 2
    14    7    8 1
    15    8    9 2
    16    8   30 1
    17    9   10 1
    18   10   15 1
    19   10   11 1
    20   11   12 1
    21   12   13 2
    22   13   14 1
    23   13   18 1
    24   14   15 2
    25   14   17 1
    26   15   16 1
    27   16   31 1
    28   16   32 1
    29   18   19 1
    30   18   24 1
    31   18   20 1
    32   20   21 1
    33   20   33 1
    34   20   34 1
    35   21   22 1
    36   21   35 1
    37   21   36 1
    38   22   23 1
    39   22   37 1
    40   22   38 1
    41   23   24 1
    42   23   39 1
    43   23   42 1
    44   24   40 1
    45   24   41 1
@<TRIPOS>MOLECULE
ZINC60328033
   42    45     0     0     0
SMALL
USER_CHARGES

@<TRIPOS>ATOM
      1 C1         -0.0178    1.4608    0.0101 C.3       1 <0>         0.0979
      2 N1          0.0021   -0.0041    0.0020 N.pl3     1 <0>        -0.3700
      3 C2          0.0078   -0.7910   -1.0967 C.2       1 <0>         0.0710
      4 C3          0.0278   -2.0877   -0.6746 C.2       1 <0>        -0.1589
      5 C4          0.0343   -2.0768    0.7335 C.2       1 <0>         0.0681
      6 N2          0.0245   -0.8316    1.1313 N.2       1 <0>        -0.2952
      7 C5          0.0400   -3.2927   -1.5426 C.2       1 <0>        -0.1297
      8 C6         -0.8204   -3.5512   -2.6135 C.2       1 <0>         0.1187
      9 N3         -0.5065   -4.7112   -3.1394 N.2       1 <0>        -0.3005
     10 N4          0.5710   -5.2585   -2.4348 N.pl3     1 <0>        -0.3482
     11 C7          0.9182   -4.3763   -1.4441 C.2       1 <0>         0.2938
     12 N5          1.9322   -4.6467   -0.6138 N.2       1 <0>        -0.4885
     13 C8          2.6231   -5.7607   -0.7273 C.2       1 <0>         0.2624
     14 C9          2.3093   -6.6869   -1.7228 C.2       1 <0>        -0.3210
     15 C10         1.2687   -6.4296   -2.5748 C.2       1 <0>         0.5405
     16 N6          0.9389   -7.3270   -3.5686 N.pl3     1 <0>        -0.8128
     17 Br1         3.3032   -8.2873   -1.8855 Br        1 <0>         0.0052
     18 C11         3.7598   -6.0377    0.2226 C.3       1 <0>        -0.0555
     19 H1          3.6031   -7.0018    0.7064 H         1 <0>         0.1221
     20 C12         5.0798   -6.0634   -0.5532 C.3       1 <0>        -0.1449
     21 C13         6.2352   -6.2673    0.4310 C.3       1 <0>        -0.1416
     22 C14         6.2028   -5.1575    1.4840 C.3       1 <0>        -0.0109
     23 N7          4.9271   -5.2025    2.2086 N.4       1 <0>        -0.5051
     24 C15         3.8185   -4.9370    1.2839 C.3       1 <0>         0.0056
     25 H2          1.0048    1.8381    0.0023 H         1 <0>         0.0775
     26 H3         -0.5450    1.8219   -0.8730 H         1 <0>         0.0915
     27 H4         -0.5280    1.8123    0.9069 H         1 <0>         0.0930
     28 H5         -0.0022   -0.4541   -2.1228 H         1 <0>         0.1771
     29 H6          0.0489   -2.9465    1.3737 H         1 <0>         0.1782
     30 H7         -1.6140   -2.9019   -2.9525 H         1 <0>         0.2067
     31 H8          0.2079   -7.1315   -4.1755 H         1 <0>         0.4258
     32 H9          1.4379   -8.1537   -3.6607 H         1 <0>         0.4290
     33 H10         5.0644   -6.8828   -1.2719 H         1 <0>         0.1101
     34 H11         5.2118   -5.1180   -1.0794 H         1 <0>         0.0875
     35 H12         6.1303   -7.2359    0.9198 H         1 <0>         0.0922
     36 H13         7.1824   -6.2311   -0.1070 H         1 <0>         0.1171
     37 H14         7.0242   -5.2996    2.1863 H         1 <0>         0.1351
     38 H15         6.3081   -4.1894    0.9943 H         1 <0>         0.1313
     39 H16         4.8077   -6.1156    2.6209 H         1 <0>         0.4269
     40 H17         3.9741   -3.9733    0.7990 H         1 <0>         0.1419
     41 H18         2.8800   -4.9166    1.8379 H         1 <0>         0.1413
     42 H19         4.9305   -4.5045    2.9372 H         1 <0>         0.4351
@<TRIPOS>BOND
     1    1    2 1
     2    1   25 1
     3    1   26 1
     4    1   27 1
     5    2    6 1
     6    2    3 1
     7    3    4 2
     8    3   28 1
     9    4    5 1
    10    4    7 1
    11    5    6 2
    12    5   29 1
    13    7   11 2
    14    7    8 1
    15    8    9 2
    16    8   30 1
    17    9   10 1
    18   10   15 1
    19   10   11 1
    20   11   12 1
    21   12   13 2
    22   13   14 1
    23   13   18 1
    24   14   15 2
    25   14   17 1
    26   15   16 1
    27   16   31 1
    28   16   32 1
    29   18   19 1
    30   18   24 1
    31   18   20 1
    32   20   21 1
    33   20   33 1
    34   20   34 1
    35   21   22 1
    36   21   35 1
    37   21   36 1
    38   22   23 1
    39   22   37 1
    40   22   38 1
    41   23   24 1
    42   23   39 1
    43   23   42 1
    44   24   40 1
    45   24   41 1
@<TRIPOS>MOLECULE
ZINC13647791
   43    46     0     0     0
SMALL
USER_CHARGES

@<TRIPOS>ATOM
      1 C1         -0.0166    1.3699    0.0096 C.ar      1 <0>        -0.0800
      2 C2          1.1572    2.1045    0.0023 C.ar      1 <0>        -0.1190
      3 C3          2.3694    1.4373   -0.0129 C.ar      1 <0>        -0.0394
      4 C4          2.3887    0.0627   -0.0205 C.ar      1 <0>        -0.1883
      5 C5          1.2179   -0.7095   -0.0134 C.ar      1 <0>         0.1191
      6 C6          0.0021   -0.0041    0.0020 C.ar      1 <0>        -0.1207
      7 N1          1.3955   -2.0811   -0.0225 N.pl3     1 <0>        -0.6290
      8 C7          2.6545   -2.6113   -0.0374 C.2       1 <0>         0.2414
      9 C8          3.0385   -3.9533   -0.0487 C.2       1 <0>        -0.1370
     10 C9          2.0433   -4.9829   -0.0452 C.1       1 <0>         0.2720
     11 N2          1.2537   -5.7996   -0.0424 N.1       1 <0>        -0.4249
     12 C10         4.4680   -4.3104   -0.0642 C.ar      1 <0>         0.3088
     13 C11         4.8666   -5.6555   -0.0815 C.ar      1 <0>        -0.2844
     14 C12         6.2058   -5.9409   -0.0954 C.ar      1 <0>         0.2007
     15 N3          7.0848   -4.9482   -0.0923 N.ar      1 <0>        -0.5794
     16 C13         6.6886   -3.6836   -0.0759 C.ar      1 <0>         0.5826
     17 N4          5.4049   -3.3593   -0.0676 N.ar      1 <0>        -0.5825
     18 N5          7.6395   -2.6778   -0.0728 N.pl3     1 <0>        -0.7005
     19 C14         9.0646   -3.0170   -0.0875 C.3       1 <0>         0.1450
     20 C15         9.8948   -1.7318   -0.0805 C.3       1 <0>        -0.0888
     21 C16        11.3608   -2.0808   -0.0957 C.ar      1 <0>        -0.1340
     22 C17        12.0518   -2.2615    1.0929 C.ar      1 <0>        -0.0689
     23 C18        13.3992   -2.5815    1.0307 C.ar      1 <0>        -0.1701
     24 C19        14.0048   -2.7089   -0.2053 C.ar      1 <0>         0.0971
     25 N6         13.3163   -2.5294   -1.3154 N.ar      1 <0>        -0.4833
     26 C20        12.0320   -2.2302   -1.2943 C.ar      1 <0>         0.1060
     27 S1          3.6842   -1.1528   -0.0394 S.3       1 <0>         0.1837
     28 H1         -0.9648    1.8866    0.0260 H         1 <0>         0.1374
     29 H2          1.1270    3.1841    0.0081 H         1 <0>         0.1413
     30 H3          3.2952    1.9934   -0.0191 H         1 <0>         0.1400
     31 H4         -0.9301   -0.5494    0.0080 H         1 <0>         0.1308
     32 H5          0.6237   -2.6686   -0.0180 H         1 <0>         0.4164
     33 H6          4.1333   -6.4484   -0.0833 H         1 <0>         0.1381
     34 H7          6.5434   -6.9667   -0.1085 H         1 <0>         0.1667
     35 H8          7.3622   -1.7483   -0.0608 H         1 <0>         0.4130
     36 H9          9.3060   -3.6103    0.7944 H         1 <0>         0.0692
     37 H10         9.2920   -3.5916   -0.9854 H         1 <0>         0.0705
     38 H11         9.6534   -1.1385   -0.9624 H         1 <0>         0.0847
     39 H12         9.6674   -1.1572    0.8174 H         1 <0>         0.0829
     40 H13        11.5523   -2.1551    2.0445 H         1 <0>         0.1348
     41 H14        13.9686   -2.7291    1.9364 H         1 <0>         0.1364
     42 H15        15.0542   -2.9580   -0.2624 H         1 <0>         0.1564
     43 H16        11.4998   -2.0959   -2.2244 H         1 <0>         0.1551
@<TRIPOS>BOND
     1    1    6 ar
     2    1    2 ar
     3    1   28 1
     4    2    3 ar
     5    2   29 1
     6    3    4 ar
     7    3   30 1
     8    4   27 1
     9    4    5 ar
    10    5    6 ar
    11    5    7 1
    12    6   31 1
    13    7    8 1
    14    7   32 1
    15    8    9 2
    16    8   27 1
    17    9   10 1
    18    9   12 1
    19   10   11 3
    20   12   17 ar
    21   12   13 ar
    22   13   14 ar
    23   13   33 1
    24   14   15 ar
    25   14   34 1
    26   15   16 ar
    27   16   17 ar
    28   16   18 1
    29   18   19 1
    30   18   35 1
    31   19   20 1
    32   19   36 1
    33   19   37 1
    34   20   21 1
    35   20   38 1
    36   20   39 1
    37   21   26 ar
    38   21   22 ar
    39   22   23 ar
    40   22   40 1
    41   23   24 ar
    42   23   41 1
    43   24   25 ar
    44   24   42 1
    45   25   26 ar
    46   26   43 1
@<TRIPOS>MOLECULE
ZINC13763987
   58    60     0     0     0
SMALL
USER_CHARGES

@<TRIPOS>ATOM
      1 C1          0.1578    1.5374   -0.0550 C.3       1 <0>         0.0751
      2 N1          0.1405    0.0725   -0.0490 N.pl3     1 <0>        -0.6052
      3 C2          0.1526   -0.6549    1.2226 C.3       1 <0>         0.0781
      4 C3          0.1130   -0.6173   -1.2329 C.ar      1 <0>         0.2662
      5 C4          0.0907   -2.0163   -1.2253 C.ar      1 <0>        -0.2052
      6 C5          0.0634   -2.7049   -2.4005 C.ar      1 <0>        -0.0095
      7 C6          0.0571   -2.0088   -3.6208 C.ar      1 <0>        -0.2285
      8 C7          0.0791   -0.6041   -3.6251 C.ar      1 <0>        -0.0136
      9 C8          0.1015    0.0789   -2.4465 C.ar      1 <0>        -0.2096
     10 C9          0.0283   -2.7459   -4.8858 C.2       1 <0>         0.3472
     11 C10        -1.1318   -2.6338   -5.7722 C.2       1 <0>        -0.2156
     12 C11        -2.2155   -1.8149   -5.4131 C.2       1 <0>         0.0427
     13 C12        -3.2932   -1.7123   -6.2402 C.2       1 <0>        -0.2291
     14 C13        -3.3218   -2.4218   -7.4458 C.2       1 <0>         0.3271
     15 N2         -4.4076   -2.3168   -8.2754 N.pl3     1 <0>        -0.5670
     16 C14        -5.5932   -1.5745   -7.8399 C.3       1 <0>         0.0599
     17 C15        -4.3827   -2.9470   -9.5977 C.3       1 <0>         0.0554
     18 C16        -2.2440   -3.2378   -7.8064 C.2       1 <0>        -0.2315
     19 C17        -1.1610   -3.3404   -6.9861 C.2       1 <0>         0.0418
     20 C18         1.1595   -3.5951   -5.2643 C.ar      1 <0>        -0.2294
     21 C19         1.4688   -4.7356   -4.5044 C.ar      1 <0>        -0.0083
     22 C20         2.5217   -5.5239   -4.8594 C.ar      1 <0>        -0.2091
     23 C21         3.2949   -5.1986   -5.9792 C.ar      1 <0>         0.2684
     24 C22         2.9897   -4.0632   -6.7377 C.ar      1 <0>        -0.2129
     25 C23         1.9343   -3.2743   -6.3915 C.ar      1 <0>        -0.0124
     26 N3          4.3537   -5.9934   -6.3335 N.pl3     1 <0>        -0.6054
     27 C24         4.6068   -7.2418   -5.6099 C.3       1 <0>         0.0752
     28 C25         5.2324   -5.5946   -7.4358 C.3       1 <0>         0.0714
     29 H1          1.1895    1.8885   -0.0733 H         1 <0>         0.0634
     30 H2         -0.3662    1.9033   -0.9380 H         1 <0>         0.0772
     31 H3         -0.3371    1.9103    0.8417 H         1 <0>         0.0797
     32 H4          0.1745    0.0566    2.0480 H         1 <0>         0.0849
     33 H5         -0.7436   -1.2708    1.2974 H         1 <0>         0.0666
     34 H6          1.0360   -1.2919    1.2684 H         1 <0>         0.0666
     35 H7          0.0955   -2.5508   -0.2869 H         1 <0>         0.1368
     36 H8          0.0469   -3.7848   -2.3941 H         1 <0>         0.1311
     37 H9          0.0744   -0.0662   -4.5616 H         1 <0>         0.1321
     38 H10         0.1143    1.1588   -2.4490 H         1 <0>         0.1385
     39 H11        -2.1943   -1.2676   -4.4823 H         1 <0>         0.1502
     40 H12        -4.1266   -1.0830   -5.9647 H         1 <0>         0.1496
     41 H13        -5.4962   -0.5296   -8.1347 H         1 <0>         0.0782
     42 H14        -6.4811   -2.0025   -8.3053 H         1 <0>         0.0920
     43 H15        -5.6843   -1.6391   -6.7557 H         1 <0>         0.0872
     44 H16        -3.4649   -3.5244   -9.7078 H         1 <0>         0.0932
     45 H17        -5.2428   -3.6085   -9.7012 H         1 <0>         0.0844
     46 H18        -4.4221   -2.1768  -10.3680 H         1 <0>         0.0828
     47 H19        -2.2688   -3.7839   -8.7378 H         1 <0>         0.1515
     48 H20        -0.3276   -3.9672   -7.2670 H         1 <0>         0.1501
     49 H21         0.8728   -4.9869   -3.6395 H         1 <0>         0.1313
     50 H22         2.7599   -6.4008   -4.2756 H         1 <0>         0.1387
     51 H23         3.5887   -3.8144   -7.6013 H         1 <0>         0.1403
     52 H24         1.6963   -2.4007   -6.9802 H         1 <0>         0.1323
     53 H25         4.0682   -8.0572   -6.0927 H         1 <0>         0.0638
     54 H26         5.6754   -7.4566   -5.6187 H         1 <0>         0.0794
     55 H27         4.2651   -7.1404   -4.5798 H         1 <0>         0.0780
     56 H28         4.8381   -4.6943   -7.9072 H         1 <0>         0.0851
     57 H29         6.2318   -5.3946   -7.0496 H         1 <0>         0.0679
     58 H30         5.2809   -6.3981   -8.1707 H         1 <0>         0.0706
@<TRIPOS>BOND
     1    1    2 1
     2    1   29 1
     3    1   30 1
     4    1   31 1
     5    2    3 1
     6    2    4 1
     7    3   32 1
     8    3   33 1
     9    3   34 1
    10    4    9 ar
    11    4    5 ar
    12    5    6 ar
    13    5   35 1
    14    6    7 ar
    15    6   36 1
    16    7    8 ar
    17    7   10 1
    18    8    9 ar
    19    8   37 1
    20    9   38 1
    21   10   11 2
    22   10   20 1
    23   11   19 1
    24   11   12 1
    25   12   13 2
    26   12   39 1
    27   13   14 1
    28   13   40 1
    29   14   15 2
    30   14   18 1
    31   15   16 1
    32   15   17 1
    33   16   41 1
    34   16   42 1
    35   16   43 1
    36   17   44 1
    37   17   45 1
    38   17   46 1
    39   18   19 2
    40   18   47 1
    41   19   48 1
    42   20   25 ar
    43   20   21 ar
    44   21   22 ar
    45   21   49 1
    46   22   23 ar
    47   22   50 1
    48   23   24 ar
    49   23   26 1
    50   24   25 ar
    51   24   51 1
    52   25   52 1
    53   26   27 1
    54   26   28 1
    55   27   53 1
    56   27   54 1
    57   27   55 1
    58   28   56 1
    59   28   57 1
    60   28   58 1
@<TRIPOS>MOLECULE
ZINC13981024
   27    29     0     0     0
SMALL
USER_CHARGES
4-(1-ethylimidazo[4,5-c]pyridin-2-yl)-1,2,5-oxadiazol-3-amine
@<TRIPOS>ATOM
      1 C1         -1.5864   -1.1894   -1.4308 C.3       1 <0>        -0.1670
      2 C2         -1.1654   -0.8891    0.0091 C.3       1 <0>         0.0988
      3 N1          0.0021   -0.0041    0.0020 N.pl3     1 <0>        -0.4647
      4 C3         -0.0166    1.3700    0.0096 C.ar      1 <0>         0.0894
      5 C4         -1.0112    2.3416    0.0293 C.ar      1 <0>        -0.1591
      6 C5         -0.6432    3.6696    0.0287 C.ar      1 <0>         0.1041
      7 N2          0.6297    4.0298    0.0184 N.ar      1 <0>        -0.4826
      8 C6          1.6108    3.1528    0.0040 C.ar      1 <0>         0.1849
      9 C7          1.3314    1.7841   -0.0011 C.ar      1 <0>        -0.0037
     10 N3          2.0909    0.6647   -0.0143 N.2       1 <0>        -0.4528
     11 C8          1.3161   -0.3921   -0.0126 C.2       1 <0>         0.3614
     12 C9          1.7892   -1.7940   -0.0242 C.2       1 <0>         0.0171
     13 C10         3.1804   -2.3031   -0.0462 C.2       1 <0>         0.3250
     14 N4          3.0078   -3.6042   -0.0455 N.2       1 <0>        -0.4089
     15 O1          1.8256   -3.8541   -0.0355 O.3       1 <0>         0.3400
     16 N5          1.0803   -2.9027   -0.0233 N.2       1 <0>        -0.3200
     17 N6          4.3685   -1.5844   -0.0608 N.pl3     1 <0>        -0.7993
     18 H1         -0.7645   -1.6764   -1.9556 H         1 <0>         0.0631
     19 H2         -2.4550   -1.8479   -1.4255 H         1 <0>         0.0850
     20 H3         -1.8397   -0.2580   -1.9371 H         1 <0>         0.0629
     21 H4         -0.9121   -1.8205    0.5154 H         1 <0>         0.1064
     22 H5         -1.9873   -0.4021    0.5339 H         1 <0>         0.0973
     23 H6         -2.0539    2.0603    0.0423 H         1 <0>         0.1372
     24 H7         -1.4088    4.4312    0.0404 H         1 <0>         0.1669
     25 H8          2.6359    3.4926   -0.0036 H         1 <0>         0.1700
     26 H9          4.3488   -0.6146   -0.0570 H         1 <0>         0.4303
     27 H10         5.2182   -2.0521   -0.0749 H         1 <0>         0.4185
@<TRIPOS>BOND
     1    1    2 1
     2    1   18 1
     3    1   19 1
     4    1   20 1
     5    2    3 1
     6    2   21 1
     7    2   22 1
     8    3   11 1
     9    3    4 1
    10    4    9 ar
    11    4    5 ar
    12    5    6 ar
    13    5   23 1
    14    6    7 ar
    15    6   24 1
    16    7    8 ar
    17    8    9 ar
    18    8   25 1
    19    9   10 1
    20   10   11 2
    21   11   12 1
    22   12   16 2
    23   12   13 1
    24   13   14 2
    25   13   17 1
    26   14   15 1
    27   15   16 1
    28   17   26 1
    29   17   27 1
@<TRIPOS>MOLECULE
ZINC13981024
   28    30     0     0     0
SMALL
USER_CHARGES
4-(1-ethylimidazo[4,5-c]pyridin-2-yl)-1,2,5-oxadiazol-3-amine
@<TRIPOS>ATOM
      1 C1         -1.5864   -1.1894   -1.4308 C.3       1 <0>        -0.1754
      2 C2         -1.1654   -0.8891    0.0091 C.3       1 <0>         0.0846
      3 N1          0.0021   -0.0041    0.0020 N.pl3     1 <0>        -0.4051
      4 C3         -0.0166    1.3700    0.0096 C.ar      1 <0>         0.1234
      5 C4         -1.0112    2.3416    0.0293 C.ar      1 <0>        -0.1341
      6 C5         -0.6432    3.6696    0.0287 C.ar      1 <0>         0.1473
      7 N2          0.6297    4.0298    0.0184 N.ar      1 <0>        -0.4393
      8 C6          1.6108    3.1528    0.0040 C.ar      1 <0>         0.1869
      9 C7          1.3314    1.7841   -0.0011 C.ar      1 <0>        -0.0058
     10 C8          1.3161   -0.3921   -0.0126 C.cat     1 <0>         0.4895
     11 C9          1.7892   -1.7940   -0.0242 C.2       1 <0>        -0.0625
     12 C10         3.1804   -2.3031   -0.0462 C.2       1 <0>         0.3286
     13 N3          3.0078   -3.6042   -0.0455 N.2       1 <0>        -0.3685
     14 O1          1.8256   -3.8541   -0.0355 O.3       1 <0>         0.4024
     15 N4          1.0803   -2.9027   -0.0233 N.2       1 <0>        -0.2761
     16 N5          4.3685   -1.5844   -0.0608 N.pl3     1 <0>        -0.7984
     17 H1         -0.7645   -1.6764   -1.9556 H         1 <0>         0.0696
     18 H2         -2.4550   -1.8479   -1.4255 H         1 <0>         0.1077
     19 H3         -1.8397   -0.2580   -1.9371 H         1 <0>         0.0743
     20 H4         -0.9121   -1.8205    0.5154 H         1 <0>         0.1264
     21 H5         -1.9873   -0.4021    0.5339 H         1 <0>         0.1292
     22 H6         -2.0539    2.0603    0.0423 H         1 <0>         0.1690
     23 H7         -1.4088    4.4312    0.0404 H         1 <0>         0.1943
     24 H8          2.6359    3.4926   -0.0036 H         1 <0>         0.1911
     25 H9          4.3488   -0.6146   -0.0570 H         1 <0>         0.4102
     26 H10         5.2182   -2.0521   -0.0749 H         1 <0>         0.4388
     27 N6          2.0917    0.6647   -0.0143 N.pl3     1 <0>        -0.4784
     28 H11         3.1182    0.6460   -0.0242 H         1 <0>         0.4702
@<TRIPOS>BOND
     1    1    2 1
     2    1   17 1
     3    1   18 1
     4    1   19 1
     5    2    3 1
     6    2   20 1
     7    2   21 1
     8    3   10 1
     9    3    4 1
    10    4    9 ar
    11    4    5 ar
    12    5    6 ar
    13    5   22 1
    14    6    7 ar
    15    6   23 1
    16    7    8 ar
    17    8    9 ar
    18    8   24 1
    19    9   27 1
    20   10   11 1
    21   10   27 2
    22   11   15 2
    23   11   12 1
    24   12   13 2
    25   12   16 1
    26   13   14 1
    27   14   15 1
    28   16   25 1
    29   16   26 1
    30   27   28 1
@<TRIPOS>MOLECULE
ZINC03938688
   39    41     0     0     0
SMALL
USER_CHARGES

@<TRIPOS>ATOM
      1 C1         -0.0095    1.3826    0.0704 C.ar      1 <0>        -0.0343
      2 C2          0.5587    1.0580   -1.1482 C.ar      1 <0>        -0.1609
      3 C3          1.7655    0.3862   -1.1955 C.ar      1 <0>         0.1753
      4 C4          2.4129    0.0342   -0.0053 C.ar      1 <0>        -0.1954
      5 C5          1.8304    0.3669    1.2233 C.ar      1 <0>         0.1741
      6 C6          0.6231    1.0388    1.2514 C.ar      1 <0>        -0.1610
      7 F1          2.4463    0.0317    2.3781 F         1 <0>        -0.1212
      8 C7          3.6999   -0.6827   -0.0456 C.2       1 <0>         0.6210
      9 O1          4.7383   -0.0615   -0.1600 O.2       1 <0>        -0.4669
     10 N1          3.7255   -2.0272    0.0446 N.am      1 <0>        -0.3962
     11 C8          4.8314   -2.8210    0.1249 C.2       1 <0>         0.5948
     12 N2          4.4249   -4.0694    0.1979 N.2       1 <0>        -0.5873
     13 C9          3.0869   -4.1118    0.1675 C.2       1 <0>         0.5191
     14 N3          2.6183   -2.8904    0.0808 N.2       1 <0>        -0.3480
     15 N4          2.3148   -5.2702    0.2247 N.pl3     1 <0>        -0.6226
     16 C10         2.9267   -6.5079    0.4407 C.ar      1 <0>         0.2365
     17 C11         4.1432   -6.5760    1.1080 C.ar      1 <0>        -0.1584
     18 C12         4.7450   -7.8008    1.3202 C.ar      1 <0>         0.0098
     19 C13         4.1379   -8.9586    0.8692 C.ar      1 <0>        -0.7033
     20 C14         2.9269   -8.8944    0.2046 C.ar      1 <0>         0.0112
     21 C15         2.3170   -7.6734   -0.0063 C.ar      1 <0>        -0.1777
     22 S1          4.9094  -10.5191    1.1415 S.o2      1 <0>         2.7034
     23 O2          4.4084  -11.3993    0.1448 O.2       1 <0>        -0.9656
     24 O3          6.2977  -10.2630    1.3036 O.2       1 <0>        -0.9650
     25 N5          4.3605  -11.0895    2.5960 N.pl3     1 <0>        -1.2510
     26 N6          6.1422   -2.3912    0.1281 N.pl3     1 <0>        -0.7911
     27 F2          2.3185    0.0697   -2.3868 F         1 <0>        -0.1201
     28 H1         -0.9506    1.9116    0.0998 H         1 <0>         0.1546
     29 H2          0.0576    1.3300   -2.0654 H         1 <0>         0.1549
     30 H3          0.1721    1.2963    2.1984 H         1 <0>         0.1546
     31 H4          1.3525   -5.2176    0.1147 H         1 <0>         0.4325
     32 H5          4.6180   -5.6722    1.4601 H         1 <0>         0.1556
     33 H6          5.6909   -7.8544    1.8385 H         1 <0>         0.1456
     34 H7          2.4556   -9.8005   -0.1466 H         1 <0>         0.1475
     35 H8          1.3691   -7.6243   -0.5215 H         1 <0>         0.1387
     36 H9          3.7284  -10.5673    3.1145 H         1 <0>         0.4165
     37 H10         4.6709  -11.9458    2.9296 H         1 <0>         0.4206
     38 H11         6.3422   -1.4439    0.0694 H         1 <0>         0.4292
     39 H12         6.8640   -3.0364    0.1890 H         1 <0>         0.4303
@<TRIPOS>BOND
     1    1    6 ar
     2    1    2 ar
     3    1   28 1
     4    2    3 ar
     5    2   29 1
     6    3    4 ar
     7    3   27 1
     8    4    5 ar
     9    4    8 1
    10    5    6 ar
    11    5    7 1
    12    6   30 1
    13    8    9 2
    14    8   10 am
    15   10   14 1
    16   10   11 1
    17   11   12 2
    18   11   26 1
    19   12   13 1
    20   13   14 2
    21   13   15 1
    22   15   16 1
    23   15   31 1
    24   16   21 ar
    25   16   17 ar
    26   17   18 ar
    27   17   32 1
    28   18   19 ar
    29   18   33 1
    30   19   20 ar
    31   19   22 1
    32   20   21 ar
    33   20   34 1
    34   21   35 1
    35   22   23 2
    36   22   24 2
    37   22   25 1
    38   25   36 1
    39   25   37 1
    40   26   38 1
    41   26   39 1
@<TRIPOS>MOLECULE
ZINC14959960
   46    47     0     0     0
SMALL
USER_CHARGES

@<TRIPOS>ATOM
      1 C1          2.8824   -6.4072    4.7168 C.3       1 <0>        -0.1552
      2 C2          2.1528   -5.8740    3.4821 C.3       1 <0>         0.0698
      3 O1          2.1422   -4.4455    3.5150 O.3       1 <0>        -0.2974
      4 C3          1.5303   -3.8111    2.4862 C.ar      1 <0>         0.4422
      5 C4          1.4912   -2.4091    2.4579 C.ar      1 <0>        -0.2167
      6 C5          0.8492   -1.7688    1.3776 C.ar      1 <0>         0.3538
      7 C6          0.2819   -2.5616    0.3859 C.ar      1 <0>        -0.3271
      8 C7          0.3649   -3.9424    0.4899 C.ar      1 <0>         0.4673
      9 N1          0.9799   -4.5179    1.5150 N.ar      1 <0>        -0.5640
     10 N2         -0.2018   -4.7376   -0.5010 N.am      1 <0>        -0.6596
     11 C8         -0.0402   -6.0752   -0.4661 C.2       1 <0>         0.5088
     12 O2          0.5194   -6.5939    0.4765 O.2       1 <0>        -0.4507
     13 C9         -0.5549   -6.9261   -1.5983 C.3       1 <0>        -0.0901
     14 C10        -0.2496   -8.3748   -1.3169 C.ar      1 <0>        -0.0653
     15 C11         0.8944   -8.9525   -1.8328 C.ar      1 <0>        -0.0983
     16 C12         1.1756  -10.2855   -1.5735 C.ar      1 <0>         0.0937
     17 C13         0.3082  -11.0388   -0.7960 C.ar      1 <0>        -0.1638
     18 C14        -0.8354  -10.4613   -0.2803 C.ar      1 <0>        -0.1672
     19 C15        -1.1140   -9.1265   -0.5354 C.ar      1 <0>         0.1111
     20 O3         -2.2372   -8.5563   -0.0229 O.3       1 <0>        -0.3149
     21 C16        -3.0823   -9.3894    0.7732 C.3       1 <0>         0.0284
     22 O4          2.3014  -10.8542   -2.0817 O.3       1 <0>        -0.3174
     23 C17         2.5280  -12.2313   -1.7744 C.3       1 <0>         0.0276
     24 N3          0.7849   -0.3856    1.3065 N.pl3     1 <0>        -0.8432
     25 C18         2.0920   -1.6418    3.5072 C.1       1 <0>         0.2733
     26 N4          2.5686   -1.0332    4.3395 N.1       1 <0>        -0.4293
     27 H1          2.3690   -6.0683    5.6167 H         1 <0>         0.0639
     28 H2          2.8905   -7.4969    4.6917 H         1 <0>         0.0806
     29 H3          3.9073   -6.0362    4.7217 H         1 <0>         0.0643
     30 H4          2.6662   -6.2129    2.5823 H         1 <0>         0.0746
     31 H5          1.1279   -6.2450    3.4773 H         1 <0>         0.0734
     32 H6         -0.2184   -2.1070   -0.4564 H         1 <0>         0.1464
     33 H7         -0.7132   -4.3294   -1.2170 H         1 <0>         0.4216
     34 H8         -1.6327   -6.7935   -1.6917 H         1 <0>         0.1130
     35 H9         -0.0701   -6.6265   -2.5275 H         1 <0>         0.1091
     36 H10         1.5696   -8.3661   -2.4384 H         1 <0>         0.1371
     37 H11         0.5270  -12.0770   -0.5944 H         1 <0>         0.1309
     38 H12        -1.5111  -11.0479    0.3244 H         1 <0>         0.1316
     39 H13        -3.4285  -10.2326    0.1754 H         1 <0>         0.0547
     40 H14        -2.5230   -9.7587    1.6327 H         1 <0>         0.0549
     41 H15        -3.9401   -8.8124    1.1185 H         1 <0>         0.0997
     42 H16         3.4575  -12.5592   -2.2399 H         1 <0>         0.1005
     43 H17         2.5992  -12.3555   -0.6939 H         1 <0>         0.0547
     44 H18         1.7002  -12.8295   -2.1552 H         1 <0>         0.0545
     45 H19         1.1847    0.1551    2.0056 H         1 <0>         0.4070
     46 H20         0.3401    0.0415    0.5577 H         1 <0>         0.4117
@<TRIPOS>BOND
     1    1    2 1
     2    1   27 1
     3    1   28 1
     4    1   29 1
     5    2    3 1
     6    2   30 1
     7    2   31 1
     8    3    4 1
     9    4    9 ar
    10    4    5 ar
    11    5    6 ar
    12    5   25 1
    13    6    7 ar
    14    6   24 1
    15    7    8 ar
    16    7   32 1
    17    8    9 ar
    18    8   10 1
    19   10   11 am
    20   10   33 1
    21   11   12 2
    22   11   13 1
    23   13   14 1
    24   13   34 1
    25   13   35 1
    26   14   19 ar
    27   14   15 ar
    28   15   16 ar
    29   15   36 1
    30   16   17 ar
    31   16   22 1
    32   17   18 ar
    33   17   37 1
    34   18   19 ar
    35   18   38 1
    36   19   20 1
    37   20   21 1
    38   21   39 1
    39   21   40 1
    40   21   41 1
    41   22   23 1
    42   23   42 1
    43   23   43 1
    44   23   44 1
    45   24   45 1
    46   24   46 1
    47   25   26 3
@<TRIPOS>MOLECULE
ZINC12504479
   39    42     0     0     0
SMALL
USER_CHARGES
tert-butyl-fluoro-BLAHone
@<TRIPOS>ATOM
      1 C1          0.0306    7.5665   -1.3573 C.3       1 <0>        -0.1435
      2 C2         -0.0131    6.9316    0.0341 C.3       1 <0>         0.0141
      3 C3         -1.4663    6.6486    0.4201 C.3       1 <0>        -0.1303
      4 C4          0.6075    7.8907    1.0520 C.3       1 <0>        -0.1484
      5 C5          0.7640    5.6405    0.0218 C.2       1 <0>         0.2640
      6 N1          2.1200    5.5432    0.0086 N.pl3     1 <0>        -0.5660
      7 H1          2.7692    6.3038    0.0059 H         1 <0>         0.4300
      8 C6          2.4322    4.2055   -0.0004 C.ar      1 <0>         0.0707
      9 C7          3.6945    3.4726   -0.0160 C.ar      1 <0>        -0.0387
     10 C8          4.9179    4.1553   -0.0241 C.ar      1 <0>        -0.0830
     11 C9          6.0889    3.4567   -0.0382 C.ar      1 <0>        -0.1479
     12 C10         6.0877    2.0644   -0.0451 C.ar      1 <0>         0.1067
     13 C11         4.9015    1.3651   -0.0371 C.ar      1 <0>        -0.1434
     14 C12         3.6874    2.0596   -0.0226 C.ar      1 <0>         0.0348
     15 C13         2.4115    1.3424   -0.0138 C.ar      1 <0>        -0.1820
     16 C14         1.2049    2.0599    0.0016 C.ar      1 <0>         0.1180
     17 C15         1.2195    3.5214    0.0080 C.ar      1 <0>         0.0317
     18 N2          0.2386    4.4495    0.0214 N.2       1 <0>        -0.4565
     19 C16        -0.0162    1.3425    0.0094 C.2       1 <0>        -0.2034
     20 C17         0.0021   -0.0041    0.0020 C.2       1 <0>         0.1350
     21 N3          1.1742   -0.7011   -0.0125 N.am      1 <0>        -0.6142
     22 H2          1.1491   -1.6708   -0.0168 H         1 <0>         0.4195
     23 C18         2.3662   -0.0731   -0.0205 C.2       1 <0>         0.5428
     24 O1          3.3998   -0.7196   -0.0338 O.2       1 <0>        -0.5363
     25 F1          7.2604    1.3938   -0.0600 F         1 <0>        -0.1343
     26 H3         -0.4115    6.8833   -2.0824 H         1 <0>         0.0650
     27 H4         -0.5315    8.5004   -1.3483 H         1 <0>         0.0730
     28 H5          1.0659    7.7682   -1.6323 H         1 <0>         0.0547
     29 H6         -1.4974    6.1963    1.4114 H         1 <0>         0.0620
     30 H7         -2.0283    7.5824    0.4291 H         1 <0>         0.0642
     31 H8         -1.9084    5.9653   -0.3050 H         1 <0>         0.0701
     32 H9          1.6428    8.0923    0.7770 H         1 <0>         0.0535
     33 H10         0.0454    8.8245    1.0609 H         1 <0>         0.0757
     34 H11         0.5764    7.4384    2.0432 H         1 <0>         0.0638
     35 H12         4.9335    5.2351   -0.0195 H         1 <0>         0.1298
     36 H13         7.0282    3.9897   -0.0443 H         1 <0>         0.1393
     37 H14         4.9085    0.2852   -0.0418 H         1 <0>         0.1812
     38 H15        -0.9571    1.8725    0.0168 H         1 <0>         0.1577
     39 H16        -0.9330   -0.5444    0.0080 H         1 <0>         0.1706
@<TRIPOS>BOND
     1    1    2 1
     2    1   26 1
     3    1   27 1
     4    1   28 1
     5    2    3 1
     6    2    4 1
     7    2    5 1
     8    3   29 1
     9    3   30 1
    10    3   31 1
    11    4   32 1
    12    4   33 1
    13    4   34 1
    14    5   18 2
    15    5    6 1
    16    6    7 1
    17    6    8 1
    18    8   17 ar
    19    8    9 ar
    20    9   14 ar
    21    9   10 ar
    22   10   11 ar
    23   10   35 1
    24   11   12 ar
    25   11   36 1
    26   12   13 ar
    27   12   25 1
    28   13   14 ar
    29   13   37 1
    30   14   15 ar
    31   15   23 1
    32   15   16 ar
    33   16   17 ar
    34   16   19 1
    35   17   18 1
    36   19   20 2
    37   19   38 1
    38   20   21 1
    39   20   39 1
    40   21   22 1
    41   21   23 am
    42   23   24 2
@<TRIPOS>MOLECULE
ZINC17782150
   26    27     0     0     0
SMALL
USER_CHARGES

@<TRIPOS>ATOM
      1 C1          1.2107    0.1110   -0.3167 C.ar      1 <0>        -0.0845
      2 C2          2.3695    0.6247   -0.8574 C.ar      1 <0>        -0.1353
      3 C3          2.4406    0.9025   -2.2165 C.ar      1 <0>         0.1143
      4 C4          1.3452    0.6641   -3.0367 C.ar      1 <0>        -0.1360
      5 C5          0.1823    0.1506   -2.5047 C.ar      1 <0>        -0.0742
      6 C6          0.1062   -0.1304   -1.1380 C.ar      1 <0>         0.0044
      7 N1         -1.0458   -0.6406   -0.6057 N.2       1 <0>        -0.1879
      8 N2         -1.0418   -1.8093   -0.0598 N.2       1 <0>        -0.0741
      9 C7          0.0830   -2.5712   -0.0938 C.2       1 <0>        -0.2800
     10 C8          0.6978   -3.1916    0.9919 C.2       1 <0>         0.4511
     11 N3          1.7806   -3.8437    0.5189 N.pl3     1 <0>        -0.4845
     12 H1          2.4027   -4.3664    1.0487 H         1 <0>         0.4440
     13 N4          1.8562   -3.6401   -0.8630 N.2       1 <0>        -0.3488
     14 C9          0.8522   -2.8919   -1.2429 C.2       1 <0>         0.3951
     15 N5          0.5863   -2.4778   -2.5498 N.pl3     1 <0>        -0.8342
     16 N6          0.2770   -3.1474    2.3083 N.pl3     1 <0>        -0.8307
     17 O1          3.5849    1.4093   -2.7452 O.3       1 <0>        -0.4982
     18 H2          1.1578   -0.1088    0.7393 H         1 <0>         0.1196
     19 H3          3.2235    0.8119   -0.2234 H         1 <0>         0.1292
     20 H4          1.4048    0.8819   -4.0928 H         1 <0>         0.1346
     21 H5         -0.6689   -0.0344   -3.1432 H         1 <0>         0.1333
     22 H6         -0.2564   -2.0454   -2.7596 H         1 <0>         0.4089
     23 H7          1.2441   -2.6224   -3.2478 H         1 <0>         0.4071
     24 H8         -0.5195   -2.6474    2.5463 H         1 <0>         0.4262
     25 H9          0.7782   -3.6163    2.9937 H         1 <0>         0.4085
     26 H10         4.2088    0.7365   -3.0504 H         1 <0>         0.3919
@<TRIPOS>BOND
     1    1    6 ar
     2    1    2 ar
     3    1   18 1
     4    2    3 ar
     5    2   19 1
     6    3    4 ar
     7    3   17 1
     8    4    5 ar
     9    4   20 1
    10    5    6 ar
    11    5   21 1
    12    6    7 1
    13    7    8 2
    14    8    9 1
    15    9   14 1
    16    9   10 2
    17   10   11 1
    18   10   16 1
    19   11   12 1
    20   11   13 1
    21   13   14 2
    22   14   15 1
    23   15   22 1
    24   15   23 1
    25   16   24 1
    26   16   25 1
    27   17   26 1
@<TRIPOS>MOLECULE
ZINC17782150
   26    27     0     0     0
SMALL
USER_CHARGES

@<TRIPOS>ATOM
      1 C1         -0.0174    1.4084   -0.0035 C.2       1 <0>         0.0112
      2 C2          1.1490    2.1020   -0.0127 C.2       1 <0>        -0.2354
      3 C3          2.3781    1.4147   -0.0189 C.2       1 <0>         0.3914
      4 O1          3.4293    2.0422   -0.0276 O.2       1 <0>        -0.4959
      5 C4          2.4000    0.0066   -0.0146 C.2       1 <0>        -0.2038
      6 C5          1.2360   -0.6911   -0.0055 C.2       1 <0>        -0.0732
      7 C6          0.0020   -0.0039    0.0003 C.2       1 <0>        -0.0408
      8 N1         -1.1439   -0.6880    0.0093 N.2       1 <0>        -0.1200
      9 N2         -1.1284   -1.9737   -0.0951 N.pl3     1 <0>        -0.3983
     10 C7         -2.3258   -2.6792   -0.1925 C.2       1 <0>        -0.1356
     11 C8         -2.4915   -4.0393   -0.0144 C.2       1 <0>         0.3946
     12 N3         -3.8094   -4.3124   -0.1979 N.pl3     1 <0>        -0.4817
     13 H1         -4.2228   -5.1876   -0.1354 H         1 <0>         0.4481
     14 N4         -4.4681   -3.1130   -0.4923 N.2       1 <0>        -0.3445
     15 C9         -3.5945   -2.1362   -0.4850 C.2       1 <0>         0.3948
     16 N5         -3.8720   -0.7869   -0.7289 N.pl3     1 <0>        -0.8316
     17 N6         -1.4956   -4.9568    0.2943 N.pl3     1 <0>        -0.8462
     18 H2         -0.9598    1.9360    0.0053 H         1 <0>         0.1368
     19 H3          1.1347    3.1819   -0.0156 H         1 <0>         0.1403
     20 H4          3.3438   -0.5184   -0.0190 H         1 <0>         0.1354
     21 H5          1.2532   -1.7710   -0.0029 H         1 <0>         0.1156
     22 H6         -0.2830   -2.4492   -0.1059 H         1 <0>         0.3885
     23 H7         -3.1564   -0.1325   -0.7044 H         1 <0>         0.4173
     24 H8         -4.7799   -0.5057   -0.9226 H         1 <0>         0.4065
     25 H9         -0.5792   -4.6589    0.4052 H         1 <0>         0.4149
     26 H10        -1.7165   -5.8955    0.3990 H         1 <0>         0.4118
@<TRIPOS>BOND
     1    1    7 1
     2    1    2 2
     3    1   18 1
     4    2    3 1
     5    2   19 1
     6    3    4 2
     7    3    5 1
     8    5    6 2
     9    5   20 1
    10    6    7 1
    11    6   21 1
    12    7    8 2
    13    8    9 1
    14    9   10 1
    15    9   22 1
    16   10   15 1
    17   10   11 2
    18   11   12 1
    19   11   17 1
    20   12   13 1
    21   12   14 1
    22   14   15 2
    23   15   16 1
    24   16   23 1
    25   16   24 1
    26   17   25 1
    27   17   26 1
@<TRIPOS>MOLECULE
ZINC17782150
   27    28     0     0     0
SMALL
USER_CHARGES

@<TRIPOS>ATOM
      1 C1         -0.0175    1.4085   -0.0037 C.2       1 <0>        -0.0225
      2 C2          1.1489    2.1020   -0.0131 C.2       1 <0>        -0.1922
      3 C3          2.3781    1.4147   -0.0189 C.2       1 <0>         0.3825
      4 O1          3.4292    2.0423   -0.0270 O.2       1 <0>        -0.4508
      5 C4          2.3999    0.0066   -0.0151 C.2       1 <0>        -0.1577
      6 C5          1.2360   -0.6911   -0.0058 C.2       1 <0>        -0.1054
      7 C6          0.0020   -0.0039    0.0001 C.2       1 <0>         0.0536
      8 N1         -1.1438   -0.6880    0.0097 N.2       1 <0>        -0.1779
      9 N2         -1.1284   -1.9737   -0.0947 N.pl3     1 <0>        -0.4557
     10 C7         -2.3266   -2.6796   -0.1916 C.2       1 <0>        -0.0807
     11 C8         -3.6016   -2.1885    0.0927 C.2       1 <0>         0.5070
     12 N3         -4.4718   -3.1700   -0.1238 N.pl3     1 <0>        -0.4351
     13 H1         -5.4329   -3.1104   -0.0067 H         1 <0>         0.4767
     14 N4         -3.7697   -4.3033   -0.5496 N.pl3     1 <0>        -0.4320
     15 C9         -2.4745   -4.0069   -0.5968 C.cat     1 <0>         0.4909
     16 N5         -1.4497   -4.8669   -0.9789 N.pl3     1 <0>        -0.8015
     17 N6         -3.9072   -0.9022    0.5261 N.pl3     1 <0>        -0.7849
     18 H2         -0.9598    1.9360    0.0052 H         1 <0>         0.1445
     19 H3          1.1346    3.1819   -0.0164 H         1 <0>         0.1516
     20 H4          3.3437   -0.5184   -0.0200 H         1 <0>         0.1472
     21 H5          1.2533   -1.7710   -0.0032 H         1 <0>         0.1241
     22 H6         -0.2830   -2.4492   -0.1058 H         1 <0>         0.4009
     23 H7         -0.5307   -4.5565   -0.9784 H         1 <0>         0.4379
     24 H8         -1.6542   -5.7767   -1.2456 H         1 <0>         0.4301
     25 H9         -3.1983   -0.2530    0.6563 H         1 <0>         0.4474
     26 H10        -4.8292   -0.6546    0.6981 H         1 <0>         0.4249
     27 H11        -4.1627   -5.1606   -0.7763 H         1 <0>         0.4771
@<TRIPOS>BOND
     1    1    7 1
     2    1    2 2
     3    1   18 1
     4    2    3 1
     5    2   19 1
     6    3    4 2
     7    3    5 1
     8    5    6 2
     9    5   20 1
    10    6    7 1
    11    6   21 1
    12    7    8 2
    13    8    9 1
    14    9   10 1
    15    9   22 1
    16   10   15 1
    17   10   11 2
    18   11   12 1
    19   11   17 1
    20   12   13 1
    21   12   14 1
    22   14   15 2
    23   14   27 1
    24   15   16 1
    25   16   23 1
    26   16   24 1
    27   17   25 1
    28   17   26 1
@<TRIPOS>MOLECULE
ZINC17782150
   27    28     0     0     0
SMALL
USER_CHARGES

@<TRIPOS>ATOM
      1 C1         -0.0671    0.1506   -2.4543 C.ar      1 <0>        -0.0780
      2 C2          1.0595    0.7606   -2.9618 C.ar      1 <0>        -0.1323
      3 C3          2.1414    1.0263   -2.1322 C.ar      1 <0>         0.1375
      4 C4          2.0935    0.6783   -0.7884 C.ar      1 <0>        -0.1371
      5 C5          0.9712    0.0675   -0.2723 C.ar      1 <0>        -0.0871
      6 C6         -0.1200   -0.2008   -1.1029 C.ar      1 <0>        -0.0437
      7 N1         -1.2364   -0.8062   -0.5947 N.2       1 <0>        -0.1165
      8 N2         -1.1558   -1.9926   -0.0947 N.2       1 <0>        -0.0827
      9 C7          0.0298   -2.6576   -0.1101 C.2       1 <0>        -0.2485
     10 C8          0.6721   -3.2493    0.9916 C.2       1 <0>         0.5430
     11 N3          1.7996   -3.7946    0.5541 N.pl3     1 <0>        -0.4351
     12 H1          2.4438   -4.2722    1.0997 H         1 <0>         0.4754
     13 N4          1.9080   -3.5694   -0.8222 N.pl3     1 <0>        -0.4342
     14 C9          0.8445   -2.8903   -1.2320 C.cat     1 <0>         0.5159
     15 N5          0.5851   -2.4808   -2.5317 N.pl3     1 <0>        -0.7884
     16 N6          0.2106   -3.2605    2.2997 N.pl3     1 <0>        -0.7813
     17 O1          3.2501    1.6279   -2.6368 O.3       1 <0>        -0.4969
     18 H2         -0.9096   -0.0516   -3.0990 H         1 <0>         0.1475
     19 H3          1.1014    1.0322   -4.0063 H         1 <0>         0.1476
     20 H4          2.9371    0.8865   -0.1470 H         1 <0>         0.1404
     21 H5          0.9350   -0.2033    0.7726 H         1 <0>         0.1284
     22 H6         -0.2238   -1.9840   -2.7314 H         1 <0>         0.4390
     23 H7          1.2125   -2.6913   -3.2409 H         1 <0>         0.4283
     24 H8         -0.5925   -2.7700    2.5349 H         1 <0>         0.4487
     25 H9          0.6911   -3.7589    2.9792 H         1 <0>         0.4290
     26 H10         3.2291    2.5936   -2.5905 H         1 <0>         0.4068
     27 H11         2.6401   -3.8647   -1.3860 H         1 <0>         0.4741
@<TRIPOS>BOND
     1    1    6 ar
     2    1    2 ar
     3    1   18 1
     4    2    3 ar
     5    2   19 1
     6    3    4 ar
     7    3   17 1
     8    4    5 ar
     9    4   20 1
    10    5    6 ar
    11    5   21 1
    12    6    7 1
    13    7    8 2
    14    8    9 1
    15    9   14 1
    16    9   10 2
    17   10   11 1
    18   10   16 1
    19   11   12 1
    20   11   13 1
    21   13   14 2
    22   13   27 1
    23   14   15 1
    24   15   22 1
    25   15   23 1
    26   16   24 1
    27   16   25 1
    28   17   26 1
@<TRIPOS>MOLECULE
ZINC17782150
   27    28     0     0     0
SMALL
USER_CHARGES

@<TRIPOS>ATOM
      1 C1         -0.0169    1.3931    0.0097 C.ar      1 <0>        -0.0402
      2 C2          1.1683    2.0962    0.0022 C.ar      1 <0>        -0.1473
      3 C3          2.3804    1.4181   -0.0131 C.ar      1 <0>         0.1484
      4 C4          2.4041    0.0293   -0.0212 C.ar      1 <0>        -0.1491
      5 C5          1.2238   -0.6820   -0.0142 C.ar      1 <0>        -0.0792
      6 C6          0.0021   -0.0041    0.0020 C.ar      1 <0>         0.0315
      7 N1         -1.1719   -0.7061    0.0099 N.2       1 <0>        -0.2435
      8 N2         -1.1522   -1.9959    0.0028 N.2       1 <0>        -0.1650
      9 C7         -2.3190   -2.6936    0.0106 C.2       1 <0>        -0.1586
     10 C8         -3.6171   -2.1538    0.0203 C.2       1 <0>         0.5109
     11 N3         -4.4735   -3.1670    0.0249 N.pl3     1 <0>        -0.4430
     12 H1         -5.4402   -3.0882    0.0311 H         1 <0>         0.4722
     13 N4         -3.7556   -4.3676    0.0184 N.pl3     1 <0>        -0.4369
     14 C9         -2.4578   -4.0926    0.0045 C.cat     1 <0>         0.5506
     15 N5         -1.4246   -5.0181   -0.0100 N.pl3     1 <0>        -0.7763
     16 N6         -3.9434   -0.8056    0.0246 N.pl3     1 <0>        -0.7729
     17 O1          3.5464    2.1154   -0.0204 O.3       1 <0>        -0.4956
     18 H2         -0.9589    1.9211    0.0260 H         1 <0>         0.1407
     19 H3          1.1546    3.1761    0.0077 H         1 <0>         0.1446
     20 H4          3.3488   -0.4938   -0.0334 H         1 <0>         0.1392
     21 H5          1.2431   -1.7618   -0.0213 H         1 <0>         0.1398
     22 H6         -0.5029   -4.7160   -0.0170 H         1 <0>         0.4492
     23 H7         -1.6239   -5.9674   -0.0132 H         1 <0>         0.4280
     24 H8         -3.2410   -0.1366    0.0209 H         1 <0>         0.4506
     25 H9         -4.8739   -0.5319    0.0313 H         1 <0>         0.4236
     26 H10         3.8924    2.3125    0.8608 H         1 <0>         0.4024
     27 H11        -4.1436   -5.2566    0.0204 H         1 <0>         0.4759
@<TRIPOS>BOND
     1    1    6 ar
     2    1    2 ar
     3    1   18 1
     4    2    3 ar
     5    2   19 1
     6    3    4 ar
     7    3   17 1
     8    4    5 ar
     9    4   20 1
    10    5    6 ar
    11    5   21 1
    12    6    7 1
    13    7    8 2
    14    8    9 1
    15    9   14 1
    16    9   10 2
    17   10   11 1
    18   10   16 1
    19   11   12 1
    20   11   13 1
    21   13   14 2
    22   13   27 1
    23   14   15 1
    24   15   22 1
    25   15   23 1
    26   16   24 1
    27   16   25 1
    28   17   26 1
@<TRIPOS>MOLECULE
ZINC24811973
   71    76     0     0     0
SMALL
USER_CHARGES
N-(5-chloro-1,3-benzodioxol-4-yl)-7-[2-(4-methylpiperazin-1-yl)ethoxy]-5-tetrahydropyran-4-yloxy-quinazolin-4-amine
@<TRIPOS>ATOM
      1 C1          7.5655    6.2744    4.3229 C.3       1 <0>        -0.0453
      2 N1          6.9185    4.9776    4.0827 N.4       1 <0>        -0.4025
      3 C2          5.4989    5.0194    4.4603 C.3       1 <0>         0.0006
      4 C3          4.8821    3.6316    4.2705 C.3       1 <0>         0.0191
      5 N2          5.0395    3.2159    2.8697 N.3       1 <0>        -0.5340
      6 C4          6.4591    3.1741    2.4921 C.3       1 <0>         0.0256
      7 C5          7.0759    4.5619    2.6820 C.3       1 <0>         0.0003
      8 C6          4.3925    1.9191    2.6296 C.3       1 <0>         0.0546
      9 C7          2.8759    2.1102    2.5640 C.3       1 <0>         0.0573
     10 O1          2.5474    2.9314    1.4415 O.3       1 <0>        -0.2956
     11 C8          1.2320    3.2001    1.2382 C.ar      1 <0>         0.2139
     12 C9          0.2891    2.6820    2.1028 C.ar      1 <0>        -0.2556
     13 C10        -1.0666    2.9521    1.8929 C.ar      1 <0>         0.2617
     14 C11        -1.4550    3.7658    0.7994 C.ar      1 <0>        -0.2443
     15 C12        -0.4786    4.2833   -0.0680 C.ar      1 <0>         0.2316
     16 C13         0.8507    3.9969    0.1584 C.ar      1 <0>        -0.2679
     17 O2         -0.8412    5.0596   -1.1206 O.3       1 <0>        -0.3196
     18 C14         0.2045    5.5149   -1.9816 C.3       1 <0>         0.0868
     19 C15         0.8408    6.7773   -1.3918 C.3       1 <0>        -0.1819
     20 C16         1.9040    7.3033   -2.3597 C.3       1 <0>         0.0642
     21 O3          1.3058    7.5588   -3.6321 O.3       1 <0>        -0.3754
     22 C17         0.7375    6.4035   -4.2522 C.3       1 <0>         0.0639
     23 C18        -0.3741    5.8427   -3.3615 C.3       1 <0>        -0.1585
     24 C19        -2.8318    4.0257    0.6163 C.ar      1 <0>         0.5015
     25 N3         -3.6910    3.4986    1.4806 N.ar      1 <0>        -0.5890
     26 C20        -3.2828    2.7482    2.4909 C.ar      1 <0>         0.3723
     27 N4         -2.0187    2.4733    2.7099 N.ar      1 <0>        -0.5672
     28 N5         -3.2714    4.8066   -0.4322 N.pl3     1 <0>        -0.6413
     29 C21        -4.6269    5.1462   -0.5324 C.ar      1 <0>         0.1713
     30 C22        -5.5908    4.1480   -0.6043 C.ar      1 <0>        -0.0138
     31 C23        -6.9287    4.4835   -0.6963 C.ar      1 <0>        -0.0868
     32 C24        -7.3118    5.8118   -0.7302 C.ar      1 <0>        -0.0893
     33 C25        -6.3565    6.8144   -0.6652 C.ar      1 <0>         0.0501
     34 C26        -5.0093    6.4829   -0.5658 C.ar      1 <0>         0.0316
     35 O4         -4.2778    7.6354   -0.5173 O.3       1 <0>        -0.3024
     36 C27        -5.1574    8.6689   -0.9986 C.3       1 <0>         0.2077
     37 O5         -6.4715    8.1749   -0.6789 O.3       1 <0>        -0.2967
     38 Cl1        -5.1153    2.4788   -0.5700 Cl        1 <0>        -0.0325
     39 H1          7.4326    6.5608    5.3766 H         1 <0>         0.1247
     40 H2          7.1092    7.0374    3.6751 H         1 <0>         0.1198
     41 H3          8.6392    6.1959    4.0968 H         1 <0>         0.1251
     42 H4          5.4086    5.3208    5.5143 H         1 <0>         0.1365
     43 H5          4.9716    5.7461    3.8247 H         1 <0>         0.1349
     44 H6          5.3914    2.9111    4.9273 H         1 <0>         0.0633
     45 H7          3.8126    3.6677    4.5254 H         1 <0>         0.1226
     46 H8          6.9863    2.4474    3.1277 H         1 <0>         0.0617
     47 H9          6.5495    2.8728    1.4380 H         1 <0>         0.1248
     48 H10         6.5668    5.2834    2.0260 H         1 <0>         0.1350
     49 H11         8.1456    4.5267    2.4279 H         1 <0>         0.1366
     50 H12         4.7510    1.5012    1.6773 H         1 <0>         0.1011
     51 H13         4.6399    1.2285    3.4493 H         1 <0>         0.0750
     52 H14         2.3872    1.1305    2.4572 H         1 <0>         0.0821
     53 H15         2.5271    2.5951    3.4877 H         1 <0>         0.0690
     54 H16         0.5969    2.0668    2.9354 H         1 <0>         0.1422
     55 H17         1.6040    4.3933   -0.5062 H         1 <0>         0.1435
     56 H18         0.9260    4.6862   -2.0334 H         1 <0>         0.0874
     57 H19         0.0655    7.5433   -1.2427 H         1 <0>         0.0903
     58 H20         1.3079    6.5354   -0.4257 H         1 <0>         0.0834
     59 H21         2.3326    8.2352   -1.9624 H         1 <0>         0.1028
     60 H22         2.7001    6.5528   -2.4731 H         1 <0>         0.0539
     61 H23         0.3189    6.6811   -5.2308 H         1 <0>         0.1103
     62 H24         1.5176    5.6403   -4.3903 H         1 <0>         0.0577
     63 H25        -0.7839    4.9277   -3.8140 H         1 <0>         0.0906
     64 H26        -1.1747    6.5895   -3.2554 H         1 <0>         0.0897
     65 H27        -4.0231    2.3437    3.1652 H         1 <0>         0.1966
     66 H28        -2.5577    5.1627   -1.1897 H         1 <0>         0.4524
     67 H29        -7.6766    3.7060   -0.7472 H         1 <0>         0.1549
     68 H30        -8.3579    6.0688   -0.8071 H         1 <0>         0.1504
     69 H31        -4.9302    9.6134   -0.4826 H         1 <0>         0.1369
     70 H32        -5.0128    8.7986   -2.0813 H         1 <0>         0.0896
     71 H33         7.4170    4.2298    4.7170 H         1 <0>         0.4406
@<TRIPOS>BOND
     1    1    2 1
     2    1   39 1
     3    1   40 1
     4    1   41 1
     5    2    7 1
     6    2    3 1
     7    2   71 1
     8    3    4 1
     9    3   42 1
    10    3   43 1
    11    4    5 1
    12    4   44 1
    13    4   45 1
    14    5    6 1
    15    5    8 1
    16    6    7 1
    17    6   46 1
    18    6   47 1
    19    7   48 1
    20    7   49 1
    21    8    9 1
    22    8   50 1
    23    8   51 1
    24    9   10 1
    25    9   52 1
    26    9   53 1
    27   10   11 1
    28   11   16 ar
    29   11   12 ar
    30   12   13 ar
    31   12   54 1
    32   13   27 ar
    33   13   14 ar
    34   14   15 ar
    35   14   24 ar
    36   15   16 ar
    37   15   17 1
    38   16   55 1
    39   17   18 1
    40   18   23 1
    41   18   19 1
    42   18   56 1
    43   19   20 1
    44   19   57 1
    45   19   58 1
    46   20   21 1
    47   20   59 1
    48   20   60 1
    49   21   22 1
    50   22   23 1
    51   22   61 1
    52   22   62 1
    53   23   63 1
    54   23   64 1
    55   24   25 ar
    56   24   28 1
    57   25   26 ar
    58   26   27 ar
    59   26   65 1
    60   28   29 1
    61   28   66 1
    62   29   34 ar
    63   29   30 ar
    64   30   31 ar
    65   30   38 1
    66   31   32 ar
    67   31   67 1
    68   32   33 ar
    69   32   68 1
    70   33   37 1
    71   33   34 ar
    72   34   35 1
    73   35   36 1
    74   36   37 1
    75   36   69 1
    76   36   70 1
@<TRIPOS>MOLECULE
ZINC24811973
   71    76     0     0     0
SMALL
USER_CHARGES
N-(5-chloro-1,3-benzodioxol-4-yl)-7-[2-(4-methylpiperazin-1-yl)ethoxy]-5-tetrahydropyran-4-yloxy-quinazolin-4-amine
@<TRIPOS>ATOM
      1 C1          7.5655    6.2744    4.3229 C.3       1 <0>         0.0170
      2 N1          6.9185    4.9776    4.0827 N.3       1 <0>        -0.5430
      3 C2          5.4989    5.0194    4.4603 C.3       1 <0>         0.0239
      4 C3          4.8821    3.6316    4.2705 C.3       1 <0>        -0.0046
      5 N2          5.0395    3.2159    2.8697 N.4       1 <0>        -0.4045
      6 C4          6.4591    3.1741    2.4921 C.3       1 <0>         0.0008
      7 C5          7.0759    4.5619    2.6820 C.3       1 <0>         0.0231
      8 C6          4.3925    1.9191    2.6296 C.3       1 <0>         0.0022
      9 C7          2.8759    2.1102    2.5640 C.3       1 <0>         0.0216
     10 O1          2.5474    2.9314    1.4415 O.3       1 <0>        -0.3251
     11 C8          1.2320    3.2001    1.2382 C.ar      1 <0>         0.2059
     12 C9          0.2891    2.6820    2.1028 C.ar      1 <0>        -0.2460
     13 C10        -1.0666    2.9521    1.8929 C.ar      1 <0>         0.2625
     14 C11        -1.4550    3.7658    0.7994 C.ar      1 <0>        -0.2415
     15 C12        -0.4786    4.2833   -0.0680 C.ar      1 <0>         0.2396
     16 C13         0.8507    3.9969    0.1584 C.ar      1 <0>        -0.2718
     17 O2         -0.8412    5.0596   -1.1206 O.3       1 <0>        -0.3174
     18 C14         0.2045    5.5149   -1.9816 C.3       1 <0>         0.0868
     19 C15         0.8408    6.7773   -1.3918 C.3       1 <0>        -0.1825
     20 C16         1.9040    7.3033   -2.3597 C.3       1 <0>         0.0637
     21 O3          1.3058    7.5588   -3.6321 O.3       1 <0>        -0.3736
     22 C17         0.7375    6.4035   -4.2522 C.3       1 <0>         0.0637
     23 C18        -0.3741    5.8427   -3.3615 C.3       1 <0>        -0.1592
     24 C19        -2.8318    4.0257    0.6163 C.ar      1 <0>         0.5024
     25 N3         -3.6910    3.4986    1.4806 N.ar      1 <0>        -0.5847
     26 C20        -3.2828    2.7482    2.4909 C.ar      1 <0>         0.3779
     27 N4         -2.0187    2.4733    2.7099 N.ar      1 <0>        -0.5668
     28 N5         -3.2714    4.8066   -0.4322 N.pl3     1 <0>        -0.6379
     29 C21        -4.6269    5.1462   -0.5324 C.ar      1 <0>         0.1670
     30 C22        -5.5908    4.1480   -0.6043 C.ar      1 <0>        -0.0135
     31 C23        -6.9287    4.4835   -0.6963 C.ar      1 <0>        -0.0861
     32 C24        -7.3118    5.8118   -0.7302 C.ar      1 <0>        -0.0874
     33 C25        -6.3565    6.8144   -0.6652 C.ar      1 <0>         0.0512
     34 C26        -5.0093    6.4829   -0.5658 C.ar      1 <0>         0.0329
     35 O4         -4.2778    7.6354   -0.5173 O.3       1 <0>        -0.3029
     36 C27        -5.1574    8.6689   -0.9986 C.3       1 <0>         0.2078
     37 O5         -6.4715    8.1749   -0.6789 O.3       1 <0>        -0.2957
     38 Cl1        -5.1153    2.4788   -0.5700 Cl        1 <0>        -0.0332
     39 H1          7.4326    6.5608    5.3766 H         1 <0>         0.0847
     40 H2          7.1092    7.0374    3.6751 H         1 <0>         0.0397
     41 H3          8.6392    6.1959    4.0968 H         1 <0>         0.0853
     42 H4          5.4086    5.3208    5.5143 H         1 <0>         0.1247
     43 H5          4.9716    5.7461    3.8247 H         1 <0>         0.0605
     44 H6          5.3914    2.9111    4.9273 H         1 <0>         0.1387
     45 H7          3.8126    3.6677    4.5254 H         1 <0>         0.1343
     46 H8          6.9863    2.4474    3.1277 H         1 <0>         0.1371
     47 H9          6.5495    2.8728    1.4380 H         1 <0>         0.1373
     48 H10         6.5668    5.2834    2.0260 H         1 <0>         0.0606
     49 H11         8.1456    4.5267    2.4279 H         1 <0>         0.1249
     50 H12         4.7510    1.5012    1.6773 H         1 <0>         0.1442
     51 H13         4.6399    1.2285    3.4493 H         1 <0>         0.1512
     52 H14         2.3872    1.1305    2.4572 H         1 <0>         0.1174
     53 H15         2.5271    2.5951    3.4877 H         1 <0>         0.0921
     54 H16         0.5969    2.0668    2.9354 H         1 <0>         0.1449
     55 H17         1.6040    4.3933   -0.5062 H         1 <0>         0.1457
     56 H18         0.9260    4.6862   -2.0334 H         1 <0>         0.0870
     57 H19         0.0655    7.5433   -1.2427 H         1 <0>         0.0923
     58 H20         1.3079    6.5354   -0.4257 H         1 <0>         0.0820
     59 H21         2.3326    8.2352   -1.9624 H         1 <0>         0.1045
     60 H22         2.7001    6.5528   -2.4731 H         1 <0>         0.0533
     61 H23         0.3189    6.6811   -5.2308 H         1 <0>         0.1117
     62 H24         1.5176    5.6403   -4.3903 H         1 <0>         0.0578
     63 H25        -0.7839    4.9277   -3.8140 H         1 <0>         0.0914
     64 H26        -1.1747    6.5895   -3.2554 H         1 <0>         0.0911
     65 H27        -4.0231    2.3437    3.1652 H         1 <0>         0.1996
     66 H28        -2.5577    5.1627   -1.1897 H         1 <0>         0.4528
     67 H29        -7.6766    3.7060   -0.7472 H         1 <0>         0.1558
     68 H30        -8.3579    6.0688   -0.8071 H         1 <0>         0.1515
     69 H31        -4.9302    9.6134   -0.4826 H         1 <0>         0.1379
     70 H32        -5.0128    8.7986   -2.0813 H         1 <0>         0.0905
     71 H33         4.5411    3.9636    2.2353 H         1 <0>         0.4448
@<TRIPOS>BOND
     1    1    2 1
     2    1   39 1
     3    1   40 1
     4    1   41 1
     5    2    7 1
     6    2    3 1
     7    3    4 1
     8    3   42 1
     9    3   43 1
    10    4    5 1
    11    4   44 1
    12    4   45 1
    13    5    6 1
    14    5    8 1
    15    5   71 1
    16    6    7 1
    17    6   46 1
    18    6   47 1
    19    7   48 1
    20    7   49 1
    21    8    9 1
    22    8   50 1
    23    8   51 1
    24    9   10 1
    25    9   52 1
    26    9   53 1
    27   10   11 1
    28   11   16 ar
    29   11   12 ar
    30   12   13 ar
    31   12   54 1
    32   13   27 ar
    33   13   14 ar
    34   14   15 ar
    35   14   24 ar
    36   15   16 ar
    37   15   17 1
    38   16   55 1
    39   17   18 1
    40   18   23 1
    41   18   19 1
    42   18   56 1
    43   19   20 1
    44   19   57 1
    45   19   58 1
    46   20   21 1
    47   20   59 1
    48   20   60 1
    49   21   22 1
    50   22   23 1
    51   22   61 1
    52   22   62 1
    53   23   63 1
    54   23   64 1
    55   24   25 ar
    56   24   28 1
    57   25   26 ar
    58   26   27 ar
    59   26   65 1
    60   28   29 1
    61   28   66 1
    62   29   34 ar
    63   29   30 ar
    64   30   31 ar
    65   30   38 1
    66   31   32 ar
    67   31   67 1
    68   32   33 ar
    69   32   68 1
    70   33   37 1
    71   33   34 ar
    72   34   35 1
    73   35   36 1
    74   36   37 1
    75   36   69 1
    76   36   70 1
@<TRIPOS>MOLECULE
ZINC24811973
   70    75     0     0     0
SMALL
USER_CHARGES
N-(5-chloro-1,3-benzodioxol-4-yl)-7-[2-(4-methylpiperazin-1-yl)ethoxy]-5-tetrahydropyran-4-yloxy-quinazolin-4-amine
@<TRIPOS>ATOM
      1 C1          7.5655    6.2744    4.3229 C.3       1 <0>         0.0226
      2 N1          6.9185    4.9776    4.0827 N.3       1 <0>        -0.5457
      3 C2          5.4989    5.0194    4.4603 C.3       1 <0>         0.0556
      4 C3          4.8821    3.6316    4.2705 C.3       1 <0>         0.0522
      5 N2          5.0395    3.2159    2.8697 N.3       1 <0>        -0.5333
      6 C4          6.4591    3.1741    2.4921 C.3       1 <0>         0.0571
      7 C5          7.0759    4.5619    2.6820 C.3       1 <0>         0.0553
      8 C6          4.3925    1.9191    2.6296 C.3       1 <0>         0.0535
      9 C7          2.8759    2.1102    2.5640 C.3       1 <0>         0.0608
     10 O1          2.5474    2.9314    1.4415 O.3       1 <0>        -0.2892
     11 C8          1.2320    3.2001    1.2382 C.ar      1 <0>         0.2205
     12 C9          0.2891    2.6820    2.1028 C.ar      1 <0>        -0.2568
     13 C10        -1.0666    2.9521    1.8929 C.ar      1 <0>         0.2601
     14 C11        -1.4550    3.7658    0.7994 C.ar      1 <0>        -0.2438
     15 C12        -0.4786    4.2833   -0.0680 C.ar      1 <0>         0.2247
     16 C13         0.8507    3.9969    0.1584 C.ar      1 <0>        -0.2620
     17 O2         -0.8412    5.0596   -1.1206 O.3       1 <0>        -0.3213
     18 C14         0.2045    5.5149   -1.9816 C.3       1 <0>         0.0860
     19 C15         0.8408    6.7773   -1.3918 C.3       1 <0>        -0.1829
     20 C16         1.9040    7.3033   -2.3597 C.3       1 <0>         0.0632
     21 O3          1.3058    7.5588   -3.6321 O.3       1 <0>        -0.3771
     22 C17         0.7375    6.4035   -4.2522 C.3       1 <0>         0.0639
     23 C18        -0.3741    5.8427   -3.3615 C.3       1 <0>        -0.1562
     24 C19        -2.8318    4.0257    0.6163 C.ar      1 <0>         0.5004
     25 N3         -3.6910    3.4986    1.4806 N.ar      1 <0>        -0.5929
     26 C20        -3.2828    2.7482    2.4909 C.ar      1 <0>         0.3659
     27 N4         -2.0187    2.4733    2.7099 N.ar      1 <0>        -0.5638
     28 N5         -3.2714    4.8066   -0.4322 N.pl3     1 <0>        -0.6450
     29 C21        -4.6269    5.1462   -0.5324 C.ar      1 <0>         0.1769
     30 C22        -5.5908    4.1480   -0.6043 C.ar      1 <0>        -0.0142
     31 C23        -6.9287    4.4835   -0.6963 C.ar      1 <0>        -0.0884
     32 C24        -7.3118    5.8118   -0.7302 C.ar      1 <0>        -0.0924
     33 C25        -6.3565    6.8144   -0.6652 C.ar      1 <0>         0.0485
     34 C26        -5.0093    6.4829   -0.5658 C.ar      1 <0>         0.0310
     35 O4         -4.2778    7.6354   -0.5173 O.3       1 <0>        -0.3005
     36 C27        -5.1574    8.6689   -0.9986 C.3       1 <0>         0.2076
     37 O5         -6.4715    8.1749   -0.6789 O.3       1 <0>        -0.2984
     38 Cl1        -5.1153    2.4788   -0.5700 Cl        1 <0>        -0.0322
     39 H1          7.4326    6.5608    5.3766 H         1 <0>         0.0697
     40 H2          7.1092    7.0374    3.6751 H         1 <0>         0.0269
     41 H3          8.6392    6.1959    4.0968 H         1 <0>         0.0702
     42 H4          5.4086    5.3208    5.5143 H         1 <0>         0.0806
     43 H5          4.9716    5.7461    3.8247 H         1 <0>         0.0432
     44 H6          5.3914    2.9111    4.9273 H         1 <0>         0.0453
     45 H7          3.8126    3.6677    4.5254 H         1 <0>         0.0800
     46 H8          6.9863    2.4474    3.1277 H         1 <0>         0.0439
     47 H9          6.5495    2.8728    1.4380 H         1 <0>         0.0822
     48 H10         6.5668    5.2834    2.0260 H         1 <0>         0.0435
     49 H11         8.1456    4.5267    2.4279 H         1 <0>         0.0809
     50 H12         4.7510    1.5012    1.6773 H         1 <0>         0.0884
     51 H13         4.6399    1.2285    3.4493 H         1 <0>         0.0645
     52 H14         2.3872    1.1305    2.4572 H         1 <0>         0.0740
     53 H15         2.5271    2.5951    3.4877 H         1 <0>         0.0694
     54 H16         0.5969    2.0668    2.9354 H         1 <0>         0.1439
     55 H17         1.6040    4.3933   -0.5062 H         1 <0>         0.1444
     56 H18         0.9260    4.6862   -2.0334 H         1 <0>         0.0882
     57 H19         0.0655    7.5433   -1.2427 H         1 <0>         0.0888
     58 H20         1.3079    6.5354   -0.4257 H         1 <0>         0.0870
     59 H21         2.3326    8.2352   -1.9624 H         1 <0>         0.1042
     60 H22         2.7001    6.5528   -2.4731 H         1 <0>         0.0567
     61 H23         0.3189    6.6811   -5.2308 H         1 <0>         0.1074
     62 H24         1.5176    5.6403   -4.3903 H         1 <0>         0.0576
     63 H25        -0.7839    4.9277   -3.8140 H         1 <0>         0.0886
     64 H26        -1.1747    6.5895   -3.2554 H         1 <0>         0.0878
     65 H27        -4.0231    2.3437    3.1652 H         1 <0>         0.1941
     66 H28        -2.5577    5.1627   -1.1897 H         1 <0>         0.4526
     67 H29        -7.6766    3.7060   -0.7472 H         1 <0>         0.1532
     68 H30        -8.3579    6.0688   -0.8071 H         1 <0>         0.1483
     69 H31        -4.9302    9.6134   -0.4826 H         1 <0>         0.1363
     70 H32        -5.0128    8.7986   -2.0813 H         1 <0>         0.0886
@<TRIPOS>BOND
     1    1    2 1
     2    1   39 1
     3    1   40 1
     4    1   41 1
     5    2    7 1
     6    2    3 1
     7    3    4 1
     8    3   42 1
     9    3   43 1
    10    4    5 1
    11    4   44 1
    12    4   45 1
    13    5    6 1
    14    5    8 1
    15    6    7 1
    16    6   46 1
    17    6   47 1
    18    7   48 1
    19    7   49 1
    20    8    9 1
    21    8   50 1
    22    8   51 1
    23    9   10 1
    24    9   52 1
    25    9   53 1
    26   10   11 1
    27   11   16 ar
    28   11   12 ar
    29   12   13 ar
    30   12   54 1
    31   13   27 ar
    32   13   14 ar
    33   14   15 ar
    34   14   24 ar
    35   15   16 ar
    36   15   17 1
    37   16   55 1
    38   17   18 1
    39   18   23 1
    40   18   19 1
    41   18   56 1
    42   19   20 1
    43   19   57 1
    44   19   58 1
    45   20   21 1
    46   20   59 1
    47   20   60 1
    48   21   22 1
    49   22   23 1
    50   22   61 1
    51   22   62 1
    52   23   63 1
    53   23   64 1
    54   24   25 ar
    55   24   28 1
    56   25   26 ar
    57   26   27 ar
    58   26   65 1
    59   28   29 1
    60   28   66 1
    61   29   34 ar
    62   29   30 ar
    63   30   31 ar
    64   30   38 1
    65   31   32 ar
    66   31   67 1
    67   32   33 ar
    68   32   68 1
    69   33   37 1
    70   33   34 ar
    71   34   35 1
    72   35   36 1
    73   36   37 1
    74   36   69 1
    75   36   70 1
@<TRIPOS>MOLECULE
ZINC16052718
   27    29     0     0     0
SMALL
USER_CHARGES
2-(4-pyridyl)-1,5,6,7-tetrahydropyrrolo[3,2-c]pyridin-4-one
@<TRIPOS>ATOM
      1 C1         -1.2211    1.7394    0.0173 C.ar      1 <0>        -0.1847
      2 C2         -0.0126    1.0758    0.0080 C.ar      1 <0>         0.1111
      3 N1          1.1266    1.7422    0.0007 N.ar      1 <0>        -0.4905
      4 C3          1.1665    3.0614    0.0069 C.ar      1 <0>         0.1119
      5 C4          0.0054    3.8049    0.0215 C.ar      1 <0>        -0.1618
      6 C5         -1.2265    3.1395    0.0297 C.ar      1 <0>         0.0379
      7 C6         -2.4974    3.8941    0.0449 C.2       1 <0>         0.0152
      8 C7         -2.6168    5.2527    0.0519 C.2       1 <0>        -0.0780
      9 C8         -3.9881    5.5373    0.0657 C.2       1 <0>        -0.2330
     10 C9         -4.6662    4.3225    0.0683 C.2       1 <0>         0.0775
     11 N2         -3.7609    3.3429    0.0484 N.pl3     1 <0>        -0.5119
     12 H1         -3.9600    2.3935    0.0405 H         1 <0>         0.4194
     13 C10        -6.1725    4.2736    0.0855 C.3       1 <0>        -0.0706
     14 C11        -6.6980    5.5192    0.7998 C.3       1 <0>         0.1242
     15 N3         -6.0502    6.7447    0.3531 N.am      1 <0>        -0.7362
     16 C12        -4.7270    6.8120    0.0741 C.2       1 <0>         0.5975
     17 O1         -4.1760    7.8712   -0.1574 O.2       1 <0>        -0.5324
     18 H2         -2.1495    1.1876    0.0191 H         1 <0>         0.1271
     19 H3          0.0021   -0.0041    0.0020 H         1 <0>         0.1582
     20 H4          2.1216    3.5654    0.0002 H         1 <0>         0.1618
     21 H5          0.0456    4.8841    0.0262 H         1 <0>         0.1422
     22 H6         -1.8098    5.9704    0.0479 H         1 <0>         0.1542
     23 H7         -6.5491    4.2527   -0.9371 H         1 <0>         0.0964
     24 H8         -6.5030    3.3798    0.6148 H         1 <0>         0.0985
     25 H9         -7.7696    5.6022    0.6183 H         1 <0>         0.0948
     26 H10        -6.5315    5.4063    1.8710 H         1 <0>         0.0675
     27 H11        -6.5885    7.5452    0.2514 H         1 <0>         0.4040
@<TRIPOS>BOND
     1    1    6 ar
     2    1    2 ar
     3    1   18 1
     4    2    3 ar
     5    2   19 1
     6    3    4 ar
     7    4    5 ar
     8    4   20 1
     9    5    6 ar
    10    5   21 1
    11    6    7 1
    12    7   11 1
    13    7    8 2
    14    8    9 1
    15    8   22 1
    16    9   16 1
    17    9   10 2
    18   10   11 1
    19   10   13 1
    20   11   12 1
    21   13   14 1
    22   13   23 1
    23   13   24 1
    24   14   15 1
    25   14   25 1
    26   14   26 1
    27   15   16 am
    28   15   27 1
    29   16   17 2
@<TRIPOS>MOLECULE
ZINC00582590
   54    56     0     0     0
SMALL
USER_CHARGES

@<TRIPOS>ATOM
      1 C1          0.3210   -0.2542   -0.2950 C.3       1 <0>        -0.1471
      2 C2         -0.6989    0.1485    0.7720 C.3       1 <0>        -0.0980
      3 C3         -0.9526    1.6552    0.6922 C.3       1 <0>        -0.1473
      4 C4         -2.0102   -0.6029    0.5335 C.3       1 <0>         0.1711
      5 H1         -2.4152   -0.3269   -0.4401 H         1 <0>         0.1082
      6 C5         -3.0151   -0.2346    1.6269 C.3       1 <0>         0.0616
      7 O1         -2.4404   -0.4943    2.9092 O.3       1 <0>        -0.5710
      8 N1         -1.7592   -2.0458    0.5668 N.pl3     1 <0>        -0.6786
      9 C6         -2.6062   -2.9119   -0.1051 C.ar      1 <0>         0.6293
     10 N2         -3.6349   -2.4098   -0.7763 N.ar      1 <0>        -0.6062
     11 C7         -4.4751   -3.1988   -1.4363 C.ar      1 <0>         0.5376
     12 C8         -4.2539   -4.5867   -1.4114 C.ar      1 <0>        -0.1535
     13 C9         -3.1523   -5.0726   -0.6878 C.ar      1 <0>         0.3509
     14 N3         -2.3585   -4.2107   -0.0601 N.ar      1 <0>        -0.6161
     15 N4         -3.1762   -6.4368   -0.8324 N.pl3     1 <0>        -0.4727
     16 C10        -4.2520   -6.7464   -1.6124 C.2       1 <0>         0.2292
     17 N5         -4.8825   -5.6599   -1.9508 N.2       1 <0>        -0.4526
     18 C11        -2.2219   -7.3866   -0.2551 C.3       1 <0>         0.1354
     19 C12        -2.9632   -8.3593    0.6643 C.3       1 <0>        -0.1619
     20 C13        -1.5372   -8.1679   -1.3784 C.3       1 <0>        -0.1618
     21 N6         -5.5464   -2.6655   -2.1337 N.pl3     1 <0>        -0.6280
     22 C14        -5.6825   -1.2864   -2.2512 C.ar      1 <0>         0.1488
     23 C15        -4.5525   -0.4885   -2.4166 C.ar      1 <0>        -0.1220
     24 C16        -4.6779    0.8657   -2.5326 C.ar      1 <0>        -0.0594
     25 C17        -5.9451    1.4590   -2.4857 C.ar      1 <0>        -0.1364
     26 C18        -7.0831    0.6589   -2.3195 C.ar      1 <0>         0.0117
     27 C19        -6.9477   -0.7079   -2.2089 C.ar      1 <0>        -0.1557
     28 Cl1        -8.6583    1.3861   -2.2597 Cl        1 <0>        -0.0441
     29 C20        -6.0813    2.9182   -2.6102 C.2       1 <0>         0.5168
     30 O2         -5.0862    3.6154   -2.7549 O.co2     1 <0>        -0.6900
     31 O3         -7.1896    3.4349   -2.5690 O.co2     1 <0>        -0.6630
     32 H2          1.2552    0.2811   -0.1251 H         1 <0>         0.0549
     33 H3          0.5018   -1.3276   -0.2382 H         1 <0>         0.0529
     34 H4         -0.0674   -0.0030   -1.2820 H         1 <0>         0.0568
     35 H5         -0.3105   -0.1028    1.7590 H         1 <0>         0.0821
     36 H6         -1.3236    1.9090   -0.3008 H         1 <0>         0.0629
     37 H7         -1.6929    1.9391    1.4402 H         1 <0>         0.0595
     38 H8         -0.0222    2.1908    0.8803 H         1 <0>         0.0576
     39 H9         -3.2659    0.8232    1.5485 H         1 <0>         0.0601
     40 H10        -3.9187   -0.8321    1.5060 H         1 <0>         0.0503
     41 H11        -3.0232   -0.2835    3.6514 H         1 <0>         0.3749
     42 H12        -0.9999   -2.3948    1.0594 H         1 <0>         0.4127
     43 H13        -4.5374   -7.7457   -1.9061 H         1 <0>         0.2129
     44 H14        -1.4715   -6.8438    0.3196 H         1 <0>         0.1056
     45 H15        -3.7136   -8.9021    0.0895 H         1 <0>         0.0647
     46 H16        -2.2531   -9.0660    1.0938 H         1 <0>         0.0772
     47 H17        -3.4510   -7.8027    1.4645 H         1 <0>         0.0630
     48 H18        -1.0091   -7.4750   -2.0333 H         1 <0>         0.0633
     49 H19        -0.8272   -8.8746   -0.9489 H         1 <0>         0.0771
     50 H20        -2.2876   -8.7108   -1.9531 H         1 <0>         0.0647
     51 H21        -6.2018   -3.2539   -2.5402 H         1 <0>         0.4250
     52 H22        -3.5736   -0.9432   -2.4528 H         1 <0>         0.1261
     53 H23        -3.7989    1.4800   -2.6603 H         1 <0>         0.1350
     54 H24        -7.8223   -1.3294   -2.0853 H         1 <0>         0.1255
@<TRIPOS>BOND
     1    1    2 1
     2    1   32 1
     3    1   33 1
     4    1   34 1
     5    2    3 1
     6    2    4 1
     7    2   35 1
     8    3   36 1
     9    3   37 1
    10    3   38 1
    11    4    5 1
    12    4    6 1
    13    4    8 1
    14    6    7 1
    15    6   39 1
    16    6   40 1
    17    7   41 1
    18    8    9 1
    19    8   42 1
    20    9   14 ar
    21    9   10 ar
    22   10   11 ar
    23   11   12 ar
    24   11   21 1
    25   12   17 1
    26   12   13 ar
    27   13   14 ar
    28   13   15 1
    29   15   16 1
    30   15   18 1
    31   16   17 2
    32   16   43 1
    33   18   19 1
    34   18   20 1
    35   18   44 1
    36   19   45 1
    37   19   46 1
    38   19   47 1
    39   20   48 1
    40   20   49 1
    41   20   50 1
    42   21   22 1
    43   21   51 1
    44   22   27 ar
    45   22   23 ar
    46   23   24 ar
    47   23   52 1
    48   24   25 ar
    49   24   53 1
    50   25   26 ar
    51   25   29 1
    52   26   27 ar
    53   26   28 1
    54   27   54 1
    55   29   30 2
    56   29   31 1
@<TRIPOS>MOLECULE
ZINC04976875
   34    36     0     0     0
SMALL
USER_CHARGES

@<TRIPOS>ATOM
      1 C1         -0.0169    1.3929    0.0097 C.ar      1 <0>        -0.1197
      2 C2          1.1700    2.0954    0.0021 C.ar      1 <0>        -0.0132
      3 C3          2.3777    1.4198   -0.0130 C.ar      1 <0>        -0.6709
      4 C4          2.4041    0.0362   -0.0207 C.ar      1 <0>        -0.0129
      5 C5          1.2251   -0.6794   -0.0137 C.ar      1 <0>        -0.1160
      6 C6          0.0021   -0.0041    0.0020 C.ar      1 <0>         0.0368
      7 C7         -1.2637   -0.7627    0.0105 C.2       1 <0>         0.0458
      8 C8         -1.3754   -2.1242    0.0098 C.2       1 <0>        -0.1789
      9 C9         -2.7401   -2.4256    0.0204 C.2       1 <0>        -0.1333
     10 C10        -3.4149   -1.2181    0.0272 C.2       1 <0>        -0.0121
     11 O1         -2.4982   -0.2276    0.0261 O.3       1 <0>        -0.1463
     12 C11        -4.8172   -1.0512    0.0380 C.2       1 <0>         0.0776
     13 C12        -5.3547    0.2025    0.0438 C.2       1 <0>        -0.1943
     14 C13        -6.7678    0.6116    0.0611 C.2       1 <0>         0.5638
     15 O2         -7.6670   -0.2096    0.0727 O.2       1 <0>        -0.4828
     16 N1         -7.0192    1.9098    0.0638 N.am      1 <0>        -0.6537
     17 C14        -5.9857    2.8243    0.0509 C.2       1 <0>         0.4197
     18 N2         -6.0545    4.1274    0.0521 N.2       1 <0>        -0.6440
     19 S1         -4.5314    1.7885    0.0407 S.3       1 <0>        -0.0487
     20 S2          3.8890    2.3256   -0.0232 S.o2      1 <0>         2.7016
     21 O3          4.8721    1.4690   -0.5879 O.2       1 <0>        -0.9597
     22 O4          3.5918    3.6053   -0.5647 O.2       1 <0>        -0.9597
     23 N3          4.3243    2.5693    1.5559 N.pl3     1 <0>        -1.2493
     24 H1         -0.9586    1.9214    0.0260 H         1 <0>         0.1422
     25 H2          1.1569    3.1753    0.0077 H         1 <0>         0.1504
     26 H3          3.3502   -0.4845   -0.0325 H         1 <0>         0.1525
     27 H4          1.2471   -1.7592   -0.0205 H         1 <0>         0.1434
     28 H5         -0.5618   -2.8344    0.0021 H         1 <0>         0.1643
     29 H6         -3.1824   -3.4109    0.0225 H         1 <0>         0.1691
     30 H7         -5.4639   -1.9161    0.0415 H         1 <0>         0.1862
     31 H8         -7.9375    2.2219    0.0747 H         1 <0>         0.4255
     32 H9         -5.2412    4.6560    0.0419 H         1 <0>         0.3770
     33 H10         3.7659    2.2269    2.2713 H         1 <0>         0.4172
     34 H11         5.1377    3.0545    1.7654 H         1 <0>         0.4226
@<TRIPOS>BOND
     1    1    6 ar
     2    1    2 ar
     3    1   24 1
     4    2    3 ar
     5    2   25 1
     6    3    4 ar
     7    3   20 1
     8    4    5 ar
     9    4   26 1
    10    5    6 ar
    11    5   27 1
    12    6    7 1
    13    7   11 1
    14    7    8 2
    15    8    9 1
    16    8   28 1
    17    9   10 2
    18    9   29 1
    19   10   11 1
    20   10   12 1
    21   12   13 2
    22   12   30 1
    23   13   19 1
    24   13   14 1
    25   14   15 2
    26   14   16 am
    27   16   17 1
    28   16   31 1
    29   17   18 2
    30   17   19 1
    31   18   32 1
    32   20   21 2
    33   20   22 2
    34   20   23 1
    35   23   33 1
    36   23   34 1
@<TRIPOS>MOLECULE
ZINC00582575
   52    54     0     0     0
SMALL
USER_CHARGES

@<TRIPOS>ATOM
      1 C1          0.4280   -0.4909    1.8513 C.3       1 <0>        -0.1353
      2 C2         -0.1373    0.3043    0.6728 C.3       1 <0>        -0.0998
      3 C3          0.1219    1.7960    0.8928 C.3       1 <0>        -0.1438
      4 C4          0.5445   -0.1465   -0.6206 C.3       1 <0>         0.1707
      5 H1          1.6116    0.0682   -0.5626 H         1 <0>         0.1020
      6 C5         -0.0633    0.6053   -1.8064 C.3       1 <0>         0.0638
      7 O1         -1.4784    0.4070   -1.8214 O.3       1 <0>        -0.5678
      8 N1          0.3453   -1.5866   -0.8014 N.pl3     1 <0>        -0.6843
      9 C6          1.2038   -2.4865   -0.1915 C.ar      1 <0>         0.6278
     10 N2          2.1960   -2.0197    0.5559 N.ar      1 <0>        -0.6013
     11 C7          3.0454   -2.8423    1.1611 C.ar      1 <0>         0.5297
     12 C8          2.8737   -4.2277    0.9949 C.ar      1 <0>        -0.1465
     13 C9          1.8096   -4.6754    0.1948 C.ar      1 <0>         0.3495
     14 N3          1.0032   -3.7820   -0.3699 N.ar      1 <0>        -0.6072
     15 N4          1.8776   -6.0456    0.2064 N.pl3     1 <0>        -0.4700
     16 C10         2.9424   -6.3955    0.9844 C.2       1 <0>         0.2415
     17 N5          3.5251   -5.3277    1.4458 N.2       1 <0>        -0.4572
     18 C11         0.9729   -6.9645   -0.4890 C.3       1 <0>         0.1340
     19 C12         1.7722   -7.8175   -1.4761 C.3       1 <0>        -0.1629
     20 C13         0.2864   -7.8742    0.5318 C.3       1 <0>        -0.1632
     21 N6          4.0779   -2.3459    1.9386 N.pl3     1 <0>        -0.6355
     22 C14         4.2903   -0.9669    2.0207 C.ar      1 <0>         0.1742
     23 C15         4.0436   -0.1577    0.9185 C.ar      1 <0>        -0.1100
     24 C16         4.2538    1.2045    1.0024 C.ar      1 <0>        -0.0884
     25 C17         4.7100    1.7642    2.1819 C.ar      1 <0>        -0.1271
     26 C18         4.9569    0.9617    3.2819 C.ar      1 <0>        -0.0129
     27 C19         4.7429   -0.4020    3.2058 C.ar      1 <0>        -0.1416
     28 Cl1         5.5294    1.6687    4.7604 Cl        1 <0>        -0.0669
     29 H2          0.2433   -1.5536    1.6946 H         1 <0>         0.0430
     30 H3          1.5012   -0.3158    1.9263 H         1 <0>         0.0707
     31 H4         -0.0578   -0.1697    2.7727 H         1 <0>         0.0403
     32 H5         -1.2106    0.1292    0.5978 H         1 <0>         0.0766
     33 H6          1.1945    1.9872    0.8596 H         1 <0>         0.0559
     34 H7         -0.3739    2.3703    0.1101 H         1 <0>         0.0538
     35 H8         -0.2703    2.0934    1.8654 H         1 <0>         0.0560
     36 H9          0.1535    1.6693   -1.7118 H         1 <0>         0.0658
     37 H10         0.3663    0.2281   -2.7345 H         1 <0>         0.0519
     38 H11        -1.9308    0.8561   -2.5484 H         1 <0>         0.3823
     39 H12        -0.3878   -1.9099   -1.3481 H         1 <0>         0.4179
     40 H13         3.2553   -7.4091    1.1873 H         1 <0>         0.2164
     41 H14         0.2195   -6.3923   -1.0303 H         1 <0>         0.1069
     42 H15         2.5256   -8.3897   -0.9348 H         1 <0>         0.0660
     43 H16         1.0991   -8.5011   -1.9935 H         1 <0>         0.0802
     44 H17         2.2613   -7.1693   -2.2033 H         1 <0>         0.0632
     45 H18        -0.2830   -7.2665    1.2351 H         1 <0>         0.0634
     46 H19        -0.3867   -8.5579    0.0144 H         1 <0>         0.0803
     47 H20         1.0399   -8.4464    1.0731 H         1 <0>         0.0660
     48 H21         4.6539   -2.9553    2.4263 H         1 <0>         0.4297
     49 H22         3.6881   -0.5939   -0.0033 H         1 <0>         0.1411
     50 H23         4.0621    1.8335    0.1457 H         1 <0>         0.1337
     51 H24         4.8742    2.8298    2.2445 H         1 <0>         0.1331
     52 H25         4.9317   -1.0277    4.0656 H         1 <0>         0.1347
@<TRIPOS>BOND
     1    1    2 1
     2    1   29 1
     3    1   30 1
     4    1   31 1
     5    2    3 1
     6    2    4 1
     7    2   32 1
     8    3   33 1
     9    3   34 1
    10    3   35 1
    11    4    5 1
    12    4    6 1
    13    4    8 1
    14    6    7 1
    15    6   36 1
    16    6   37 1
    17    7   38 1
    18    8    9 1
    19    8   39 1
    20    9   14 ar
    21    9   10 ar
    22   10   11 ar
    23   11   12 ar
    24   11   21 1
    25   12   17 1
    26   12   13 ar
    27   13   14 ar
    28   13   15 1
    29   15   16 1
    30   15   18 1
    31   16   17 2
    32   16   40 1
    33   18   19 1
    34   18   20 1
    35   18   41 1
    36   19   42 1
    37   19   43 1
    38   19   44 1
    39   20   45 1
    40   20   46 1
    41   20   47 1
    42   21   22 1
    43   21   48 1
    44   22   27 ar
    45   22   23 ar
    46   23   24 ar
    47   23   49 1
    48   24   25 ar
    49   24   50 1
    50   25   26 ar
    51   25   51 1
    52   26   27 ar
    53   26   28 1
    54   27   52 1
@<TRIPOS>MOLECULE
ZINC14806879
   29    31     0     0     0
SMALL
USER_CHARGES

@<TRIPOS>ATOM
      1 C1         -0.0173    1.4248    0.0099 C.3       1 <0>         0.0271
      2 O1          0.0021   -0.0041    0.0020 O.3       1 <0>        -0.3168
      3 C2         -1.2010   -0.6378    0.0101 C.ar      1 <0>         0.1024
      4 C3         -2.3765    0.1026    0.0196 C.ar      1 <0>        -0.1700
      5 C4         -3.6033   -0.5286    0.0283 C.ar      1 <0>        -0.1033
      6 C5         -3.6754   -1.9173    0.0273 C.ar      1 <0>         0.1187
      7 C6         -2.4893   -2.6625    0.0173 C.ar      1 <0>        -0.0676
      8 C7         -1.2551   -2.0214    0.0032 C.ar      1 <0>        -0.0969
      9 C8         -2.8914   -4.0876    0.0188 C.2       1 <0>        -0.1578
     10 C9         -2.0671   -5.1903    0.0116 C.2       1 <0>         0.0629
     11 C10        -2.6439   -6.5349    0.0144 C.2       1 <0>        -0.0242
     12 C11        -1.9450   -7.7254    0.0136 C.2       1 <0>        -0.0035
     13 N1         -2.8729   -8.7189    0.0171 N.pl3     1 <0>        -0.5670
     14 H1         -2.6907   -9.6716    0.0177 H         1 <0>         0.4219
     15 C12        -4.1014   -8.1382    0.0200 C.2       1 <0>         0.1702
     16 N2         -3.9675   -6.8441    0.0243 N.2       1 <0>        -0.4045
     17 C13        -4.3615   -4.0702    0.0302 C.2       1 <0>         0.5403
     18 O2         -5.0890   -5.0470    0.0353 O.2       1 <0>        -0.4371
     19 N3         -4.7617   -2.7874    0.0347 N.am      1 <0>        -0.6638
     20 H2          1.0053    1.8021    0.0021 H         1 <0>         0.1005
     21 H3         -0.5445    1.7859   -0.8732 H         1 <0>         0.0556
     22 H4         -0.5275    1.7763    0.9067 H         1 <0>         0.0557
     23 H5         -2.3296    1.1815    0.0204 H         1 <0>         0.1351
     24 H6         -4.5103    0.0577    0.0364 H         1 <0>         0.1299
     25 H7         -0.3432   -2.6000   -0.0090 H         1 <0>         0.1360
     26 H8         -0.9947   -5.0627    0.0038 H         1 <0>         0.1494
     27 H9         -0.8715   -7.8442    0.0104 H         1 <0>         0.1860
     28 H10        -5.0423   -8.6684    0.0231 H         1 <0>         0.2076
     29 H11        -5.6893   -2.5039    0.0425 H         1 <0>         0.4133
@<TRIPOS>BOND
     1    1    2 1
     2    1   20 1
     3    1   21 1
     4    1   22 1
     5    2    3 1
     6    3    8 ar
     7    3    4 ar
     8    4    5 ar
     9    4   23 1
    10    5    6 ar
    11    5   24 1
    12    6   19 1
    13    6    7 ar
    14    7    8 ar
    15    7    9 1
    16    8   25 1
    17    9   10 2
    18    9   17 1
    19   10   11 1
    20   10   26 1
    21   11   16 1
    22   11   12 2
    23   12   13 1
    24   12   27 1
    25   13   14 1
    26   13   15 1
    27   15   16 2
    28   15   28 1
    29   17   18 2
    30   17   19 am
    31   19   29 1
@<TRIPOS>MOLECULE
ZINC13597821
   29    32     0     0     0
SMALL
USER_CHARGES

@<TRIPOS>ATOM
      1 C1         -0.0166    1.3747    0.0096 C.ar      1 <0>        -0.1351
      2 C2          1.1715    2.0889    0.0021 C.ar      1 <0>        -0.1558
      3 C3          2.3855    1.4335   -0.0135 C.ar      1 <0>        -0.1218
      4 C4          2.4252    0.0445   -0.0218 C.ar      1 <0>         0.0729
      5 C5          1.2214   -0.6772   -0.0137 C.ar      1 <0>         0.0050
      6 C6          0.0021   -0.0041    0.0020 C.ar      1 <0>        -0.1283
      7 C7          1.5978   -2.1033   -0.0257 C.2       1 <0>        -0.4073
      8 C8          2.9951   -2.1359   -0.0400 C.2       1 <0>         0.4869
      9 N1          3.4697   -0.8656   -0.0376 N.pl3     1 <0>        -0.6262
     10 H1          4.4099   -0.6273   -0.0461 H         1 <0>         0.3986
     11 O1          3.7515   -3.2537   -0.0541 O.3       1 <0>        -0.6939
     12 C9          0.7215   -3.2139   -0.0224 C.2       1 <0>         0.3290
     13 N2          0.2356   -3.8187   -1.0822 N.2       1 <0>        -0.4601
     14 C10        -0.5829   -4.8606   -0.7652 C.ar      1 <0>         0.1157
     15 C11        -1.2960   -5.7560   -1.5635 C.ar      1 <0>        -0.1051
     16 C12        -2.0695   -6.7423   -0.9784 C.ar      1 <0>        -0.0810
     17 C13        -2.1481   -6.8571    0.3980 C.ar      1 <0>        -0.1494
     18 C14        -1.4485   -5.9800    1.2105 C.ar      1 <0>        -0.0317
     19 C15        -0.6689   -4.9852    0.6382 C.ar      1 <0>        -0.2474
     20 C16         0.1882   -3.9130    1.1902 C.2       1 <0>         0.3791
     21 O2          0.4068   -3.6573    2.3562 O.2       1 <0>        -0.3882
     22 H2         -0.9601    1.9000    0.0260 H         1 <0>         0.1069
     23 H3          1.1465    3.1686    0.0081 H         1 <0>         0.1089
     24 H4          3.3050    2.0001   -0.0196 H         1 <0>         0.1064
     25 H5         -0.9242   -0.5593    0.0075 H         1 <0>         0.1029
     26 H6         -1.2443   -5.6785   -2.6395 H         1 <0>         0.1325
     27 H7         -2.6188   -7.4307   -1.6035 H         1 <0>         0.1305
     28 H8         -2.7565   -7.6322    0.8400 H         1 <0>         0.1293
     29 H9         -1.5098   -6.0701    2.2850 H         1 <0>         0.1267
@<TRIPOS>BOND
     1    1    6 ar
     2    1    2 ar
     3    1   22 1
     4    2    3 ar
     5    2   23 1
     6    3    4 ar
     7    3   24 1
     8    4    9 1
     9    4    5 ar
    10    5    6 ar
    11    5    7 1
    12    6   25 1
    13    7    8 2
    14    7   12 1
    15    8    9 1
    16    8   11 1
    17    9   10 1
    18   12   20 1
    19   12   13 2
    20   13   14 1
    21   14   19 ar
    22   14   15 ar
    23   15   16 ar
    24   15   26 1
    25   16   17 ar
    26   16   27 1
    27   17   18 ar
    28   17   28 1
    29   18   19 ar
    30   18   29 1
    31   19   20 1
    32   20   21 2
@<TRIPOS>MOLECULE
ZINC12355112
   41    43     0     0     0
SMALL
USER_CHARGES

@<TRIPOS>ATOM
      1 C1         -0.1028    1.0961   -0.3671 C.ar      1 <0>        -0.0514
      2 C2          0.1939    0.2453    0.6818 C.ar      1 <0>        -0.1484
      3 C3          1.4264   -0.3800    0.7402 C.ar      1 <0>         0.1639
      4 C4          2.3673   -0.1521   -0.2572 C.ar      1 <0>         0.0453
      5 C5          2.0653    0.7038   -1.3099 C.ar      1 <0>         0.1303
      6 C6          0.8305    1.3253   -1.3612 C.ar      1 <0>        -0.1508
      7 F1          2.9766    0.9287   -2.2816 F         1 <0>        -0.1242
      8 N1          3.6170   -0.7832   -0.2014 N.pl3     1 <0>        -0.5829
      9 C7          3.7027   -2.0774    0.1649 C.2       1 <0>         0.5287
     10 S1          2.2783   -2.9758    0.4732 S.2       1 <0>        -0.4610
     11 N2          4.9096   -2.6643    0.2886 N.pl3     1 <0>        -0.3704
     12 C8          5.1565   -3.9777    0.5555 C.2       1 <0>         0.6130
     13 N3          6.4609   -4.1414    0.5939 N.2       1 <0>        -0.5881
     14 C9          7.0702   -2.9726    0.3596 C.2       1 <0>         0.5344
     15 N4          6.1641   -2.0459    0.1621 N.2       1 <0>        -0.3900
     16 N5          8.4494   -2.7737    0.3248 N.pl3     1 <0>        -0.6253
     17 C10         9.3156   -3.8654    0.4276 C.ar      1 <0>         0.2308
     18 C11         8.9430   -5.1006   -0.0877 C.ar      1 <0>        -0.1475
     19 C12         9.8015   -6.1774    0.0157 C.ar      1 <0>         0.0049
     20 C13        11.0306   -6.0273    0.6313 C.ar      1 <0>        -0.6997
     21 C14        11.4044   -4.7993    1.1458 C.ar      1 <0>         0.0107
     22 C15        10.5534   -3.7167    1.0403 C.ar      1 <0>        -0.1718
     23 S2         12.1228   -7.4039    0.7609 S.o2      1 <0>         2.7036
     24 O1         12.9813   -7.1389    1.8619 O.2       1 <0>        -0.9640
     25 O2         11.3155   -8.5710    0.6881 O.2       1 <0>        -0.9611
     26 N6         13.0757   -7.4022   -0.5934 N.pl3     1 <0>        -1.2489
     27 N7          4.2074   -4.9604    0.7511 N.pl3     1 <0>        -0.7789
     28 F2          1.7155   -1.2107    1.7657 F         1 <0>        -0.0889
     29 H1         -1.0676    1.5793   -0.4122 H         1 <0>         0.1524
     30 H2         -0.5376    0.0691    1.4566 H         1 <0>         0.1538
     31 H3          0.5950    1.9905   -2.1789 H         1 <0>         0.1534
     32 H4          4.4206   -0.2887   -0.4264 H         1 <0>         0.4283
     33 H5          8.8079   -1.8774    0.2293 H         1 <0>         0.4322
     34 H6          7.9831   -5.2186   -0.5683 H         1 <0>         0.1467
     35 H7          9.5123   -7.1380   -0.3844 H         1 <0>         0.1464
     36 H8         12.3649   -4.6855    1.6262 H         1 <0>         0.1476
     37 H9         10.8481   -2.7567    1.4378 H         1 <0>         0.1386
     38 H10        13.9781   -7.7554   -0.5519 H         1 <0>         0.4215
     39 H11        12.7314   -7.0480   -1.4282 H         1 <0>         0.4170
     40 H12         3.2665   -4.7264    0.7830 H         1 <0>         0.4323
     41 H13         4.4811   -5.8849    0.8567 H         1 <0>         0.4174
@<TRIPOS>BOND
     1    1    6 ar
     2    1    2 ar
     3    1   29 1
     4    2    3 ar
     5    2   30 1
     6    3    4 ar
     7    3   28 1
     8    4    5 ar
     9    4    8 1
    10    5    6 ar
    11    5    7 1
    12    6   31 1
    13    8    9 1
    14    8   32 1
    15    9   10 2
    16    9   11 1
    17   11   15 1
    18   11   12 1
    19   12   13 2
    20   12   27 1
    21   13   14 1
    22   14   15 2
    23   14   16 1
    24   16   17 1
    25   16   33 1
    26   17   22 ar
    27   17   18 ar
    28   18   19 ar
    29   18   34 1
    30   19   20 ar
    31   19   35 1
    32   20   21 ar
    33   20   23 1
    34   21   22 ar
    35   21   36 1
    36   22   37 1
    37   23   24 2
    38   23   25 2
    39   23   26 1
    40   26   38 1
    41   26   39 1
    42   27   40 1
    43   27   41 1
@<TRIPOS>MOLECULE
ZINC12354940
   36    41     0     0     0
SMALL
USER_CHARGES

@<TRIPOS>ATOM
      1 C1         -0.0166    1.3735    0.0096 C.ar      1 <0>        -0.1479
      2 C2          1.1715    2.0889    0.0021 C.ar      1 <0>        -0.0724
      3 C3          2.3842    1.4344   -0.0130 C.ar      1 <0>        -0.1443
      4 C4          2.4249    0.0433   -0.0208 C.ar      1 <0>         0.1440
      5 C5          1.2217   -0.6796   -0.0132 C.ar      1 <0>        -0.1070
      6 C6          0.0021   -0.0041    0.0020 C.ar      1 <0>        -0.0471
      7 C7          1.5900   -2.1053   -0.0244 C.ar      1 <0>        -0.0113
      8 C8          0.8450   -3.2914   -0.0236 C.ar      1 <0>        -0.1089
      9 C9          1.5048   -4.5329   -0.0368 C.ar      1 <0>        -0.1090
     10 C10         2.9047   -4.5788   -0.0507 C.ar      1 <0>        -0.0113
     11 C11         3.8802   -5.6817   -0.0671 C.ar      1 <0>        -0.1071
     12 C12         3.7578   -7.0705   -0.0742 C.ar      1 <0>        -0.0471
     13 C13         4.8890   -7.8567   -0.0904 C.ar      1 <0>        -0.1479
     14 C14         6.1466   -7.2721   -0.0996 C.ar      1 <0>        -0.0724
     15 C15         6.2826   -5.9007   -0.0927 C.ar      1 <0>        -0.1443
     16 C16         5.1525   -5.0888   -0.0765 C.ar      1 <0>         0.1440
     17 N1          4.9928   -3.7159   -0.0666 N.pl3     1 <0>        -0.6062
     18 H1          5.7195   -3.0734   -0.0704 H         1 <0>         0.4202
     19 C17         3.6507   -3.3893   -0.0512 C.ar      1 <0>         0.1470
     20 C18         2.9933   -2.1524   -0.0381 C.ar      1 <0>         0.1470
     21 N2          3.4735   -0.8571   -0.0356 N.pl3     1 <0>        -0.6063
     22 H2          4.4125   -0.6141   -0.0429 H         1 <0>         0.4202
     23 C19         0.4437   -5.5556   -0.0320 C.2       1 <0>         0.5841
     24 O1          0.6177   -6.7581   -0.0399 O.2       1 <0>        -0.4586
     25 N3         -0.7498   -4.9352   -0.0170 N.am      1 <0>        -0.6811
     26 C20        -0.5964   -3.5989   -0.0112 C.2       1 <0>         0.5840
     27 O2         -1.4957   -2.7819    0.0023 O.2       1 <0>        -0.4587
     28 H3         -0.9603    1.8985    0.0259 H         1 <0>         0.1315
     29 H4          1.1462    3.1686    0.0077 H         1 <0>         0.1328
     30 H5          3.3035    2.0013   -0.0190 H         1 <0>         0.1270
     31 H6         -0.9246   -0.5587    0.0082 H         1 <0>         0.1419
     32 H7          2.7797   -7.5284   -0.0668 H         1 <0>         0.1419
     33 H8          4.7961   -8.9327   -0.0956 H         1 <0>         0.1315
     34 H9          7.0273   -7.8971   -0.1119 H         1 <0>         0.1328
     35 H10         7.2667   -5.4559   -0.0996 H         1 <0>         0.1270
     36 H11        -1.6062   -5.3906   -0.0108 H         1 <0>         0.4318
@<TRIPOS>BOND
     1    1    6 ar
     2    1    2 ar
     3    1   28 1
     4    2    3 ar
     5    2   29 1
     6    3    4 ar
     7    3   30 1
     8    4   21 1
     9    4    5 ar
    10    5    6 ar
    11    5    7 1
    12    6   31 1
    13    7   20 ar
    14    7    8 ar
    15    8   26 1
    16    8    9 ar
    17    9   10 ar
    18    9   23 1
    19   10   19 ar
    20   10   11 1
    21   11   16 ar
    22   11   12 ar
    23   12   13 ar
    24   12   32 1
    25   13   14 ar
    26   13   33 1
    27   14   15 ar
    28   14   34 1
    29   15   16 ar
    30   15   35 1
    31   16   17 1
    32   17   18 1
    33   17   19 1
    34   19   20 ar
    35   20   21 1
    36   21   22 1
    37   23   24 2
    38   23   25 am
    39   25   26 am
    40   25   36 1
    41   26   27 2
@<TRIPOS>MOLECULE
ZINC12354826
   35    37     0     0     0
SMALL
USER_CHARGES

@<TRIPOS>ATOM
      1 C1         -0.0166    1.3761    0.0096 C.ar      1 <0>        -0.1342
      2 C2          1.1722    2.0866    0.0021 C.ar      1 <0>        -0.0922
      3 C3          2.3845    1.4280   -0.0135 C.ar      1 <0>        -0.1316
      4 C4          2.4231    0.0375   -0.0212 C.ar      1 <0>         0.1319
      5 C5          1.2185   -0.6770   -0.0131 C.ar      1 <0>        -0.0720
      6 C6          0.0021   -0.0041    0.0020 C.ar      1 <0>        -0.0790
      7 C7          1.5853   -2.1126   -0.0239 C.2       1 <0>        -0.2766
      8 C8          0.7414   -3.1854   -0.0218 C.2       1 <0>         0.2412
      9 N1          1.2472   -4.4495   -0.0330 N.pl3     1 <0>        -0.6323
     10 C9          0.3831   -5.5478   -0.0308 C.ar      1 <0>         0.2200
     11 C10        -0.9922   -5.3517   -0.0229 C.ar      1 <0>        -0.1940
     12 C11        -1.8432   -6.4393   -0.0207 C.ar      1 <0>         0.0234
     13 C12        -1.3277   -7.7226   -0.0259 C.ar      1 <0>        -0.7085
     14 C13         0.0408   -7.9214   -0.0337 C.ar      1 <0>         0.0229
     15 C14         0.8975   -6.8383   -0.0422 C.ar      1 <0>        -0.1805
     16 S1         -2.4172   -9.1074   -0.0219 S.o2      1 <0>         2.7047
     17 O1         -1.6863  -10.1975    0.5229 O.2       1 <0>        -0.9631
     18 O2         -3.6438   -8.6575    0.5369 O.2       1 <0>        -0.9633
     19 N2         -2.7291   -9.4896   -1.6027 N.pl3     1 <0>        -1.2505
     20 C15         3.0525   -2.1310   -0.0383 C.2       1 <0>         0.5643
     21 O3          3.7558   -3.1259   -0.0502 O.2       1 <0>        -0.5343
     22 N3          3.4847   -0.8586   -0.0361 N.am      1 <0>        -0.6497
     23 H1         -0.9595    1.9026    0.0259 H         1 <0>         0.1294
     24 H2          1.1501    3.1664    0.0080 H         1 <0>         0.1306
     25 H3          3.3049    1.9929   -0.0199 H         1 <0>         0.1265
     26 H4         -0.9245   -0.5589    0.0082 H         1 <0>         0.1259
     27 H5         -0.3275   -3.0315   -0.0112 H         1 <0>         0.1708
     28 H6          2.2072   -4.5877   -0.0424 H         1 <0>         0.4310
     29 H7         -1.3953   -4.3498   -0.0182 H         1 <0>         0.1404
     30 H8         -2.9124   -6.2875   -0.0146 H         1 <0>         0.1508
     31 H9          0.4400   -8.9249   -0.0373 H         1 <0>         0.1509
     32 H10         1.9661   -6.9943   -0.0531 H         1 <0>         0.1418
     33 H11        -2.3257   -8.9704   -2.3159 H         1 <0>         0.4167
     34 H12        -3.3151  -10.2326   -1.8155 H         1 <0>         0.4216
     35 H13         4.4192   -0.5988   -0.0439 H         1 <0>         0.4168
@<TRIPOS>BOND
     1    1    6 ar
     2    1    2 ar
     3    1   23 1
     4    2    3 ar
     5    2   24 1
     6    3    4 ar
     7    3   25 1
     8    4   22 1
     9    4    5 ar
    10    5    6 ar
    11    5    7 1
    12    6   26 1
    13    7    8 2
    14    7   20 1
    15    8    9 1
    16    8   27 1
    17    9   10 1
    18    9   28 1
    19   10   15 ar
    20   10   11 ar
    21   11   12 ar
    22   11   29 1
    23   12   13 ar
    24   12   30 1
    25   13   14 ar
    26   13   16 1
    27   14   15 ar
    28   14   31 1
    29   15   32 1
    30   16   17 2
    31   16   18 2
    32   16   19 1
    33   19   33 1
    34   19   34 1
    35   20   21 2
    36   20   22 am
    37   22   35 1
@<TRIPOS>MOLECULE
ZINC12354826
   35    37     0     0     0
SMALL
USER_CHARGES

@<TRIPOS>ATOM
      1 C1         -0.0986    1.2634   -0.9624 C.ar      1 <0>        -0.1315
      2 C2          1.0773    1.9817   -1.1028 C.ar      1 <0>        -0.0906
      3 C3          2.3012    1.3605   -0.9622 C.ar      1 <0>        -0.1292
      4 C4          2.3649    0.0007   -0.6765 C.ar      1 <0>         0.1395
      5 C5          1.1733   -0.7217   -0.5349 C.ar      1 <0>        -0.0862
      6 C6         -0.0551   -0.0867   -0.6789 C.ar      1 <0>        -0.0888
      7 C7          1.5659   -2.1193   -0.2380 C.2       1 <0>        -0.2726
      8 C8          0.7414   -3.1854   -0.0218 C.2       1 <0>         0.2402
      9 N1         -0.6018   -2.9947    0.0943 N.pl3     1 <0>        -0.6373
     10 C9         -1.4570   -4.0947    0.2017 C.ar      1 <0>         0.2192
     11 C10        -0.9379   -5.3833    0.1959 C.ar      1 <0>        -0.1912
     12 C11        -1.7859   -6.4681    0.3022 C.ar      1 <0>         0.0245
     13 C12        -3.1504   -6.2728    0.4138 C.ar      1 <0>        -0.7076
     14 C13        -3.6705   -4.9914    0.4198 C.ar      1 <0>         0.0229
     15 C14        -2.8277   -3.9020    0.3201 C.ar      1 <0>        -0.1831
     16 S1         -4.2287   -7.6598    0.5479 S.o2      1 <0>         2.7043
     17 O1         -5.5036   -7.2287    0.0917 O.2       1 <0>        -0.9631
     18 O2         -3.5454   -8.7630   -0.0311 O.2       1 <0>        -0.9625
     19 N2         -4.3928   -7.9982    2.1607 N.pl3     1 <0>        -1.2503
     20 C15         3.0331   -2.1090   -0.2276 C.2       1 <0>         0.5757
     21 O3          3.7542   -3.0689   -0.0198 O.2       1 <0>        -0.5179
     22 N3          3.4424   -0.8557   -0.4874 N.am      1 <0>        -0.6519
     23 H1         -1.0509    1.7613   -1.0705 H         1 <0>         0.1300
     24 H2          1.0357    3.0379   -1.3246 H         1 <0>         0.1322
     25 H3          3.2113    1.9310   -1.0747 H         1 <0>         0.1286
     26 H4         -0.9715   -0.6475   -0.5690 H         1 <0>         0.1138
     27 H5          1.1544   -4.1801    0.0573 H         1 <0>         0.1731
     28 H6         -0.9651   -2.0953    0.1024 H         1 <0>         0.4174
     29 H7          0.1276   -5.5365    0.1081 H         1 <0>         0.1425
     30 H8         -1.3830   -7.4701    0.2978 H         1 <0>         0.1515
     31 H9         -4.7366   -4.8425    0.5068 H         1 <0>         0.1511
     32 H10        -3.2341   -2.9014    0.3297 H         1 <0>         0.1404
     33 H11        -3.9285   -7.4582    2.8192 H         1 <0>         0.4167
     34 H12        -4.9533   -8.7364    2.4468 H         1 <0>         0.4218
     35 H13         4.3721   -0.5834   -0.5366 H         1 <0>         0.4184
@<TRIPOS>BOND
     1    1    6 ar
     2    1    2 ar
     3    1   23 1
     4    2    3 ar
     5    2   24 1
     6    3    4 ar
     7    3   25 1
     8    4   22 1
     9    4    5 ar
    10    5    6 ar
    11    5    7 1
    12    6   26 1
    13    7    8 2
    14    7   20 1
    15    8    9 1
    16    8   27 1
    17    9   10 1
    18    9   28 1
    19   10   15 ar
    20   10   11 ar
    21   11   12 ar
    22   11   29 1
    23   12   13 ar
    24   12   30 1
    25   13   14 ar
    26   13   16 1
    27   14   15 ar
    28   14   31 1
    29   15   32 1
    30   16   17 2
    31   16   18 2
    32   16   19 1
    33   19   33 1
    34   19   34 1
    35   20   21 2
    36   20   22 am
    37   22   35 1
@<TRIPOS>MOLECULE
ZINC12354826
   35    37     0     0     0
SMALL
USER_CHARGES

@<TRIPOS>ATOM
      1 C1         -0.0166    1.3740    0.0096 C.ar      1 <0>        -0.1262
      2 C2          1.1717    2.0891    0.0021 C.ar      1 <0>        -0.0996
      3 C3          2.3849    1.4346   -0.0130 C.ar      1 <0>        -0.1167
      4 C4          2.4245    0.0447   -0.0208 C.ar      1 <0>         0.0948
      5 C5          1.2211   -0.6772   -0.0131 C.ar      1 <0>        -0.0639
      6 C6          0.0021   -0.0041    0.0020 C.ar      1 <0>        -0.0811
      7 C7          1.5989   -2.1038   -0.0244 C.2       1 <0>        -0.2027
      8 C8          2.9847   -2.1380   -0.0377 C.2       1 <0>         0.3558
      9 N1          3.4655   -0.8664   -0.0355 N.pl3     1 <0>        -0.5871
     10 H1          4.4064   -0.6309   -0.0437 H         1 <0>         0.4202
     11 O1          3.7395   -3.2597   -0.0509 O.3       1 <0>        -0.4446
     12 C9          0.7212   -3.2156   -0.0215 C.2       1 <0>         0.2671
     13 N2          1.2056   -4.4321   -0.0327 N.2       1 <0>        -0.5143
     14 C10         0.3578   -5.5060   -0.0299 C.ar      1 <0>         0.1659
     15 C11        -0.7421   -5.5295    0.8308 C.ar      1 <0>        -0.1855
     16 C12        -1.5929   -6.6152    0.8278 C.ar      1 <0>         0.0026
     17 C13        -1.3588   -7.6794   -0.0250 C.ar      1 <0>        -0.6961
     18 C14        -0.2709   -7.6631   -0.8800 C.ar      1 <0>        -0.0022
     19 C15         0.5849   -6.5815   -0.8919 C.ar      1 <0>        -0.1374
     20 S1         -2.4509   -9.0621   -0.0219 S.o2      1 <0>         2.7029
     21 O2         -1.7090  -10.1668   -0.5204 O.2       1 <0>        -0.9645
     22 O3         -3.0803   -9.0797    1.2520 O.2       1 <0>        -0.9649
     23 N3         -3.6390   -8.7502   -1.1325 N.pl3     1 <0>        -1.2507
     24 H2         -0.9602    1.8991    0.0259 H         1 <0>         0.1294
     25 H3          1.1463    3.1688    0.0077 H         1 <0>         0.1312
     26 H4          3.3043    2.0013   -0.0191 H         1 <0>         0.1257
     27 H5         -0.9243   -0.5593    0.0082 H         1 <0>         0.1274
     28 H6         -0.3474   -3.0599   -0.0101 H         1 <0>         0.1107
     29 H7         -0.9258   -4.6997    1.4972 H         1 <0>         0.1325
     30 H8         -2.4435   -6.6349    1.4930 H         1 <0>         0.1437
     31 H9         -0.0941   -8.4973   -1.5428 H         1 <0>         0.1461
     32 H10         1.4310   -6.5681   -1.5629 H         1 <0>         0.1378
     33 H11        -3.6285   -7.9198   -1.6337 H         1 <0>         0.4163
     34 H12        -4.3455   -9.3979   -1.2819 H         1 <0>         0.4208
     35 H13         3.9507   -3.5813   -0.9381 H         1 <0>         0.4066
@<TRIPOS>BOND
     1    1    6 ar
     2    1    2 ar
     3    1   24 1
     4    2    3 ar
     5    2   25 1
     6    3    4 ar
     7    3   26 1
     8    4    9 1
     9    4    5 ar
    10    5    6 ar
    11    5    7 1
    12    6   27 1
    13    7    8 2
    14    7   12 1
    15    8    9 1
    16    8   11 1
    17    9   10 1
    18   11   35 1
    19   12   13 2
    20   12   28 1
    21   13   14 1
    22   14   19 ar
    23   14   15 ar
    24   15   16 ar
    25   15   29 1
    26   16   17 ar
    27   16   30 1
    28   17   18 ar
    29   17   20 1
    30   18   19 ar
    31   18   31 1
    32   19   32 1
    33   20   21 2
    34   20   22 2
    35   20   23 1
    36   23   33 1
    37   23   34 1
@<TRIPOS>MOLECULE
ZINC03873285
   35    37     0     0     0
SMALL
USER_CHARGES

@<TRIPOS>ATOM
      1 C1         -0.0126    1.0758    0.0080 C.2       1 <0>         0.2458
      2 N1         -1.0879    1.8075    0.0278 N.2       1 <0>        -0.4437
      3 H1          2.0169    1.5751   -0.0093 H         1 <0>         0.4321
      4 C2         -0.7417    3.1187    0.0304 C.ar      1 <0>        -0.1173
      5 C3          0.6623    3.1759    0.0104 C.ar      1 <0>         0.3458
      6 N2          1.0941    1.8737    0.0017 N.pl3     1 <0>        -0.5824
      7 N3          1.2618    4.3618    0.0086 N.ar      1 <0>        -0.5978
      8 C4          0.5483    5.4757    0.0254 C.ar      1 <0>         0.6265
      9 N4         -0.7789    5.4662    0.0446 N.ar      1 <0>        -0.6206
     10 C5         -1.4569    4.3263    0.0478 C.ar      1 <0>         0.4766
     11 O1         -2.8114    4.3275    0.0679 O.3       1 <0>        -0.2772
     12 C6         -3.4589    5.6013    0.0847 C.3       1 <0>         0.0692
     13 C7         -4.9757    5.4021    0.1061 C.3       1 <0>        -0.0870
     14 C8         -5.4214    4.7387   -1.1986 C.3       1 <0>        -0.1149
     15 C9         -6.9382    4.5395   -1.1772 C.3       1 <0>        -0.1199
     16 C10        -7.6289    5.8972   -1.0336 C.3       1 <0>        -0.1220
     17 C11        -7.1832    6.5607    0.2711 C.3       1 <0>        -0.1180
     18 C12        -5.6663    6.7598    0.2497 C.3       1 <0>        -0.1110
     19 N5          1.2087    6.6933    0.0233 N.pl3     1 <0>        -0.8136
     20 H2          0.0021   -0.0041    0.0020 H         1 <0>         0.2282
     21 H3         -3.1523    6.1530    0.9734 H         1 <0>         0.0718
     22 H4         -3.1787    6.1630   -0.8064 H         1 <0>         0.0719
     23 H5         -5.2468    4.7657    0.9484 H         1 <0>         0.0826
     24 H6         -5.1503    5.3751   -2.0409 H         1 <0>         0.0612
     25 H7         -4.9294    3.7714   -1.3009 H         1 <0>         0.0704
     26 H8         -7.2558    4.0669   -2.1067 H         1 <0>         0.0627
     27 H9         -7.2093    3.9031   -0.3349 H         1 <0>         0.0628
     28 H10        -7.3578    6.5337   -1.8759 H         1 <0>         0.0615
     29 H11        -8.7095    5.7554   -1.0184 H         1 <0>         0.0617
     30 H12        -7.6752    7.5279    0.3734 H         1 <0>         0.0646
     31 H13        -7.4542    5.9242    1.1134 H         1 <0>         0.0634
     32 H14        -5.3488    7.2324    1.1792 H         1 <0>         0.0656
     33 H15        -5.3953    7.3962   -0.5926 H         1 <0>         0.0661
     34 H16         0.7015    7.5201    0.0355 H         1 <0>         0.4177
     35 H17         2.1782    6.7192    0.0098 H         1 <0>         0.4174
@<TRIPOS>BOND
     1    1   20 1
     2    1    6 1
     3    1    2 2
     4    2    4 1
     5    3    6 1
     6    4    5 ar
     7    4   10 ar
     8    5    6 1
     9    5    7 ar
    10    7    8 ar
    11    8    9 ar
    12    8   19 1
    13    9   10 ar
    14   10   11 1
    15   11   12 1
    16   12   13 1
    17   12   21 1
    18   12   22 1
    19   13   18 1
    20   13   14 1
    21   13   23 1
    22   14   15 1
    23   14   24 1
    24   14   25 1
    25   15   16 1
    26   15   26 1
    27   15   27 1
    28   16   17 1
    29   16   28 1
    30   16   29 1
    31   17   18 1
    32   17   30 1
    33   17   31 1
    34   18   32 1
    35   18   33 1
    36   19   35 1
    37   19   34 1
@<TRIPOS>MOLECULE
ZINC03873285
   36    38     0     0     0
SMALL
USER_CHARGES

@<TRIPOS>ATOM
      1 C1         -0.0126    1.0758    0.0080 C.2       1 <0>         0.3100
      2 N1         -1.0879    1.8075    0.0278 N.2       1 <0>        -0.4318
      3 H1          2.0169    1.5751   -0.0093 H         1 <0>         0.4527
      4 C2         -0.7417    3.1187    0.0304 C.ar      1 <0>        -0.0738
      5 C3          0.6623    3.1759    0.0104 C.ar      1 <0>         0.3823
      6 N2          1.0941    1.8737    0.0017 N.pl3     1 <0>        -0.5585
      7 N3          1.2618    4.3618    0.0086 N.ar      1 <0>        -0.5166
      8 C4          0.5483    5.4757    0.0254 C.ar      1 <0>         0.6503
      9 N4         -0.7789    5.4662    0.0446 N.ar      1 <0>        -0.5806
     10 C5         -1.4569    4.3263    0.0478 C.ar      1 <0>         0.5087
     11 O1         -2.8114    4.3275    0.0679 O.3       1 <0>        -0.2368
     12 C6         -3.4589    5.6013    0.0847 C.3       1 <0>         0.0208
     13 C7         -4.9757    5.4021    0.1061 C.3       1 <0>        -0.0831
     14 C8         -5.4214    4.7387   -1.1986 C.3       1 <0>        -0.1190
     15 C9         -6.9382    4.5395   -1.1772 C.3       1 <0>        -0.1216
     16 C10        -7.6289    5.8972   -1.0336 C.3       1 <0>        -0.1256
     17 C11        -7.1832    6.5607    0.2711 C.3       1 <0>        -0.1201
     18 C12        -5.6663    6.7598    0.2497 C.3       1 <0>        -0.1129
     19 N5          1.2087    6.6933    0.0233 N.pl3     1 <0>        -0.7895
     20 H2          0.0021   -0.0041    0.0020 H         1 <0>         0.2544
     21 H3         -3.1523    6.1530    0.9734 H         1 <0>         0.0915
     22 H4         -3.1787    6.1630   -0.8064 H         1 <0>         0.0910
     23 H5         -5.2468    4.7657    0.9484 H         1 <0>         0.0971
     24 H6         -5.1503    5.3751   -2.0409 H         1 <0>         0.0655
     25 H7         -4.9294    3.7714   -1.3009 H         1 <0>         0.0716
     26 H8         -7.2558    4.0669   -2.1067 H         1 <0>         0.0699
     27 H9         -7.2093    3.9031   -0.3349 H         1 <0>         0.0670
     28 H10        -7.3578    6.5337   -1.8759 H         1 <0>         0.0639
     29 H11        -8.7095    5.7554   -1.0184 H         1 <0>         0.0693
     30 H12        -7.6752    7.5279    0.3734 H         1 <0>         0.0723
     31 H13        -7.4542    5.9242    1.1134 H         1 <0>         0.0678
     32 H14        -5.3488    7.2324    1.1792 H         1 <0>         0.0697
     33 H15        -5.3953    7.3962   -0.5926 H         1 <0>         0.0701
     34 H16         0.7015    7.5201    0.0355 H         1 <0>         0.4305
     35 H17         2.1782    6.7192    0.0098 H         1 <0>         0.4482
     36 H18        -1.2613    6.3076    0.0568 H         1 <0>         0.4451
@<TRIPOS>BOND
     1    1   20 1
     2    1    6 1
     3    1    2 2
     4    2    4 1
     5    3    6 1
     6    4    5 ar
     7    4   10 ar
     8    5    6 1
     9    5    7 ar
    10    7    8 ar
    11    8    9 ar
    12    8   19 1
    13    9   10 ar
    14    9   36 1
    15   10   11 1
    16   11   12 1
    17   12   13 1
    18   12   21 1
    19   12   22 1
    20   13   18 1
    21   13   14 1
    22   13   23 1
    23   14   15 1
    24   14   24 1
    25   14   25 1
    26   15   16 1
    27   15   26 1
    28   15   27 1
    29   16   17 1
    30   16   28 1
    31   16   29 1
    32   17   18 1
    33   17   30 1
    34   17   31 1
    35   18   32 1
    36   18   33 1
    37   19   35 1
    38   19   34 1
@<TRIPOS>MOLECULE
ZINC29135065
   25    27     0     0     0
SMALL
USER_CHARGES
4-(6-bromo-1H-pyrrolo[2,3-b]pyridin-3-yl)pyrimidin-2-amine
@<TRIPOS>ATOM
      1 C1          3.9019   -2.6656   -0.0489 C.ar      1 <0>        -0.0068
      2 C2          4.7889   -3.7264   -0.0625 C.ar      1 <0>        -0.1687
      3 C3          4.2976   -5.0234   -0.0642 C.ar      1 <0>         0.1610
      4 N1          3.0039   -5.2697   -0.0528 N.ar      1 <0>        -0.4735
      5 C4          2.1085   -4.2907   -0.0400 C.ar      1 <0>         0.2815
      6 C5          2.5372   -2.9515   -0.0375 C.ar      1 <0>        -0.1089
      7 C6          1.3158   -2.1310   -0.0215 C.2       1 <0>        -0.1479
      8 C7          0.2700   -2.9968   -0.0097 C.2       1 <0>         0.1376
      9 N2          0.7328   -4.2781   -0.0266 N.pl3     1 <0>        -0.5798
     10 H1          0.1740   -5.2256   -0.0304 H         1 <0>         0.4590
     11 C8          1.2420   -0.6541   -0.0133 C.ar      1 <0>         0.3054
     12 C9          0.0021   -0.0041    0.0020 C.ar      1 <0>        -0.2980
     13 C10        -0.0167    1.3771    0.0096 C.ar      1 <0>         0.1995
     14 N3          1.1296    2.0415    0.0022 N.ar      1 <0>        -0.5867
     15 C11         2.2897    1.4014   -0.0123 C.ar      1 <0>         0.5785
     16 N4          2.3547    0.0793   -0.0200 N.ar      1 <0>        -0.5766
     17 N5          3.4640    2.1342   -0.0191 N.pl3     1 <0>        -0.8460
     18 Br1         5.5134   -6.4716   -0.0828 Br        1 <0>        -0.0023
     19 H2          4.2558   -1.6452   -0.0476 H         1 <0>         0.1538
     20 H3          5.8538   -3.5466   -0.0712 H         1 <0>         0.1490
     21 H4         -0.7718   -2.7126    0.0080 H         1 <0>         0.1904
     22 H5         -0.9182   -0.5693    0.0081 H         1 <0>         0.1408
     23 H6         -0.9560    1.9100    0.0170 H         1 <0>         0.1666
     24 H7          4.4349    1.6172   -0.0311 H         1 <0>         0.4350
     25 H8          3.4263    3.2335   -0.0125 H         1 <0>         0.4372
@<TRIPOS>BOND
     1    1    6 ar
     2    1    2 ar
     3    1   19 1
     4    2    3 ar
     5    2   20 1
     6    3    4 ar
     7    3   18 1
     8    4    5 ar
     9    5    9 1
    10    5    6 ar
    11    6    7 1
    12    7    8 2
    13    7   11 1
    14    8    9 1
    15    8   21 1
    16    9   10 1
    17   11   16 ar
    18   11   12 ar
    19   12   13 ar
    20   12   22 1
    21   13   14 ar
    22   13   23 1
    23   14   15 ar
    24   15   16 ar
    25   15   17 1
    26   17   24 1
    27   17   25 1
@<TRIPOS>MOLECULE
ZINC29135071
   25    27     0     0     0
SMALL
USER_CHARGES
4-(4-chloro-1H-pyrrolo[2,3-b]pyridin-3-yl)pyrimidin-2-amine
@<TRIPOS>ATOM
      1 C1          4.6688    5.2304   -0.0133 C.ar      1 <0>        -0.1988
      2 C2          4.1415    6.5117   -0.0012 C.ar      1 <0>         0.1517
      3 N1          2.8423    6.7220    0.0117 N.ar      1 <0>        -0.4946
      4 C3          1.9731    5.7190    0.0139 C.ar      1 <0>         0.2866
      5 C4          2.4375    4.3925    0.0078 C.ar      1 <0>        -0.1240
      6 C5          3.8108    4.1438   -0.0116 C.ar      1 <0>         0.0624
      7 Cl1         4.4249    2.5202   -0.0258 Cl        1 <0>        -0.0158
      8 C6          1.2389    3.5391    0.0088 C.2       1 <0>        -0.1391
      9 C7          0.1699    4.3761    0.0234 C.2       1 <0>         0.1291
     10 N2          0.5983    5.6695    0.0266 N.pl3     1 <0>        -0.5797
     11 H1          0.0145    6.6017    0.0373 H         1 <0>         0.4590
     12 C8          1.2052    2.0607    0.0016 C.ar      1 <0>         0.2968
     13 C9         -0.0167    1.3772    0.0096 C.ar      1 <0>        -0.2957
     14 C10         0.0021   -0.0041    0.0020 C.ar      1 <0>         0.1967
     15 N3          1.1659   -0.6370   -0.0125 N.ar      1 <0>        -0.5865
     16 C11         2.3082    0.0345   -0.0198 C.ar      1 <0>         0.5726
     17 N4          2.3373    1.3579   -0.0130 N.ar      1 <0>        -0.5499
     18 N5          3.5019   -0.6660   -0.0345 N.pl3     1 <0>        -0.8460
     19 H2          5.7383    5.0808   -0.0234 H         1 <0>         0.1479
     20 H3          4.8125    7.3579   -0.0029 H         1 <0>         0.1714
     21 H4         -0.8640    4.0638    0.0314 H         1 <0>         0.1898
     22 H5         -0.9519    1.9171    0.0170 H         1 <0>         0.1390
     23 H6         -0.9225   -0.5623    0.0082 H         1 <0>         0.1652
     24 H7          4.4584   -0.1227   -0.0407 H         1 <0>         0.4252
     25 H8          3.4941   -1.7660   -0.0400 H         1 <0>         0.4366
@<TRIPOS>BOND
     1    1    6 ar
     2    1    2 ar
     3    1   19 1
     4    2    3 ar
     5    2   20 1
     6    3    4 ar
     7    4   10 1
     8    4    5 ar
     9    5    6 ar
    10    5    8 1
    11    6    7 1
    12    8    9 2
    13    8   12 1
    14    9   10 1
    15    9   21 1
    16   10   11 1
    17   12   17 ar
    18   12   13 ar
    19   13   14 ar
    20   13   22 1
    21   14   15 ar
    22   14   23 1
    23   15   16 ar
    24   16   17 ar
    25   16   18 1
    26   18   24 1
    27   18   25 1
@<TRIPOS>MOLECULE
ZINC13470446
   37    39     0     0     0
SMALL
USER_CHARGES

@<TRIPOS>ATOM
      1 C1          1.0252    1.4117    0.0288 C.3       1 <0>        -0.1151
      2 C2          0.7422   -0.0684    0.0151 C.ar      1 <0>        -0.0980
      3 C3          0.6598   -0.7456   -1.1901 C.ar      1 <0>        -0.0730
      4 C4          0.4013   -2.1009   -1.2187 C.ar      1 <0>        -0.1251
      5 C5          0.2204   -2.8021   -0.0313 C.ar      1 <0>         0.1592
      6 C6          0.3051   -2.1133    1.1856 C.ar      1 <0>        -0.1378
      7 C7          0.5712   -0.7486    1.2040 C.ar      1 <0>        -0.0721
      8 C8          0.0719   -3.1162    2.2503 C.2       1 <0>        -0.0019
      9 N1          0.0593   -2.9159    3.5492 N.2       1 <0>        -0.1181
     10 N2          0.1418   -1.7169    4.0177 N.pl3     1 <0>        -0.4948
     11 C9          0.2505   -1.5114    5.3935 C.ar      1 <0>         0.2272
     12 C10         0.2758   -2.5976    6.2603 C.ar      1 <0>        -0.1583
     13 C11         0.3839   -2.3904    7.6211 C.ar      1 <0>         0.0119
     14 C12         0.4670   -1.1039    8.1220 C.ar      1 <0>        -0.7034
     15 C13         0.4417   -0.0206    7.2626 C.ar      1 <0>         0.0198
     16 C14         0.3396   -0.2202    5.9001 C.ar      1 <0>        -0.1797
     17 S1          0.6049   -0.8445    9.8593 S.o2      1 <0>         2.7048
     18 O1          0.1180    0.4660   10.1142 O.2       1 <0>        -0.9627
     19 O2          0.0574   -1.9960   10.4866 O.2       1 <0>        -0.9591
     20 N3          2.2199   -0.8288   10.2254 N.pl3     1 <0>        -1.2484
     21 C15        -0.1436   -4.3865    1.5371 C.2       1 <0>         0.5940
     22 O3         -0.3702   -5.4668    2.0510 O.2       1 <0>        -0.4813
     23 N4         -0.0460   -4.1432    0.2190 N.am      1 <0>        -0.6478
     24 H1          2.1022    1.5754    0.0668 H         1 <0>         0.0744
     25 H2          0.6200    1.8675   -0.8746 H         1 <0>         0.0727
     26 H3          0.5581    1.8629    0.9043 H         1 <0>         0.0670
     27 H4          0.7987   -0.2080   -2.1164 H         1 <0>         0.1377
     28 H5          0.3390   -2.6179   -2.1648 H         1 <0>         0.1360
     29 H6          0.6393   -0.2221    2.1446 H         1 <0>         0.1164
     30 H7          0.1283   -0.9581    3.4135 H         1 <0>         0.3955
     31 H8          0.2106   -3.6025    5.8699 H         1 <0>         0.1510
     32 H9          0.4033   -3.2339    8.2953 H         1 <0>         0.1514
     33 H10         0.5065    0.9826    7.6574 H         1 <0>         0.1517
     34 H11         0.3248    0.6261    5.2293 H         1 <0>         0.1396
     35 H12         2.5431   -0.2990   10.9709 H         1 <0>         0.4221
     36 H13         2.8426   -1.3494    9.6943 H         1 <0>         0.4173
     37 H14        -0.1489   -4.8178   -0.4703 H         1 <0>         0.4269
@<TRIPOS>BOND
     1    1    2 1
     2    1   24 1
     3    1   25 1
     4    1   26 1
     5    2    7 ar
     6    2    3 ar
     7    3    4 ar
     8    3   27 1
     9    4    5 ar
    10    4   28 1
    11    5   23 1
    12    5    6 ar
    13    6    7 ar
    14    6    8 1
    15    7   29 1
    16    8    9 2
    17    8   21 1
    18    9   10 1
    19   10   11 1
    20   10   30 1
    21   11   16 ar
    22   11   12 ar
    23   12   13 ar
    24   12   31 1
    25   13   14 ar
    26   13   32 1
    27   14   15 ar
    28   14   17 1
    29   15   16 ar
    30   15   33 1
    31   16   34 1
    32   17   18 2
    33   17   19 2
    34   17   20 1
    35   20   35 1
    36   20   36 1
    37   21   22 2
    38   21   23 am
    39   23   37 1
@<TRIPOS>MOLECULE
ZINC03377215
   37    39     0     0     0
SMALL
USER_CHARGES
3-[2-(2,5-dioxopyrrolidin-1-yl)acetyl]amino-4-thiabicyclo[3.3.0]octa-2,9-diene-2-carboxamide
@<TRIPOS>ATOM
      1 C1         -9.5360   -1.1668   -4.7077 C.3       1 <0>        -0.1163
      2 C2         -9.3514    0.3637   -4.6885 C.3       1 <0>        -0.0612
      3 C3         -8.0339    0.6071   -3.9513 C.2       1 <0>        -0.0943
      4 C4         -7.7156   -0.5071   -3.2681 C.2       1 <0>        -0.2316
      5 S1         -6.1856   -0.1170   -2.4547 S.3       1 <0>         0.2659
      6 C5         -5.9723    1.5057   -3.0173 C.2       1 <0>         0.0664
      7 C6         -7.0861    1.7123   -3.8129 C.2       1 <0>        -0.2112
      8 C7         -7.3057    2.9914   -4.4952 C.2       1 <0>         0.5828
      9 O1         -6.8650    3.1667   -5.6161 O.2       1 <0>        -0.5322
     10 N1         -7.9956    3.9730   -3.8812 N.am      1 <0>        -0.8472
     11 N2         -4.9396    2.3869   -2.7349 N.am      1 <0>        -0.6147
     12 C8         -3.9315    2.0065   -1.9252 C.2       1 <0>         0.4995
     13 O2         -3.9277    0.8934   -1.4436 O.2       1 <0>        -0.4879
     14 C9         -2.8092    2.9642   -1.6183 C.3       1 <0>         0.0866
     15 N3         -1.8465    2.3176   -0.7231 N.am      1 <0>        -0.5624
     16 C10        -0.7994    1.6142   -1.1716 C.2       1 <0>         0.5311
     17 O3         -0.5252    1.4296   -2.3379 O.2       1 <0>        -0.4742
     18 C11        -0.0127    1.0858    0.0080 C.3       1 <0>        -0.1542
     19 C12        -0.7914    1.6114    1.2311 C.3       1 <0>        -0.1524
     20 C13        -1.9415    2.3815    0.6107 C.2       1 <0>         0.5315
     21 O4         -2.8084    2.9642    1.2259 O.2       1 <0>        -0.4765
     22 C14        -8.7369   -1.5958   -3.4573 C.3       1 <0>        -0.0321
     23 H1         -9.1081   -1.6000   -5.6117 H         1 <0>         0.0779
     24 H2        -10.5881   -1.4341   -4.6090 H         1 <0>         0.0852
     25 H3         -9.2909    0.7490   -5.7063 H         1 <0>         0.0744
     26 H4        -10.1763    0.8364   -4.1553 H         1 <0>         0.0808
     27 H5         -8.3469    3.8333   -2.9879 H         1 <0>         0.4038
     28 H6         -8.1409    4.8192   -4.3326 H         1 <0>         0.4038
     29 H7         -4.9427    3.2772   -3.1201 H         1 <0>         0.4220
     30 H8         -3.2129    3.8544   -1.1359 H         1 <0>         0.1344
     31 H9         -2.3100    3.2479   -2.5448 H         1 <0>         0.1348
     32 H10         0.0021   -0.0041    0.0020 H         1 <0>         0.1255
     33 H11         1.0027    1.4821    0.0004 H         1 <0>         0.1251
     34 H12        -1.1640    0.7829    1.8336 H         1 <0>         0.1253
     35 H13        -0.1643    2.2713    1.8306 H         1 <0>         0.1251
     36 H14        -8.2447   -2.5528   -3.6306 H         1 <0>         0.0802
     37 H15        -9.3931   -1.6566   -2.5891 H         1 <0>         0.0859
@<TRIPOS>BOND
     1    1   22 1
     2    1    2 1
     3    1   23 1
     4    1   24 1
     5    2    3 1
     6    2   25 1
     7    2   26 1
     8    3    7 1
     9    3    4 2
    10    4    5 1
    11    4   22 1
    12    5    6 1
    13    6    7 2
    14    6   11 1
    15    7    8 1
    16    8    9 2
    17    8   10 am
    18   10   27 1
    19   10   28 1
    20   11   12 am
    21   11   29 1
    22   12   13 2
    23   12   14 1
    24   14   15 1
    25   14   30 1
    26   14   31 1
    27   15   20 am
    28   15   16 am
    29   16   17 2
    30   16   18 1
    31   18   19 1
    32   18   32 1
    33   18   33 1
    34   19   20 1
    35   19   34 1
    36   19   35 1
    37   20   21 2
    38   22   36 1
    39   22   37 1
@<TRIPOS>MOLECULE
ZINC01641925
   40    42     0     0     0
SMALL
USER_CHARGES

@<TRIPOS>ATOM
      1 C1         -0.0178    1.4608    0.0101 C.3       1 <0>         0.0831
      2 N1          0.0021   -0.0041    0.0020 N.pl3     1 <0>        -0.4808
      3 C2          0.0085   -0.8054   -1.1023 C.2       1 <0>         0.2308
      4 N2          0.0274   -2.0557   -0.7436 N.2       1 <0>        -0.4545
      5 C3          0.0343   -2.1368    0.6098 C.ar      1 <0>        -0.1554
      6 C4          0.0236   -0.8217    1.1034 C.ar      1 <0>         0.3460
      7 N3          0.0327   -0.6231    2.4177 N.ar      1 <0>        -0.6159
      8 C5          0.0544   -1.6488    3.2534 C.ar      1 <0>         0.6298
      9 N4          0.0680   -2.9065    2.8307 N.ar      1 <0>        -0.6237
     10 C6          0.0525   -3.1954    1.5342 C.ar      1 <0>         0.5415
     11 N5          0.0685   -4.5100    1.1029 N.pl3     1 <0>        -0.6890
     12 C7          0.0874   -5.6013    2.0801 C.3       1 <0>         0.1707
     13 C8          0.1022   -6.9232    1.3567 C.ar      1 <0>        -0.1135
     14 C9         -1.0881   -7.5430    1.0249 C.ar      1 <0>        -0.0983
     15 C10        -1.0745   -8.7555    0.3613 C.ar      1 <0>        -0.1220
     16 C11         0.1294   -9.3482    0.0290 C.ar      1 <0>        -0.1103
     17 C12         1.3196   -8.7280    0.3600 C.ar      1 <0>        -0.1222
     18 C13         1.3060   -7.5133    1.0198 C.ar      1 <0>        -0.0984
     19 N6          0.0637   -1.4010    4.6162 N.pl3     1 <0>        -0.6906
     20 C14         0.0877   -2.5182    5.5636 C.3       1 <0>         0.1417
     21 C15         0.0936   -1.9741    6.9936 C.3       1 <0>         0.0611
     22 O1         -1.1346   -1.2892    7.2477 O.3       1 <0>        -0.5709
     23 H1          1.0048    1.8381    0.0023 H         1 <0>         0.0748
     24 H2         -0.5450    1.8219   -0.8730 H         1 <0>         0.0893
     25 H3         -0.5280    1.8123    0.9069 H         1 <0>         0.0882
     26 H4         -0.0013   -0.4536   -2.1234 H         1 <0>         0.2190
     27 H5          0.0672   -4.7091    0.1536 H         1 <0>         0.4197
     28 H6          0.9790   -5.5172    2.7015 H         1 <0>         0.0778
     29 H7         -0.8008   -5.5413    2.7091 H         1 <0>         0.0779
     30 H8         -2.0286   -7.0800    1.2846 H         1 <0>         0.1238
     31 H9         -2.0044   -9.2401    0.1028 H         1 <0>         0.1245
     32 H10         0.1400  -10.2958   -0.4888 H         1 <0>         0.1237
     33 H11         2.2602   -9.1911    0.1006 H         1 <0>         0.1244
     34 H12         2.2359   -7.0270    1.2750 H         1 <0>         0.1237
     35 H13         0.0543   -0.4879    4.9432 H         1 <0>         0.4161
     36 H14        -0.7954   -3.1397    5.4150 H         1 <0>         0.0745
     37 H15         0.9844   -3.1155    5.3984 H         1 <0>         0.0812
     38 H16         0.2009   -2.8004    7.6963 H         1 <0>         0.0659
     39 H17         0.9273   -1.2826    7.1158 H         1 <0>         0.0536
     40 H18        -1.2006   -0.9172    8.1379 H         1 <0>         0.3829
@<TRIPOS>BOND
     1    1    2 1
     2    1   23 1
     3    1   24 1
     4    1   25 1
     5    2    6 1
     6    2    3 1
     7    3    4 2
     8    3   26 1
     9    4    5 1
    10    5   10 ar
    11    5    6 ar
    12    6    7 ar
    13    7    8 ar
    14    8    9 ar
    15    8   19 1
    16    9   10 ar
    17   10   11 1
    18   11   12 1
    19   11   27 1
    20   12   13 1
    21   12   28 1
    22   12   29 1
    23   13   18 ar
    24   13   14 ar
    25   14   15 ar
    26   14   30 1
    27   15   16 ar
    28   15   31 1
    29   16   17 ar
    30   16   32 1
    31   17   18 ar
    32   17   33 1
    33   18   34 1
    34   19   20 1
    35   19   35 1
    36   20   21 1
    37   20   36 1
    38   20   37 1
    39   21   22 1
    40   21   38 1
    41   21   39 1
    42   22   40 1
@<TRIPOS>MOLECULE
ZINC03872984
   56    63     0     0     0
SMALL
USER_CHARGES

@<TRIPOS>ATOM
      1 C1         -1.1449    0.9207   -2.2992 C.3       1 <0>        -0.1734
      2 C2         -0.8443   -0.1869   -1.2874 C.3       1 <0>         0.3608
      3 C3          0.6608   -0.5271   -1.2917 C.3       1 <0>         0.1089
      4 C4          1.0548   -0.6349    0.1959 C.3       1 <0>        -0.1931
      5 C5         -0.2437   -0.3496    0.9788 C.3       1 <0>         0.3159
      6 H1         -0.0464    0.3283    1.8093 H         1 <0>         0.1526
      7 O1         -1.1290    0.2586    0.0385 O.3       1 <0>        -0.3365
      8 N1         -0.7907   -1.6169    1.4725 N.pl3     1 <0>        -0.5139
      9 C6         -0.6316   -2.1589    2.7227 C.ar      1 <0>         0.1521
     10 C7          0.1280   -1.7303    3.8106 C.ar      1 <0>        -0.1535
     11 C8          0.0716   -2.4964    4.9622 C.ar      1 <0>        -0.0728
     12 C9         -0.6995   -3.6426    5.0489 C.ar      1 <0>        -0.1588
     13 C10        -1.4586   -4.0939    3.9832 C.ar      1 <0>        -0.0351
     14 C11        -1.4138   -3.3367    2.8110 C.ar      1 <0>        -0.1065
     15 C12        -2.0522   -3.5178    1.5109 C.ar      1 <0>         0.0000
     16 C13        -1.6151   -2.4505    0.7283 C.ar      1 <0>         0.1116
     17 C14        -1.9686   -2.3749   -0.6239 C.ar      1 <0>         0.1598
     18 N2         -1.6213   -1.3899   -1.6007 N.pl3     1 <0>        -0.5050
     19 C15        -2.1482   -1.7391   -2.8210 C.ar      1 <0>         0.1774
     20 C16        -2.0102   -1.1429   -4.0736 C.ar      1 <0>        -0.1496
     21 C17        -2.6914   -1.7253   -5.1291 C.ar      1 <0>        -0.0801
     22 C18        -3.4791   -2.8511   -4.9669 C.ar      1 <0>        -0.1542
     23 C19        -3.6271   -3.4663   -3.7348 C.ar      1 <0>        -0.0533
     24 C20        -2.9440   -2.8977   -2.6603 C.ar      1 <0>        -0.0998
     25 C21        -2.7951   -3.3523   -1.1935 C.ar      1 <0>        -0.0500
     26 C22        -3.2927   -4.3756   -0.3931 C.ar      1 <0>        -0.0443
     27 C23        -2.9346   -4.4703    0.9497 C.ar      1 <0>        -0.1321
     28 C24        -3.6117   -5.6413    1.5281 C.2       1 <0>         0.5681
     29 O2         -3.5170   -5.9945    2.6881 O.2       1 <0>        -0.5237
     30 N3         -4.3501   -6.2651    0.5950 N.am      1 <0>        -0.7231
     31 C25        -4.2144   -5.5378   -0.6718 C.3       1 <0>         0.1445
     32 C26         1.4435    0.5727   -1.9615 C.2       1 <0>         0.4474
     33 O3          1.9444    1.4488   -1.2970 O.2       1 <0>        -0.4796
     34 O4          1.5843    0.5792   -3.2964 O.3       1 <0>        -0.3367
     35 C27         2.3389    1.6518   -3.8640 C.3       1 <0>         0.0263
     36 O5          0.8858   -1.7724   -1.9557 O.3       1 <0>        -0.5063
     37 H2         -0.8247    1.8803   -1.8932 H         1 <0>         0.0927
     38 H3         -0.6079    0.7211   -3.2265 H         1 <0>         0.1054
     39 H4         -2.2161    0.9498   -2.4986 H         1 <0>         0.0969
     40 H5          1.4184   -1.6379    0.4192 H         1 <0>         0.1158
     41 H6          1.8148    0.1070    0.4406 H         1 <0>         0.1253
     42 H7          0.7351   -0.8387    3.7568 H         1 <0>         0.1302
     43 H8          0.6489   -2.1895    5.8218 H         1 <0>         0.1266
     44 H9         -0.7088   -4.2005    5.9737 H         1 <0>         0.1257
     45 H10        -2.0581   -4.9894    4.0552 H         1 <0>         0.1522
     46 H11        -1.3985   -0.2640   -4.2147 H         1 <0>         0.1366
     47 H12        -2.6051   -1.2859   -6.1119 H         1 <0>         0.1259
     48 H13        -3.9928   -3.2611   -5.8239 H         1 <0>         0.1251
     49 H14        -4.2422   -4.3455   -3.6122 H         1 <0>         0.1356
     50 H15        -4.8835   -7.0630    0.7354 H         1 <0>         0.4273
     51 H16        -5.1877   -5.1737   -1.0009 H         1 <0>         0.1006
     52 H17        -3.7798   -6.1869   -1.4321 H         1 <0>         0.1012
     53 H18         2.3752    1.5370   -4.9473 H         1 <0>         0.1105
     54 H19         1.8648    2.6011   -3.6149 H         1 <0>         0.0661
     55 H20         3.3522    1.6353   -3.4627 H         1 <0>         0.0654
     56 H21         1.8150   -2.0380   -1.9892 H         1 <0>         0.3910
@<TRIPOS>BOND
     1    1    2 1
     2    1   37 1
     3    1   38 1
     4    1   39 1
     5    2    7 1
     6    2   18 1
     7    2    3 1
     8    3    4 1
     9    3   32 1
    10    3   36 1
    11    4    5 1
    12    4   40 1
    13    4   41 1
    14    5    6 1
    15    5    7 1
    16    5    8 1
    17    8   16 1
    18    8    9 1
    19    9   14 ar
    20    9   10 ar
    21   10   11 ar
    22   10   42 1
    23   11   12 ar
    24   11   43 1
    25   12   13 ar
    26   12   44 1
    27   13   14 ar
    28   13   45 1
    29   14   15 1
    30   15   27 ar
    31   15   16 ar
    32   16   17 ar
    33   17   25 ar
    34   17   18 1
    35   18   19 1
    36   19   24 ar
    37   19   20 ar
    38   20   21 ar
    39   20   46 1
    40   21   22 ar
    41   21   47 1
    42   22   23 ar
    43   22   48 1
    44   23   24 ar
    45   23   49 1
    46   24   25 1
    47   25   26 ar
    48   26   31 1
    49   26   27 ar
    50   27   28 1
    51   28   29 2
    52   28   30 am
    53   30   31 1
    54   30   50 1
    55   31   51 1
    56   31   52 1
    57   32   33 2
    58   32   34 1
    59   34   35 1
    60   35   53 1
    61   35   54 1
    62   35   55 1
    63   36   56 1
@<TRIPOS>MOLECULE
ZINC18183490
   45    52     0     0     0
SMALL
USER_CHARGES

@<TRIPOS>ATOM
      1 C1         -0.0167    1.3803    0.0096 C.ar      1 <0>        -0.1530
      2 C2          1.1495    2.1255    0.0025 C.ar      1 <0>        -0.0724
      3 C3          2.4024    1.5359   -0.0204 C.ar      1 <0>        -0.1468
      4 C4          2.4503    0.1427   -0.0320 C.ar      1 <0>         0.1515
      5 C5          1.2560   -0.6177   -0.0125 C.ar      1 <0>        -0.1069
      6 C6          0.0021   -0.0041    0.0020 C.ar      1 <0>        -0.0384
      7 C7          1.6509   -2.0237    0.0086 C.ar      1 <0>        -0.0076
      8 C8          0.9722   -3.2504    0.0426 C.ar      1 <0>        -0.1079
      9 C9          1.6918   -4.4571    0.1251 C.ar      1 <0>        -0.1087
     10 C10         3.0932   -4.4422    0.1719 C.ar      1 <0>        -0.0070
     11 C11         4.1381   -5.4475    0.3487 C.ar      1 <0>        -0.1067
     12 C12         4.0766   -6.8311    0.5249 C.ar      1 <0>        -0.0381
     13 C13         5.2816   -7.4969    0.6727 C.ar      1 <0>        -0.1529
     14 C14         6.4926   -6.8273    0.6485 C.ar      1 <0>        -0.0722
     15 C15         6.5748   -5.4564    0.4717 C.ar      1 <0>        -0.1470
     16 C16         5.3763   -4.7616    0.3148 C.ar      1 <0>         0.1518
     17 N1          5.1372   -3.4269    0.1009 N.pl3     1 <0>        -0.5088
     18 C17         3.7681   -3.2179    0.0614 C.ar      1 <0>         0.1402
     19 C18         3.0531   -2.0186   -0.0123 C.ar      1 <0>         0.1411
     20 N2          3.5203   -0.7161   -0.0799 N.pl3     1 <0>        -0.5095
     21 C19         4.9330   -0.3594   -0.2487 C.3       1 <0>         0.3009
     22 H1          5.0233    0.6109   -0.7369 H         1 <0>         0.1460
     23 C20         5.6121   -0.3298    1.1353 C.3       1 <0>        -0.1631
     24 C21         6.3995   -1.6530    1.2253 C.3       1 <0>        -0.1633
     25 C22         6.1330   -2.3718   -0.1119 C.3       1 <0>         0.3009
     26 H2          7.0567   -2.7963   -0.5052 H         1 <0>         0.1469
     27 O1          5.6099   -1.3632   -1.0073 O.3       1 <0>        -0.3460
     28 C23         0.6810   -5.5298    0.1434 C.2       1 <0>         0.5845
     29 O2          0.9125   -6.7210    0.2072 O.2       1 <0>        -0.4593
     30 N3         -0.5403   -4.9703    0.0777 N.am      1 <0>        -0.6809
     31 C24        -0.4518   -3.6300    0.0158 C.2       1 <0>         0.5844
     32 O3         -1.3895   -2.8600   -0.0503 O.2       1 <0>        -0.4594
     33 H3         -0.9673    1.8927    0.0260 H         1 <0>         0.1280
     34 H4          1.0802    3.2032    0.0148 H         1 <0>         0.1287
     35 H5          3.3041    2.1302   -0.0292 H         1 <0>         0.1326
     36 H6         -0.9103   -0.5820    0.0074 H         1 <0>         0.1488
     37 H7          3.1336   -7.3571    0.5453 H         1 <0>         0.1487
     38 H8          5.2763   -8.5680    0.8109 H         1 <0>         0.1281
     39 H9          7.4042   -7.3931    0.7721 H         1 <0>         0.1288
     40 H10         7.5270   -4.9470    0.4554 H         1 <0>         0.1327
     41 H11         6.2910    0.5200    1.2056 H         1 <0>         0.1044
     42 H12         4.8615   -0.2817    1.9242 H         1 <0>         0.0950
     43 H13         7.4646   -1.4524    1.3414 H         1 <0>         0.1048
     44 H14         6.0342   -2.2548    2.0575 H         1 <0>         0.0953
     45 H15        -1.3733   -5.4672    0.0749 H         1 <0>         0.4317
@<TRIPOS>BOND
     1    1    6 ar
     2    1    2 ar
     3    1   33 1
     4    2    3 ar
     5    2   34 1
     6    3    4 ar
     7    3   35 1
     8    4   20 1
     9    4    5 ar
    10    5    6 ar
    11    5    7 1
    12    6   36 1
    13    7   19 ar
    14    7    8 ar
    15    8   31 1
    16    8    9 ar
    17    9   10 ar
    18    9   28 1
    19   10   18 ar
    20   10   11 1
    21   11   16 ar
    22   11   12 ar
    23   12   13 ar
    24   12   37 1
    25   13   14 ar
    26   13   38 1
    27   14   15 ar
    28   14   39 1
    29   15   16 ar
    30   15   40 1
    31   16   17 1
    32   17   25 1
    33   17   18 1
    34   18   19 ar
    35   19   20 1
    36   20   21 1
    37   21   22 1
    38   21   27 1
    39   21   23 1
    40   23   24 1
    41   23   41 1
    42   23   42 1
    43   24   25 1
    44   24   43 1
    45   24   44 1
    46   25   26 1
    47   25   27 1
    48   28   29 2
    49   28   30 am
    50   30   31 am
    51   30   45 1
    52   31   32 2
@<TRIPOS>MOLECULE
ZINC18038301
   15    15     0     0     0
SMALL
USER_CHARGES
2,6-diamino-5-nitroso-pyrimidin-4-ol
@<TRIPOS>ATOM
      1 C1          1.2736    2.0272    0.0008 C.ar      1 <0>        -0.3548
      2 C2          2.4886    1.1941   -0.0153 C.ar      1 <0>         0.5617
      3 N1          2.3384   -0.1234   -0.0209 N.ar      1 <0>        -0.6990
      4 C3          1.1392   -0.6861   -0.0125 C.ar      1 <0>         0.6527
      5 N2          0.0021   -0.0041    0.0020 N.ar      1 <0>        -0.6912
      6 C4         -0.0159    1.3191    0.0093 C.ar      1 <0>         0.5026
      7 O1         -1.1827    1.9988    0.0186 O.3       1 <0>        -0.6078
      8 N3          1.0694   -2.0584   -0.0187 N.pl3     1 <0>        -0.8447
      9 N4          3.7368    1.7637   -0.0241 N.pl3     1 <0>        -0.8359
     10 N5          1.3390    3.3490    0.0068 N.2       1 <0>        -0.2939
     11 O2          0.3156    4.0094    0.0197 O.2       1 <0>        -0.0932
     12 H1          0.0901   -2.5593   -0.0120 H         1 <0>         0.4286
     13 H2          1.9928   -2.6560   -0.0303 H         1 <0>         0.4204
     14 H3          4.6326    1.1254   -0.0361 H         1 <0>         0.4168
     15 H4          3.8417    2.8587   -0.0192 H         1 <0>         0.4377
@<TRIPOS>BOND
     1    1    6 ar
     2    1    2 ar
     3    1   10 1
     4    2    3 ar
     5    2    9 1
     6    3    4 ar
     7    4    5 ar
     8    4    8 1
     9    5    6 ar
    10    6    7 1
    11    8   12 1
    12    8   13 1
    13    9   14 1
    14    9   15 1
    15   10   11 2
@<TRIPOS>MOLECULE
ZINC03816409
   50    52     0     0     0
SMALL
USER_CHARGES
N-[5-[(5-tert-butyloxazol-2-yl)methylsulfanyl]thiazol-2-yl]piperidine-4-carboxamide
@<TRIPOS>ATOM
      1 C1         -0.0127    1.0858    0.0080 C.3       1 <0>        -0.1425
      2 C2         -0.7288    1.5792    1.2668 C.3       1 <0>         0.0153
      3 C3          0.0111    1.0724    2.5063 C.3       1 <0>        -0.1429
      4 C4         -0.7496    3.1091    1.2752 C.3       1 <0>        -0.1470
      5 C5         -2.1426    1.0576    1.2775 C.2       1 <0>        -0.0059
      6 C6         -2.5173   -0.2324    1.2742 C.2       1 <0>        -0.0384
      7 N1         -3.8616   -0.2670    1.2868 N.2       1 <0>        -0.4461
      8 C7         -4.3108    0.9556    1.2976 C.2       1 <0>         0.1754
      9 O1         -3.2687    1.7975    1.2981 O.3       1 <0>        -0.1872
     10 C8         -5.7633    1.3568    1.3132 C.3       1 <0>        -0.0274
     11 S1         -6.3302    1.5091    3.0296 S.3       1 <0>         0.0531
     12 C9         -8.0223    1.9770    2.8797 C.2       1 <0>        -0.2079
     13 C10        -8.9445    2.2293    3.8504 C.2       1 <0>         0.0730
     14 N2        -10.1733    2.5704    3.5096 N.2       1 <0>        -0.4781
     15 C11       -10.5307    2.6731    2.2430 C.2       1 <0>         0.3098
     16 S2         -9.0031    2.2599    1.4114 S.3       1 <0>         0.0397
     17 N3        -11.7659    3.0158    1.7000 N.am      1 <0>        -0.6146
     18 C12       -12.8034    3.3002    2.5119 C.2       1 <0>         0.5107
     19 O2        -12.6609    3.2576    3.7157 O.2       1 <0>        -0.4551
     20 C13       -14.1405    3.6713    1.9241 C.3       1 <0>        -0.1149
     21 C14       -13.9915    4.9332    1.0698 C.3       1 <0>        -0.1461
     22 C15       -15.3628    5.3397    0.5255 C.3       1 <0>         0.0009
     23 C16       -16.4761    4.3789    2.4515 C.3       1 <0>        -0.0009
     24 C17       -15.1380    3.9438    3.0534 C.3       1 <0>        -0.1323
     25 H1          0.0021   -0.0041    0.0020 H         1 <0>         0.0648
     26 H2          1.0099    1.4631    0.0003 H         1 <0>         0.0750
     27 H3         -0.5399    1.4469   -0.8751 H         1 <0>         0.0608
     28 H4          1.0337    1.4497    2.4986 H         1 <0>         0.0751
     29 H5         -0.4990    1.4239    3.4031 H         1 <0>         0.0616
     30 H6          0.0259   -0.0175    2.5003 H         1 <0>         0.0649
     31 H7         -1.2768    3.4701    0.3922 H         1 <0>         0.0605
     32 H8         -1.2598    3.4606    2.1720 H         1 <0>         0.0616
     33 H9          0.2730    3.4864    1.2675 H         1 <0>         0.0706
     34 H10        -1.8578   -1.0876    1.2633 H         1 <0>         0.1891
     35 H11        -5.8813    2.3140    0.8053 H         1 <0>         0.1204
     36 H12        -6.3553    0.5983    0.8010 H         1 <0>         0.1329
     37 H13        -8.6718    2.1504    4.8925 H         1 <0>         0.1794
     38 H14       -11.8799    3.0499    0.7373 H         1 <0>         0.4267
     39 H15       -14.5061    2.8521    1.3049 H         1 <0>         0.1234
     40 H16       -13.5885    5.7409    1.6809 H         1 <0>         0.0995
     41 H17       -13.3151    4.7324    0.2390 H         1 <0>         0.1172
     42 H18       -15.7590    4.5372   -0.0967 H         1 <0>         0.1349
     43 H19       -15.2623    6.2461   -0.0715 H         1 <0>         0.1387
     44 H20       -16.8671    3.5809    1.8204 H         1 <0>         0.1334
     45 H21       -17.1842    4.5877    3.2534 H         1 <0>         0.1392
     46 H22       -15.2808    3.0361    3.6398 H         1 <0>         0.1229
     47 H23       -14.7528    4.7354    3.6961 H         1 <0>         0.1008
     48 N4        -16.2857    5.6006    1.6466 N.4       1 <0>        -0.5187
     49 H24       -17.1928    5.9050    1.2741 H         1 <0>         0.4395
     50 H25       -15.8944    6.3401    2.2417 H         1 <0>         0.4347
@<TRIPOS>BOND
     1    1    2 1
     2    1   25 1
     3    1   26 1
     4    1   27 1
     5    2    3 1
     6    2    4 1
     7    2    5 1
     8    3   28 1
     9    3   29 1
    10    3   30 1
    11    4   31 1
    12    4   32 1
    13    4   33 1
    14    5    9 1
    15    5    6 2
    16    6    7 1
    17    6   34 1
    18    7    8 2
    19    8    9 1
    20    8   10 1
    21   10   11 1
    22   10   35 1
    23   10   36 1
    24   11   12 1
    25   12   16 1
    26   12   13 2
    27   13   14 1
    28   13   37 1
    29   14   15 2
    30   15   16 1
    31   15   17 1
    32   17   18 am
    33   17   38 1
    34   18   19 2
    35   18   20 1
    36   20   24 1
    37   20   21 1
    38   20   39 1
    39   21   22 1
    40   21   40 1
    41   21   41 1
    42   22   42 1
    43   22   43 1
    44   22   48 1
    45   23   24 1
    46   23   44 1
    47   23   45 1
    48   23   48 1
    49   24   46 1
    50   24   47 1
    51   48   49 1
    52   48   50 1
@<TRIPOS>MOLECULE
ZINC01639355
   31    34     0     0     0
SMALL
USER_CHARGES

@<TRIPOS>ATOM
      1 C1         -0.0166    1.3732    0.0096 C.ar      1 <0>        -0.1257
      2 C2          1.1748    2.0786    0.0020 C.ar      1 <0>        -0.0832
      3 C3          2.3792    1.4098    0.0056 C.ar      1 <0>        -0.1400
      4 C4          2.4210    0.0136    0.0061 C.ar      1 <0>         0.1789
      5 C5          1.2194   -0.6945   -0.0178 C.ar      1 <0>        -0.0582
      6 C6          0.0021   -0.0041    0.0020 C.ar      1 <0>        -0.0848
      7 C7          1.1765   -2.1700   -0.1110 C.2       1 <0>         0.1249
      8 C8          2.0458   -2.9289   -0.8258 C.2       1 <0>        -0.1473
      9 C9          1.6305   -4.3071   -0.6826 C.ar      1 <0>        -0.0956
     10 C10         2.1330   -5.5059   -1.2017 C.ar      1 <0>        -0.0291
     11 C11         1.4744   -6.6587   -0.8492 C.ar      1 <0>        -0.1144
     12 C12         0.3640   -6.6479   -0.0195 C.ar      1 <0>        -0.0709
     13 C13        -0.1535   -5.4768    0.5077 C.ar      1 <0>        -0.1209
     14 C14         0.4938   -4.2910    0.1676 C.ar      1 <0>         0.1207
     15 N1          0.2503   -2.9898    0.5038 N.pl3     1 <0>        -0.5782
     16 H1         -0.4640   -2.6874    1.0863 H         1 <0>         0.4210
     17 Br1         2.1020   -8.3126   -1.5175 Br        1 <0>        -0.0539
     18 C15         3.2306   -2.3907   -1.5888 C.3       1 <0>        -0.0636
     19 C16         4.1060   -1.6483   -0.6094 C.2       1 <0>         0.5307
     20 O1          5.2428   -2.0303   -0.4280 O.2       1 <0>        -0.5234
     21 N2          3.6660   -0.5863    0.0608 N.am      1 <0>        -0.6636
     22 H2         -0.9584    1.9016    0.0259 H         1 <0>         0.1335
     23 H3          1.1598    3.1584   -0.0064 H         1 <0>         0.1345
     24 H4          3.3016    1.9714    0.0076 H         1 <0>         0.1356
     25 H5         -0.9274   -0.5540    0.0114 H         1 <0>         0.1274
     26 H6          2.9973   -5.5236   -1.8490 H         1 <0>         0.1433
     27 H7         -0.1141   -7.5852    0.2239 H         1 <0>         0.1348
     28 H8         -1.0196   -5.4824    1.1528 H         1 <0>         0.1402
     29 H9          3.7892   -3.2143   -2.0334 H         1 <0>         0.1154
     30 H10         2.8897   -1.7104   -2.3693 H         1 <0>         0.1052
     31 H11         4.3030   -0.1787    0.6682 H         1 <0>         0.4064
@<TRIPOS>BOND
     1    1    6 ar
     2    1    2 ar
     3    1   22 1
     4    2    3 ar
     5    2   23 1
     6    3    4 ar
     7    3   24 1
     8    4   21 1
     9    4    5 ar
    10    5    6 ar
    11    5    7 1
    12    6   25 1
    13    7   15 1
    14    7    8 2
    15    8    9 1
    16    8   18 1
    17    9   14 ar
    18    9   10 ar
    19   10   11 ar
    20   10   26 1
    21   11   12 ar
    22   11   17 1
    23   12   13 ar
    24   12   27 1
    25   13   14 ar
    26   13   28 1
    27   14   15 1
    28   15   16 1
    29   18   19 1
    30   18   29 1
    31   18   30 1
    32   19   20 2
    33   19   21 am
    34   21   31 1
@<TRIPOS>MOLECULE
ZINC02047389
   35    37     0     0     0
SMALL
USER_CHARGES
4-(2-amino-4-methyl-thiazol-5-yl)-N-(3-nitrophenyl)-pyrimidin-2-amine
@<TRIPOS>ATOM
      1 C1         -0.3352    9.7451    0.3855 C.3       1 <0>        -0.0905
      2 C2          1.0683   10.2863    0.4765 C.2       1 <0>         0.1892
      3 C3          2.1516    9.4456    0.4437 C.2       1 <0>        -0.2443
      4 S1          3.4879   10.6229    0.5913 S.3       1 <0>         0.0803
      5 C4          2.5163   12.0599    0.6693 C.2       1 <0>         0.3677
      6 N1          1.2883   11.5754    0.5891 N.2       1 <0>        -0.5897
      7 N2          2.9227   13.3752    0.7905 N.pl3     1 <0>        -0.7863
      8 C5          2.1999    7.9776    0.3258 C.ar      1 <0>         0.3332
      9 C6          3.4297    7.3038    0.3117 C.ar      1 <0>        -0.2707
     10 C7          3.4239    5.9278    0.2000 C.ar      1 <0>         0.2012
     11 N3          2.2663    5.2881    0.1154 N.ar      1 <0>        -0.5701
     12 C8          1.1176    5.9489    0.1256 C.ar      1 <0>         0.5646
     13 N4          1.0742    7.2675    0.2311 N.ar      1 <0>        -0.5547
     14 N5         -0.0691    5.2405    0.0290 N.pl3     1 <0>        -0.6363
     15 C9         -0.0510    3.8425    0.0333 C.ar      1 <0>         0.1760
     16 C10        -0.9835    3.1319   -0.7120 C.ar      1 <0>        -0.1004
     17 C11        -0.9631    1.7513   -0.7052 C.ar      1 <0>        -0.0922
     18 C12        -0.0158    1.0757    0.0425 C.ar      1 <0>        -0.0777
     19 C13         0.9104    1.7799    0.7896 C.ar      1 <0>        -0.0222
     20 C14         0.8989    3.1611    0.7830 C.ar      1 <0>        -0.0570
     21 N6          1.9186    1.0527    1.5932 N.pl3     1 <0>         0.0280
     22 O1          1.9320   -0.1652    1.5961 O.2       1 <0>        -0.1580
     23 O2          2.7348    1.6723    2.2515 O.3       1 <0>        -0.1552
     24 H1         -0.7077    9.5307    1.3872 H         1 <0>         0.0791
     25 H2         -0.9794   10.4840   -0.0912 H         1 <0>         0.0712
     26 H3         -0.3338    8.8291   -0.2054 H         1 <0>         0.0997
     27 H4          2.2629   14.0853    0.8267 H         1 <0>         0.4203
     28 H5          3.8677   13.5883    0.8394 H         1 <0>         0.4243
     29 H6          4.3593    7.8485    0.3862 H         1 <0>         0.1461
     30 H7          4.3533    5.3778    0.1861 H         1 <0>         0.1761
     31 H8         -0.9125    5.7144   -0.0416 H         1 <0>         0.4300
     32 H9         -1.7237    3.6588   -1.2958 H         1 <0>         0.1460
     33 H10        -1.6880    1.1983   -1.2841 H         1 <0>         0.1526
     34 H11        -0.0023   -0.0042    0.0464 H         1 <0>         0.1544
     35 H12         1.6253    3.7105    1.3635 H         1 <0>         0.1650
@<TRIPOS>BOND
     1    1    2 1
     2    1   24 1
     3    1   25 1
     4    1   26 1
     5    2    6 1
     6    2    3 2
     7    3    4 1
     8    3    8 1
     9    4    5 1
    10    5    6 2
    11    5    7 1
    12    7   27 1
    13    7   28 1
    14    8   13 ar
    15    8    9 ar
    16    9   10 ar
    17    9   29 1
    18   10   11 ar
    19   10   30 1
    20   11   12 ar
    21   12   13 ar
    22   12   14 1
    23   14   15 1
    24   14   31 1
    25   15   20 ar
    26   15   16 ar
    27   16   17 ar
    28   16   32 1
    29   17   18 ar
    30   17   33 1
    31   18   19 ar
    32   18   34 1
    33   19   20 ar
    34   19   21 1
    35   20   35 1
    36   21   22 2
    37   21   23 1
