@<TRIPOS>MOLECULE
ZINC12354765
   28    30     0     0     0
SMALL
USER_CHARGES
4-(2-methylimidazo[3,2-a]pyridin-3-yl)pyrimidin-2-amine
@<TRIPOS>ATOM
      1 C1          3.5656    3.8455    1.0626 C.3       1 <0>        -0.0694
      2 C2          2.2678    4.3306    0.4698 C.2       1 <0>         0.1403
      3 C3          1.2424    3.5327    0.0087 C.2       1 <0>        -0.0674
      4 N1          0.2584    4.3822   -0.4500 N.pl3     1 <0>        -0.3420
      5 C4         -0.9672    4.1572   -1.0002 C.2       1 <0>         0.0505
      6 C5         -1.7575    5.1902   -1.3662 C.2       1 <0>        -0.1360
      7 C6         -1.3244    6.5115   -1.1777 C.2       1 <0>        -0.0922
      8 C7         -0.1031    6.7478   -0.6238 C.2       1 <0>        -0.0816
      9 C8          0.7072    5.6594   -0.2484 C.2       1 <0>         0.2457
     10 N2          1.9158    5.5998    0.3016 N.2       1 <0>        -0.4945
     11 C9          1.2078    2.0604    0.0016 C.ar      1 <0>         0.3129
     12 C10        -0.0166    1.3760    0.0096 C.ar      1 <0>        -0.3029
     13 C11         0.0021   -0.0041    0.0020 C.ar      1 <0>         0.2056
     14 N3          1.1663   -0.6378   -0.0125 N.ar      1 <0>        -0.5783
     15 C12         2.3096    0.0321   -0.0198 C.ar      1 <0>         0.5784
     16 N4          2.3410    1.3552   -0.0126 N.ar      1 <0>        -0.5602
     17 N5          3.5022   -0.6703   -0.0350 N.pl3     1 <0>        -0.8184
     18 H1          4.3037    3.7228    0.2700 H         1 <0>         0.0831
     19 H2          3.9287    4.5740    1.7876 H         1 <0>         0.0746
     20 H3          3.4032    2.8888    1.5590 H         1 <0>         0.0801
     21 H4         -1.3088    3.1435   -1.1490 H         1 <0>         0.1672
     22 H5         -2.7253    4.9983   -1.8055 H         1 <0>         0.1564
     23 H6         -1.9563    7.3368   -1.4708 H         1 <0>         0.1484
     24 H7          0.2409    7.7606   -0.4743 H         1 <0>         0.1570
     25 H8         -0.9518    1.9161    0.0170 H         1 <0>         0.1390
     26 H9         -0.9226   -0.5621    0.0082 H         1 <0>         0.1713
     27 H10         3.4938   -1.6402   -0.0401 H         1 <0>         0.4166
     28 H11         4.3464   -0.1925   -0.0405 H         1 <0>         0.4159
@<TRIPOS>BOND
     1    1    2 1
     2    1   18 1
     3    1   19 1
     4    1   20 1
     5    2   10 1
     6    2    3 2
     7    3    4 1
     8    3   11 1
     9    4    9 1
    10    4    5 1
    11    5    6 2
    12    5   21 1
    13    6    7 1
    14    6   22 1
    15    7    8 2
    16    7   23 1
    17    8    9 1
    18    8   24 1
    19    9   10 2
    20   11   16 ar
    21   11   12 ar
    22   12   13 ar
    23   12   25 1
    24   13   14 ar
    25   13   26 1
    26   14   15 ar
    27   15   16 ar
    28   15   17 1
    29   17   27 1
    30   17   28 1
@<TRIPOS>MOLECULE
ZINC12354765
   29    31     0     0     0
SMALL
USER_CHARGES
4-(2-methylimidazo[3,2-a]pyridin-3-yl)pyrimidin-2-amine
@<TRIPOS>ATOM
      1 C1          3.5656    3.8455    1.0626 C.3       1 <0>        -0.1006
      2 C2          2.2678    4.3306    0.4698 C.2       1 <0>         0.1678
      3 C3          1.2424    3.5327    0.0087 C.2       1 <0>         0.0170
      4 N1          0.2584    4.3822   -0.4500 N.pl3     1 <0>        -0.3094
      5 C4         -0.9672    4.1572   -1.0002 C.2       1 <0>         0.0767
      6 C5         -1.7575    5.1902   -1.3662 C.2       1 <0>        -0.1047
      7 C6         -1.3244    6.5115   -1.1777 C.2       1 <0>        -0.0194
      8 C7         -0.1031    6.7478   -0.6238 C.2       1 <0>        -0.1170
      9 C8          0.7072    5.6594   -0.2484 C.cat     1 <0>         0.3052
     10 C9          1.2078    2.0604    0.0016 C.ar      1 <0>         0.2772
     11 C10        -0.0166    1.3760    0.0096 C.ar      1 <0>        -0.2890
     12 C11         0.0021   -0.0041    0.0020 C.ar      1 <0>         0.2210
     13 N2          1.1663   -0.6378   -0.0125 N.ar      1 <0>        -0.5560
     14 C12         2.3096    0.0321   -0.0198 C.ar      1 <0>         0.5880
     15 N3          2.3410    1.3552   -0.0126 N.ar      1 <0>        -0.5567
     16 N4          3.5022   -0.6703   -0.0350 N.pl3     1 <0>        -0.8081
     17 H1          4.3037    3.7228    0.2700 H         1 <0>         0.1138
     18 H2          3.9287    4.5740    1.7876 H         1 <0>         0.0953
     19 H3          3.4032    2.8888    1.5590 H         1 <0>         0.1130
     20 H4         -1.3088    3.1435   -1.1490 H         1 <0>         0.1996
     21 H5         -2.7253    4.9983   -1.8055 H         1 <0>         0.1865
     22 H6         -1.9563    7.3368   -1.4708 H         1 <0>         0.1780
     23 H7          0.2409    7.7606   -0.4743 H         1 <0>         0.1828
     24 H8         -0.9518    1.9161    0.0170 H         1 <0>         0.1443
     25 H9         -0.9226   -0.5621    0.0082 H         1 <0>         0.1829
     26 H10         3.4938   -1.6402   -0.0401 H         1 <0>         0.4242
     27 H11         4.3464   -0.1925   -0.0405 H         1 <0>         0.4196
     28 N5          1.9164    5.6007    0.3019 N.pl3     1 <0>        -0.5122
     29 H12         2.4905    6.4126    0.5578 H         1 <0>         0.4801
@<TRIPOS>BOND
     1    1    2 1
     2    1   17 1
     3    1   18 1
     4    1   19 1
     5    2    3 2
     6    2   28 1
     7    3    4 1
     8    3   10 1
     9    4    9 1
    10    4    5 1
    11    5    6 2
    12    5   20 1
    13    6    7 1
    14    6   21 1
    15    7    8 2
    16    7   22 1
    17    8    9 1
    18    8   23 1
    19    9   28 2
    20   10   15 ar
    21   10   11 ar
    22   11   12 ar
    23   11   24 1
    24   12   13 ar
    25   12   25 1
    26   13   14 ar
    27   14   15 ar
    28   14   16 1
    29   16   26 1
    30   16   27 1
    31   28   29 1
@<TRIPOS>MOLECULE
ZINC01661760
   33    36     0     0     0
SMALL
NO_CHARGES

@<TRIPOS>ATOM
      1 C1         -0.0168    1.3885    0.0097 C.ar      1 <0>        -0.0975
      2 C2          1.1670    2.0942    0.0022 C.ar      1 <0>        -0.0849
      3 C3          2.3877    1.4300   -0.0135 C.ar      1 <0>        -0.0425
      4 C4          2.4244    0.0400   -0.0218 C.ar      1 <0>         0.0462
      5 C5          1.2097   -0.6720   -0.0136 C.ar      1 <0>        -0.2092
      6 C6          0.0021   -0.0041    0.0020 C.ar      1 <0>        -0.0305
      7 C7          1.5961   -2.1091   -0.0262 C.2       1 <0>         0.4018
      8 O1          0.8671   -3.0787   -0.0245 O.2       1 <0>        -0.3613
      9 C8          3.0863   -2.0810   -0.0414 C.2       1 <0>         0.0800
     10 C9          3.9915   -3.2858   -0.0579 C.3       1 <0>        -0.0168
     11 C10         5.4408   -2.8587   -0.0975 C.ar      1 <0>        -0.0824
     12 C11         6.1792   -2.1349   -1.0066 C.ar      1 <0>         0.0199
     13 C12         7.5215   -1.8947   -0.7704 C.ar      1 <0>        -0.4726
     14 C13         8.1159   -2.3833    0.3789 C.ar      1 <0>        -0.0017
     15 C14         7.3783   -3.1088    1.2913 C.ar      1 <0>        -0.0935
     16 C15         6.0261   -3.3547    1.0603 C.ar      1 <0>         0.2851
     17 N1          5.0830   -4.0496    1.8183 N.am      1 <0>        -0.5426
     18 C16         3.8707   -4.0579    1.2387 C.2       1 <0>         0.5203
     19 O2          2.8681   -4.5844    1.6729 O.2       1 <0>        -0.3680
     20 S1          8.4709   -0.9694   -1.9310 S.o2      1 <0>         2.6470
     21 O3          9.8375   -1.4605   -1.8459 O.2       1 <0>        -1.0122
     22 O4          7.8875   -1.2105   -3.2416 O.2       1 <0>        -1.0122
     23 O5          8.3704    0.4282   -1.5403 O.3       1 <0>        -1.0012
     24 N2          3.4689   -0.8476   -0.0379 N.2       1 <0>        -0.3552
     25 H1         -0.9594    1.9155    0.0260 H         1 <0>         0.1474
     26 H2          1.1458    3.1739    0.0082 H         1 <0>         0.1491
     27 H3          3.3087    1.9941   -0.0197 H         1 <0>         0.1490
     28 H4         -0.9244   -0.5590    0.0083 H         1 <0>         0.1417
     29 H5          5.7115   -1.7553   -1.9031 H         1 <0>         0.1860
     30 H6          9.1635   -2.1961    0.5628 H         1 <0>         0.1929
     31 H7          7.8498   -3.4873    2.1862 H         1 <0>         0.1809
     32 H8          5.2798   -4.4776    2.6662 H         1 <0>         0.4460
     33 H9          3.7568   -3.9270   -0.9076 H         1 <0>         0.1911
@<TRIPOS>BOND
     1    1    6 ar
     2    1    2 ar
     3    1   25 1
     4    2    3 ar
     5    2   26 1
     6    3    4 ar
     7    3   27 1
     8    4    5 ar
     9    4   24 1
    10    5    6 ar
    11    5    7 1
    12    6   28 1
    13    7    8 2
    14    7    9 1
    15    9   24 2
    16    9   10 1
    17   10   18 1
    18   10   11 1
    19   10   33 1
    20   11   16 ar
    21   11   12 ar
    22   12   13 ar
    23   12   29 1
    24   13   14 ar
    25   13   20 1
    26   14   15 ar
    27   14   30 1
    28   15   16 ar
    29   15   31 1
    30   16   17 1
    31   17   18 am
    32   17   32 1
    33   18   19 2
    34   20   21 2
    35   20   22 2
    36   20   23 1
@<TRIPOS>MOLECULE
ZINC01661760
   32    35     0     0     0
SMALL
USER_CHARGES

@<TRIPOS>ATOM
      1 C1         -0.0167    1.3810    0.0096 C.ar      1 <0>        -0.1552
      2 C2          1.1698    2.0922    0.0021 C.ar      1 <0>        -0.0822
      3 C3          2.3879    1.4369   -0.0135 C.ar      1 <0>        -0.1092
      4 C4          2.4316    0.0419   -0.0219 C.ar      1 <0>         0.1238
      5 C5          1.2160   -0.6755   -0.0137 C.ar      1 <0>        -0.2467
      6 C6          0.0021   -0.0041    0.0020 C.ar      1 <0>        -0.0313
      7 C7          1.5937   -2.1060   -0.0257 C.2       1 <0>         0.3784
      8 O1          0.8595   -3.0723   -0.0237 O.2       1 <0>        -0.3866
      9 C8          3.0913   -2.0862   -0.0407 C.2       1 <0>         0.3404
     10 N1          3.4775   -0.8309   -0.0375 N.2       1 <0>        -0.4667
     11 C9          3.9392   -3.2185   -0.0554 C.2       1 <0>        -0.4076
     12 C10         4.4633   -3.9181   -1.2434 C.ar      1 <0>        -0.0220
     13 C11         4.3180   -3.7259   -2.6152 C.ar      1 <0>        -0.0281
     14 C12         4.9542   -4.5760   -3.4950 C.ar      1 <0>        -0.6697
     15 C13         5.7346   -5.6177   -3.0181 C.ar      1 <0>        -0.0615
     16 C14         5.8858   -5.8187   -1.6614 C.ar      1 <0>        -0.1488
     17 C15         5.2535   -4.9721   -0.7589 C.ar      1 <0>         0.0960
     18 N2          5.2219   -4.9294    0.6255 N.pl3     1 <0>        -0.6252
     19 H1          5.6874   -5.5497    1.2081 H         1 <0>         0.3954
     20 C16         4.4544   -3.8965    1.0531 C.2       1 <0>         0.4816
     21 O2          4.2222   -3.5761    2.3436 O.3       1 <0>        -0.7076
     22 S1          4.7740   -4.3378   -5.2315 S.o2      1 <0>         2.7072
     23 O3          4.8861   -5.6489   -5.8516 O.2       1 <0>        -1.0776
     24 O4          3.4616   -3.7472   -5.4429 O.2       1 <0>        -1.0743
     25 O5          5.8448   -3.4460   -5.6488 O.3       1 <0>        -1.0759
     26 H2         -0.9599    1.9069    0.0260 H         1 <0>         0.1263
     27 H3          1.1449    3.1719    0.0082 H         1 <0>         0.1276
     28 H4          3.3062    2.0053   -0.0196 H         1 <0>         0.1315
     29 H5         -0.9244   -0.5590    0.0083 H         1 <0>         0.1253
     30 H6          3.7097   -2.9151   -2.9881 H         1 <0>         0.1145
     31 H7          6.2286   -6.2785   -3.7150 H         1 <0>         0.1217
     32 H8          6.4957   -6.6339   -1.3010 H         1 <0>         0.1064
@<TRIPOS>BOND
     1    1    6 ar
     2    1    2 ar
     3    1   26 1
     4    2    3 ar
     5    2   27 1
     6    3    4 ar
     7    3   28 1
     8    4   10 1
     9    4    5 ar
    10    5    6 ar
    11    5    7 1
    12    6   29 1
    13    7    8 2
    14    7    9 1
    15    9   10 2
    16    9   11 1
    17   11   20 2
    18   11   12 1
    19   12   17 ar
    20   12   13 ar
    21   13   14 ar
    22   13   30 1
    23   14   15 ar
    24   14   22 1
    25   15   16 ar
    26   15   31 1
    27   16   17 ar
    28   16   32 1
    29   17   18 1
    30   18   19 1
    31   18   20 1
    32   20   21 1
    33   22   23 2
    34   22   24 2
    35   22   25 1
@<TRIPOS>MOLECULE
ZINC01661760
   33    36     0     0     0
SMALL
USER_CHARGES
3-(3-hydroxy-1H-indol-2-yl)-2-oxo-indole-5-sulfonic acid
@<TRIPOS>ATOM
      1 C1          2.5834    2.3675   -3.4097 C.ar      1 <0>        -0.1784
      2 C2          3.7496    2.9775   -2.9658 C.ar      1 <0>        -0.0327
      3 C3          4.0114    3.1002   -1.6166 C.ar      1 <0>        -0.1664
      4 C4          3.1029    2.6105   -0.6840 C.ar      1 <0>         0.2077
      5 C5          1.9191    1.9920   -1.1373 C.ar      1 <0>        -0.2352
      6 C6          1.6748    1.8787   -2.5167 C.ar      1 <0>         0.0044
      7 C7          1.1803    1.5904   -0.0007 C.2       1 <0>         0.3668
      8 C8          1.9663    1.9989    1.1675 C.2       1 <0>         0.1739
      9 N1          3.1180    2.6034    0.6985 N.pl3     1 <0>        -0.6427
     10 H1          3.9690    3.0404    1.2415 H         1 <0>         0.4631
     11 C9          1.6207    1.8114    2.4945 C.2       1 <0>        -0.1122
     12 C10         2.3838    2.2011    3.6912 C.ar      1 <0>        -0.1534
     13 C11         3.6011    2.8482    3.8879 C.ar      1 <0>         0.0357
     14 C12         4.0529    3.0809    5.1727 C.ar      1 <0>        -0.6850
     15 C13         3.2967    2.6782    6.2620 C.ar      1 <0>         0.0176
     16 C14         2.0840    2.0402    6.0859 C.ar      1 <0>        -0.1669
     17 C15         1.6036    1.7930    4.7983 C.ar      1 <0>         0.1780
     18 N2          0.4648    1.1950    4.3570 N.am      1 <0>        -0.6477
     19 C16         0.3902    1.1612    3.0398 C.2       1 <0>         0.5629
     20 O1         -0.5214    0.6842    2.3836 O.2       1 <0>        -0.4663
     21 S1          5.5962    3.8920    5.4271 S.o2      1 <0>         2.6987
     22 O2          5.8524    4.6544    4.2556 O.2       1 <0>        -1.0570
     23 O3          5.5385    4.4785    6.7202 O.2       1 <0>        -1.0526
     24 O4          6.6676    2.8126    5.4865 O.3       1 <0>        -1.0732
     25 O5         -0.0110    0.9628    0.0073 O.3       1 <0>        -0.4331
     26 H2          2.3942    2.2797   -4.4694 H         1 <0>         0.1324
     27 H3          4.4591    3.3602   -3.6845 H         1 <0>         0.1363
     28 H4          4.9220    3.5767   -1.2845 H         1 <0>         0.1386
     29 H5          0.7698    1.4063   -2.8691 H         1 <0>         0.1342
     30 H6          4.1917    3.1624    3.0400 H         1 <0>         0.1275
     31 H7          3.6600    2.8658    7.2616 H         1 <0>         0.1463
     32 H8          1.5067    1.7327    6.9453 H         1 <0>         0.1325
     33 H9         -0.2678    0.8061    5.0796 H         1 <0>         0.4459
@<TRIPOS>BOND
     1    1    6 ar
     2    1    2 ar
     3    1   26 1
     4    2    3 ar
     5    2   27 1
     6    3    4 ar
     7    3   28 1
     8    4    9 1
     9    4    5 ar
    10    5    6 ar
    11    5    7 1
    12    6   29 1
    13    7    8 2
    14    7   25 1
    15    8    9 1
    16    8   11 1
    17    9   10 1
    18   11   19 1
    19   11   12 2
    20   12   17 ar
    21   12   13 ar
    22   13   14 ar
    23   13   30 1
    24   14   15 ar
    25   14   21 1
    26   15   16 ar
    27   15   31 1
    28   16   17 ar
    29   16   32 1
    30   17   18 2
    31   18   19 am
    32   18   33 1
    33   19   20 2
    34   21   22 2
    35   21   23 2
    36   21   24 1
@<TRIPOS>MOLECULE
ZINC01493715
   67    71     0     0     0
SMALL
USER_CHARGES

@<TRIPOS>ATOM
      1 C1         -0.4817    1.4806   -0.2307 C.3       1 <0>        -0.1724
      2 C2         -0.2504   -0.0285   -0.1296 C.3       1 <0>         0.1052
      3 N1          0.4083   -0.5043   -1.3486 N.pl3     1 <0>        -0.6681
      4 C3          0.7217   -1.8474   -1.4880 C.ar      1 <0>         0.5287
      5 N2          1.3251   -2.2884   -2.5896 N.ar      1 <0>        -0.5770
      6 C4          1.6278   -3.5700   -2.7304 C.ar      1 <0>         0.6703
      7 N3          1.3454   -4.4598   -1.7905 N.ar      1 <0>        -0.6029
      8 C5          0.7423   -4.0917   -0.6626 C.ar      1 <0>         0.5099
      9 C6          0.4147   -2.7517   -0.4758 C.ar      1 <0>        -0.3630
     10 N4          0.4495   -5.0292    0.3156 N.pl3     1 <0>        -0.6912
     11 C7         -0.2145   -4.6134    1.5534 C.3       1 <0>         0.1458
     12 H1          0.1312   -3.6186    1.8347 H         1 <0>         0.0984
     13 C8         -1.7286   -4.5844    1.3351 C.3       1 <0>        -0.1330
     14 C9         -2.4220   -4.1501    2.6279 C.3       1 <0>        -0.1113
     15 C10        -2.0867   -5.1411    3.7443 C.3       1 <0>         0.0982
     16 H2         -2.5807   -4.8317    4.6653 H         1 <0>         0.0649
     17 C11        -0.5726   -5.1701    3.9626 C.3       1 <0>        -0.1502
     18 C12         0.1209   -5.6044    2.6698 C.3       1 <0>        -0.1245
     19 O1         -2.5398   -6.4452    3.3756 O.3       1 <0>        -0.5648
     20 N5          2.2554   -3.9911   -3.8907 N.pl3     1 <0>        -0.6121
     21 C13         2.6691   -3.0516   -4.8437 C.ar      1 <0>         0.0914
     22 C14         3.1103   -1.8061   -4.4368 C.ar      1 <0>        -0.0449
     23 C15         3.5216   -0.8746   -5.3919 C.ar      1 <0>        -0.0935
     24 C16         3.4856   -1.2057   -6.7585 C.ar      1 <0>         0.1065
     25 N6          3.9431   -0.1064   -7.4546 N.pl3     1 <0>        -0.4733
     26 C17         4.2631    0.8965   -6.5809 C.2       1 <0>         0.0672
     27 C18         4.0317    0.4969   -5.3204 C.2       1 <0>        -0.2036
     28 C19         4.0678   -0.0249   -8.9120 C.3       1 <0>         0.1486
     29 C20         2.7450    0.3837   -9.5073 C.ar      1 <0>        -0.1209
     30 C21         1.8215   -0.5801   -9.8664 C.ar      1 <0>        -0.0999
     31 C22         0.6081   -0.2053  -10.4124 C.ar      1 <0>        -0.1195
     32 C23         0.3182    1.1334  -10.5990 C.ar      1 <0>        -0.1074
     33 C24         1.2414    2.0972  -10.2390 C.ar      1 <0>        -0.1185
     34 C25         2.4530    1.7226   -9.6890 C.ar      1 <0>        -0.0988
     35 C26         3.0385   -2.4637   -7.1481 C.ar      1 <0>        -0.1022
     36 C27         2.6400   -3.3776   -6.1985 C.ar      1 <0>        -0.1072
     37 H3          0.4759    1.9879   -0.3480 H         1 <0>         0.0704
     38 H4         -1.1140    1.6943   -1.0925 H         1 <0>         0.0701
     39 H5         -0.9718    1.8346    0.6762 H         1 <0>         0.0884
     40 H6          0.3819   -0.2422    0.7321 H         1 <0>         0.0824
     41 H7         -1.2080   -0.5358   -0.0124 H         1 <0>         0.0825
     42 H8          0.6252    0.1205   -2.0582 H         1 <0>         0.4232
     43 H9         -0.0707   -2.4226    0.4311 H         1 <0>         0.1738
     44 H10         0.6843   -5.9606    0.1804 H         1 <0>         0.4170
     45 H11        -1.9675   -3.8784    0.5398 H         1 <0>         0.0695
     46 H12        -2.0742   -5.5791    1.0539 H         1 <0>         0.0838
     47 H13        -2.0764   -3.1553    2.9092 H         1 <0>         0.0807
     48 H14        -3.5007   -4.1294    2.4724 H         1 <0>         0.0819
     49 H15        -0.2269   -4.1754    4.2439 H         1 <0>         0.0795
     50 H16        -0.3337   -5.8761    4.7580 H         1 <0>         0.0799
     51 H17        -0.2248   -6.5991    2.3886 H         1 <0>         0.0825
     52 H18         1.1995   -5.6251    2.8254 H         1 <0>         0.0750
     53 H19        -2.3601   -7.1260    4.0384 H         1 <0>         0.3825
     54 H20         2.4086   -4.9367   -4.0435 H         1 <0>         0.4301
     55 H21         3.1362   -1.5553   -3.3867 H         1 <0>         0.1355
     56 H22         4.6450    1.8663   -6.8635 H         1 <0>         0.1716
     57 H23         4.1914    1.0767   -4.4233 H         1 <0>         0.1490
     58 H24         4.8265    0.7136   -9.1710 H         1 <0>         0.1040
     59 H25         4.3587   -0.9984   -9.3068 H         1 <0>         0.0972
     60 H26         2.0480   -1.6260   -9.7207 H         1 <0>         0.1199
     61 H27        -0.1132   -0.9583  -10.6937 H         1 <0>         0.1255
     62 H28        -0.6295    1.4262  -11.0262 H         1 <0>         0.1261
     63 H29         1.0149    3.1431  -10.3850 H         1 <0>         0.1268
     64 H30         3.1728    2.4758   -9.4043 H         1 <0>         0.1229
     65 H31         3.0077   -2.7253   -8.1955 H         1 <0>         0.1282
     66 H32         2.2980   -4.3546   -6.5065 H         1 <0>         0.1320
     67 H33         1.5807   -5.3910   -1.9261 H         1 <0>         0.4332
@<TRIPOS>BOND
     1    1    2 1
     2    1   37 1
     3    1   38 1
     4    1   39 1
     5    2    3 1
     6    2   40 1
     7    2   41 1
     8    3    4 1
     9    3   42 1
    10    4    9 ar
    11    4    5 ar
    12    5    6 ar
    13    6    7 ar
    14    6   20 1
    15    7    8 ar
    16    7   67 1
    17    8    9 ar
    18    8   10 1
    19    9   43 1
    20   10   11 1
    21   10   44 1
    22   11   12 1
    23   11   18 1
    24   11   13 1
    25   13   14 1
    26   13   45 1
    27   13   46 1
    28   14   15 1
    29   14   47 1
    30   14   48 1
    31   15   16 1
    32   15   17 1
    33   15   19 1
    34   17   18 1
    35   17   49 1
    36   17   50 1
    37   18   51 1
    38   18   52 1
    39   19   53 1
    40   20   21 1
    41   20   54 1
    42   21   36 ar
    43   21   22 ar
    44   22   23 ar
    45   22   55 1
    46   23   27 1
    47   23   24 ar
    48   24   25 1
    49   24   35 ar
    50   25   26 1
    51   25   28 1
    52   26   27 2
    53   26   56 1
    54   27   57 1
    55   28   29 1
    56   28   58 1
    57   28   59 1
    58   29   34 ar
    59   29   30 ar
    60   30   31 ar
    61   30   60 1
    62   31   32 ar
    63   31   61 1
    64   32   33 ar
    65   32   62 1
    66   33   34 ar
    67   33   63 1
    68   34   64 1
    69   35   36 ar
    70   35   65 1
    71   36   66 1
@<TRIPOS>MOLECULE
ZINC01649340
   52    54     0     0     0
SMALL
USER_CHARGES

@<TRIPOS>ATOM
      1 C1         -0.0187    1.5258    0.0104 C.3       1 <0>        -0.1531
      2 C2          0.0021   -0.0041    0.0020 C.3       1 <0>        -0.1278
      3 C3         -1.4333   -0.5336    0.0129 C.3       1 <0>         0.1689
      4 H1         -1.9701   -0.1109    0.8621 H         1 <0>         0.1030
      5 C4         -1.4133   -2.0590    0.1302 C.3       1 <0>         0.0625
      6 O1         -0.6117   -2.6069   -0.9183 O.3       1 <0>        -0.5692
      7 N1         -2.1054   -0.1483   -1.2305 N.pl3     1 <0>        -0.6816
      8 C5         -3.4856   -0.0365   -1.2658 C.ar      1 <0>         0.6305
      9 N2         -4.1766   -0.2783   -0.1589 N.ar      1 <0>        -0.6256
     10 C6         -5.5013   -0.1844   -0.1423 C.ar      1 <0>         0.5407
     11 C7         -6.1646    0.1788   -1.3275 C.ar      1 <0>        -0.1560
     12 C8         -5.3921    0.4251   -2.4741 C.ar      1 <0>         0.3485
     13 N3         -4.0693    0.3129   -2.4004 N.ar      1 <0>        -0.6161
     14 N4         -6.2808    0.7538   -3.4662 N.pl3     1 <0>        -0.4704
     15 C9         -7.5330    0.7038   -2.9264 C.2       1 <0>         0.2320
     16 N5         -7.4624    0.3664   -1.6720 N.2       1 <0>        -0.4548
     17 C10        -5.9467    1.0964   -4.8508 C.3       1 <0>         0.1344
     18 C11        -6.6196    0.1019   -5.7989 C.3       1 <0>        -0.1626
     19 C12        -6.4419    2.5107   -5.1599 C.3       1 <0>        -0.1626
     20 N6         -6.2133   -0.4389    1.0165 N.pl3     1 <0>        -0.6899
     21 C13        -5.5062   -0.8166    2.2427 C.3       1 <0>         0.1717
     22 C14        -6.5039   -1.0364    3.3505 C.ar      1 <0>        -0.1135
     23 C15        -6.8801    0.0183    4.1611 C.ar      1 <0>        -0.0982
     24 C16        -7.7953   -0.1833    5.1773 C.ar      1 <0>        -0.1219
     25 C17        -8.3347   -1.4394    5.3826 C.ar      1 <0>        -0.1101
     26 C18        -7.9592   -2.4939    4.5714 C.ar      1 <0>        -0.1221
     27 C19        -7.0472   -2.2913    3.5524 C.ar      1 <0>        -0.0986
     28 H2          1.0039    1.9031    0.0027 H         1 <0>         0.0563
     29 H3         -0.5459    1.8868   -0.8726 H         1 <0>         0.0552
     30 H4         -0.5289    1.8773    0.9072 H         1 <0>         0.0537
     31 H5          0.5123   -0.3556   -0.8948 H         1 <0>         0.0768
     32 H6          0.5293   -0.3651    0.8851 H         1 <0>         0.0774
     33 H7         -0.9936   -2.3437    1.0951 H         1 <0>         0.0524
     34 H8         -2.4301   -2.4431    0.0488 H         1 <0>         0.0503
     35 H9         -0.5540   -3.5721   -0.9058 H         1 <0>         0.3776
     36 H10        -1.5839    0.0285   -2.0291 H         1 <0>         0.4145
     37 H11        -8.4474    0.9139   -3.4613 H         1 <0>         0.2138
     38 H12        -4.8660    1.0524   -4.9853 H         1 <0>         0.1061
     39 H13        -7.7004    0.1459   -5.6644 H         1 <0>         0.0654
     40 H14        -6.3710    0.3568   -6.8291 H         1 <0>         0.0793
     41 H15        -6.2668   -0.9057   -5.5787 H         1 <0>         0.0629
     42 H16        -5.9625    3.2193   -4.4845 H         1 <0>         0.0629
     43 H17        -6.1933    2.7656   -6.1901 H         1 <0>         0.0793
     44 H18        -7.5227    2.5547   -5.0254 H         1 <0>         0.0654
     45 H19        -7.1807   -0.3672    1.0169 H         1 <0>         0.4195
     46 H20        -4.9460   -1.7357    2.0706 H         1 <0>         0.0763
     47 H21        -4.8186   -0.0196    2.5258 H         1 <0>         0.0773
     48 H22        -6.4587    0.9996    4.0008 H         1 <0>         0.1237
     49 H23        -8.0886    0.6405    5.8111 H         1 <0>         0.1245
     50 H24        -9.0492   -1.5971    6.1770 H         1 <0>         0.1237
     51 H25        -8.3804   -3.4753    4.7320 H         1 <0>         0.1244
     52 H26        -6.7567   -3.1143    2.9163 H         1 <0>         0.1232
@<TRIPOS>BOND
     1    1    2 1
     2    1   28 1
     3    1   29 1
     4    1   30 1
     5    2    3 1
     6    2   31 1
     7    2   32 1
     8    3    4 1
     9    3    5 1
    10    3    7 1
    11    5    6 1
    12    5   33 1
    13    5   34 1
    14    6   35 1
    15    7    8 1
    16    7   36 1
    17    8   13 ar
    18    8    9 ar
    19    9   10 ar
    20   10   11 ar
    21   10   20 1
    22   11   16 1
    23   11   12 ar
    24   12   13 ar
    25   12   14 1
    26   14   15 1
    27   14   17 1
    28   15   16 2
    29   15   37 1
    30   17   18 1
    31   17   19 1
    32   17   38 1
    33   18   39 1
    34   18   40 1
    35   18   41 1
    36   19   42 1
    37   19   43 1
    38   19   44 1
    39   20   21 1
    40   20   45 1
    41   21   22 1
    42   21   46 1
    43   21   47 1
    44   22   27 ar
    45   22   23 ar
    46   23   24 ar
    47   23   48 1
    48   24   25 ar
    49   24   49 1
    50   25   26 ar
    51   25   50 1
    52   26   27 ar
    53   26   51 1
    54   27   52 1
@<TRIPOS>MOLECULE
ZINC03814434
   62    69     0     0     0
SMALL
USER_CHARGES

@<TRIPOS>ATOM
      1 C1         -0.1295    1.5952   -0.2973 C.3       1 <0>        -0.1687
      2 C2         -0.0862    0.0696   -0.1900 C.3       1 <0>         0.3342
      3 C3          0.5692   -0.4501   -1.4637 C.3       1 <0>         0.0405
      4 H1          1.4796    0.1159   -1.6612 H         1 <0>         0.1372
      5 C4          0.9167   -1.9328   -1.2889 C.3       1 <0>        -0.0061
      6 H2          1.3963   -2.3075   -2.1932 H         1 <0>         0.1555
      7 C5          1.8785   -2.0596   -0.1021 C.3       1 <0>        -0.1827
      8 C6          1.2061   -1.5198    1.1541 C.3       1 <0>         0.2999
      9 H3          1.9797   -1.4243    1.9161 H         1 <0>         0.1550
     10 O1          0.6555   -0.2442    0.9666 O.3       1 <0>        -0.3234
     11 N1          0.2189   -2.4746    1.6600 N.pl3     1 <0>        -0.5366
     12 C7          0.4705   -3.5508    2.4739 C.ar      1 <0>         0.1469
     13 C8          1.6649   -4.0152    3.0240 C.ar      1 <0>        -0.1522
     14 C9          1.5948   -5.1456    3.8201 C.ar      1 <0>        -0.0582
     15 C10         0.4006   -5.7997    4.0696 C.ar      1 <0>        -0.1457
     16 C11        -0.7984   -5.3597    3.5358 C.ar      1 <0>        -0.0280
     17 C12        -0.7487   -4.2198    2.7307 C.ar      1 <0>        -0.1131
     18 C13        -1.7893   -3.4830    2.0197 C.ar      1 <0>         0.0276
     19 C14        -1.1442   -2.4197    1.3841 C.ar      1 <0>         0.0376
     20 C15        -1.8806   -1.5095    0.6175 C.ar      1 <0>         0.0894
     21 N2         -1.4718   -0.3951   -0.1095 N.pl3     1 <0>        -0.5183
     22 C16        -2.5611    0.1913   -0.7090 C.ar      1 <0>         0.1618
     23 C17        -2.6521    1.3277   -1.5118 C.ar      1 <0>        -0.1305
     24 C18        -3.9109    1.6745   -1.9733 C.ar      1 <0>        -0.0737
     25 C19        -5.0393    0.9368   -1.6616 C.ar      1 <0>        -0.1358
     26 C20        -4.9745   -0.1955   -0.8662 C.ar      1 <0>        -0.0503
     27 C21        -3.7147   -0.5596   -0.3919 C.ar      1 <0>        -0.1042
     28 C22        -3.2693   -1.6660    0.4845 C.ar      1 <0>        -0.0360
     29 C23        -3.9084   -2.7313    1.1102 C.ar      1 <0>        -0.0288
     30 C24        -3.1873   -3.6421    1.8754 C.ar      1 <0>        -0.1255
     31 C25        -4.1221   -4.6480    2.4030 C.2       1 <0>         0.5632
     32 O2         -3.8062   -5.5851    3.1110 O.2       1 <0>        -0.5106
     33 N3         -5.3744   -4.3851    1.9926 N.am      1 <0>        -0.7162
     34 C26        -5.3495   -3.1771    1.1601 C.3       1 <0>         0.1358
     35 N4         -0.3067   -2.7008   -1.0216 N.4       1 <0>        -0.5252
     36 C27         0.0145   -4.1336   -0.9773 C.3       1 <0>        -0.0497
     37 O3         -0.3340   -0.2979   -2.5607 O.3       1 <0>        -0.3614
     38 C28         0.3101   -0.0933   -3.8198 C.3       1 <0>         0.0162
     39 H4          0.8261    2.0094    0.0240 H         1 <0>         0.0984
     40 H5         -0.3202    1.8814   -1.3317 H         1 <0>         0.1036
     41 H6         -0.9255    1.9818    0.3392 H         1 <0>         0.0921
     42 H7          2.1370   -3.1081    0.0458 H         1 <0>         0.1233
     43 H8          2.7835   -1.4869   -0.3048 H         1 <0>         0.1455
     44 H9          2.6036   -3.5149    2.8368 H         1 <0>         0.1365
     45 H10         2.5026   -5.5304    4.2610 H         1 <0>         0.1359
     46 H11         0.4045   -6.6780    4.6980 H         1 <0>         0.1352
     47 H12        -1.7278   -5.8736    3.7323 H         1 <0>         0.1600
     48 H13        -1.7792    1.9122   -1.7624 H         1 <0>         0.1440
     49 H14        -4.0153    2.5500   -2.5970 H         1 <0>         0.1336
     50 H15        -5.9967    1.2527   -2.0488 H         1 <0>         0.1332
     51 H16        -5.8575   -0.7687   -0.6249 H         1 <0>         0.1415
     52 H17        -6.1628   -4.9065    2.2103 H         1 <0>         0.4348
     53 H18        -5.9671   -2.3994    1.6094 H         1 <0>         0.1115
     54 H19        -5.7060   -3.4063    0.1559 H         1 <0>         0.1103
     55 H20        -0.6958   -2.4158   -0.1353 H         1 <0>         0.4186
     56 H21         0.4349   -4.4415   -1.9347 H         1 <0>         0.1256
     57 H22         0.7403   -4.3189   -0.1854 H         1 <0>         0.1191
     58 H23        -0.8932   -4.7035   -0.7789 H         1 <0>         0.1256
     59 H24         0.9168    0.8112   -3.7748 H         1 <0>         0.0633
     60 H25         0.9482   -0.9479   -4.0446 H         1 <0>         0.0514
     61 H26        -0.4433    0.0130   -4.6003 H         1 <0>         0.1100
     62 H27        -0.9785   -2.5293   -1.7546 H         1 <0>         0.4274
@<TRIPOS>BOND
     1    1    2 1
     2    1   39 1
     3    1   40 1
     4    1   41 1
     5    2   10 1
     6    2   21 1
     7    2    3 1
     8    3    4 1
     9    3    5 1
    10    3   37 1
    11    5    6 1
    12    5    7 1
    13    5   35 1
    14    7    8 1
    15    7   42 1
    16    7   43 1
    17    8    9 1
    18    8   10 1
    19    8   11 1
    20   11   19 1
    21   11   12 1
    22   12   17 ar
    23   12   13 ar
    24   13   14 ar
    25   13   44 1
    26   14   15 ar
    27   14   45 1
    28   15   16 ar
    29   15   46 1
    30   16   17 ar
    31   16   47 1
    32   17   18 1
    33   18   30 ar
    34   18   19 ar
    35   19   20 ar
    36   20   28 ar
    37   20   21 1
    38   21   22 1
    39   22   27 ar
    40   22   23 ar
    41   23   24 ar
    42   23   48 1
    43   24   25 ar
    44   24   49 1
    45   25   26 ar
    46   25   50 1
    47   26   27 ar
    48   26   51 1
    49   27   28 1
    50   28   29 ar
    51   29   34 1
    52   29   30 ar
    53   30   31 1
    54   31   32 2
    55   31   33 am
    56   33   34 1
    57   33   52 1
    58   34   53 1
    59   34   54 1
    60   35   36 1
    61   35   55 1
    62   35   62 1
    63   36   56 1
    64   36   57 1
    65   36   58 1
    66   37   38 1
    67   38   59 1
    68   38   60 1
    69   38   61 1
@<TRIPOS>MOLECULE
ZINC03938686
   63    67     0     0     0
SMALL
USER_CHARGES
9-acetyl-7-cyclopentyl-10-methyl-4-[(5-piperazin-1-yl-2-pyridyl)amino]-3,5,7-triazabicyclo[4.4.0]deca-2,4,9,11-tetraen-8-one
@<TRIPOS>ATOM
      1 C1         -2.3844   -0.3411    0.0474 C.3       1 <0>        -0.1409
      2 C2         -2.5671    1.1541    0.0026 C.2       1 <0>         0.1157
      3 C3         -1.4510    2.0113   -0.0422 C.ar      1 <0>        -0.2826
      4 C4         -0.1412    1.4997   -0.0469 C.ar      1 <0>         0.2613
      5 N1          0.8670    2.3479   -0.0954 N.ar      1 <0>        -0.5182
      6 C5          0.6607    3.6609   -0.1337 C.ar      1 <0>         0.6031
      7 N2         -0.5531    4.1905   -0.1255 N.ar      1 <0>        -0.5932
      8 C6         -1.6292    3.4134   -0.0780 C.ar      1 <0>         0.4749
      9 N3         -2.8875    3.9578   -0.0698 N.am      1 <0>        -0.4977
     10 C7         -3.9812    3.1727   -0.0386 C.2       1 <0>         0.5604
     11 O1         -5.0896    3.6763   -0.0364 O.2       1 <0>        -0.4885
     12 C8         -3.8413    1.7120    0.0053 C.2       1 <0>        -0.2966
     13 C9         -5.0259    0.8547    0.0508 C.2       1 <0>         0.4148
     14 O2         -4.9015   -0.3459    0.1765 O.2       1 <0>        -0.4617
     15 C10        -6.4005    1.4626   -0.0585 C.3       1 <0>        -0.1968
     16 C11        -3.0448    5.4137   -0.1137 C.3       1 <0>         0.1243
     17 C12        -3.8418    5.8964    1.1158 C.3       1 <0>        -0.1313
     18 C13        -4.7226    7.0478    0.5684 C.3       1 <0>        -0.1171
     19 C14        -5.1254    6.5332   -0.8359 C.3       1 <0>        -0.1176
     20 C15        -3.8602    5.8187   -1.3542 C.3       1 <0>        -0.1250
     21 N4          1.7523    4.5033   -0.1832 N.pl3     1 <0>        -0.6102
     22 C16         3.0418    3.9804   -0.0865 C.ar      1 <0>         0.3681
     23 C17         4.1310    4.8432   -0.0314 C.ar      1 <0>        -0.1772
     24 C18         5.4050    4.3149    0.0697 C.ar      1 <0>        -0.0499
     25 C19         5.5482    2.9285    0.1016 C.ar      1 <0>        -0.0032
     26 C20         4.4160    2.1302    0.0367 C.ar      1 <0>         0.1024
     27 N5          3.2149    2.6690   -0.0538 N.ar      1 <0>        -0.4385
     28 N6          6.8190    2.3494    0.1975 N.pl3     1 <0>        -0.4780
     29 C21         7.5351    2.8441    1.3815 C.3       1 <0>         0.0225
     30 C22         8.9453    2.2498    1.4067 C.3       1 <0>         0.0012
     31 C23         8.1396    0.2884    0.2394 C.3       1 <0>         0.0020
     32 C24         6.7294    0.8827    0.2142 C.3       1 <0>         0.0159
     33 H1         -2.4234   -0.6810    1.0823 H         1 <0>         0.0997
     34 H2         -3.1793   -0.8215   -0.5230 H         1 <0>         0.1126
     35 H3         -1.4184   -0.6022   -0.3847 H         1 <0>         0.0723
     36 H4          0.0350    0.4346   -0.0161 H         1 <0>         0.1893
     37 H5         -6.6334    1.5888   -1.0228 H         1 <0>         0.0842
     38 H6         -7.1292    0.7993    0.4075 H         1 <0>         0.0792
     39 H7         -6.4122    2.4280    0.4474 H         1 <0>         0.1146
     40 H8         -2.0666    5.8941   -0.1367 H         1 <0>         0.1179
     41 H9         -4.4652    5.0919    1.5062 H         1 <0>         0.0830
     42 H10        -3.1663    6.2655    1.8875 H         1 <0>         0.0681
     43 H11        -4.1472    7.9704    0.4913 H         1 <0>         0.0676
     44 H12        -5.6033    7.1918    1.1943 H         1 <0>         0.0730
     45 H13        -5.3865    7.3671   -1.4874 H         1 <0>         0.0659
     46 H14        -5.9562    5.8316   -0.7613 H         1 <0>         0.0805
     47 H15        -3.2781    6.4963   -1.9787 H         1 <0>         0.0721
     48 H16        -4.1382    4.9321   -1.9240 H         1 <0>         0.0687
     49 H17         1.6230    5.4592   -0.2853 H         1 <0>         0.4378
     50 H18         3.9835    5.9126   -0.0627 H         1 <0>         0.1468
     51 H19         6.2690    4.9610    0.1183 H         1 <0>         0.1448
     52 H20         4.5185    1.0553    0.0608 H         1 <0>         0.1601
     53 H21         7.5994    3.9314    1.3398 H         1 <0>         0.1266
     54 H22         6.9986    2.5455    2.2821 H         1 <0>         0.0696
     55 H23         9.4685    2.5924    2.2994 H         1 <0>         0.1410
     56 H24         9.4910    2.5707    0.5193 H         1 <0>         0.1409
     57 H25         8.0754   -0.7989    0.2811 H         1 <0>         0.1425
     58 H26         8.6760    0.5867   -0.6614 H         1 <0>         0.1410
     59 H27         6.1837    0.5618    1.1016 H         1 <0>         0.0733
     60 H28         6.2059    0.5401   -0.6783 H         1 <0>         0.1313
     61 N7          8.8595    0.7773    1.4306 N.4       1 <0>        -0.5194
     62 H29         8.3573    0.4807    2.2756 H         1 <0>         0.4317
     63 H30         9.8074    0.3827    1.4396 H         1 <0>         0.4407
@<TRIPOS>BOND
     1    1    2 1
     2    1   33 1
     3    1   34 1
     4    1   35 1
     5    2   12 2
     6    2    3 1
     7    3    8 ar
     8    3    4 ar
     9    4    5 ar
    10    4   36 1
    11    5    6 ar
    12    6    7 ar
    13    6   21 1
    14    7    8 ar
    15    8    9 1
    16    9   10 am
    17    9   16 1
    18   10   11 2
    19   10   12 1
    20   12   13 1
    21   13   14 2
    22   13   15 1
    23   15   37 1
    24   15   38 1
    25   15   39 1
    26   16   20 1
    27   16   17 1
    28   16   40 1
    29   17   18 1
    30   17   41 1
    31   17   42 1
    32   18   19 1
    33   18   43 1
    34   18   44 1
    35   19   20 1
    36   19   45 1
    37   19   46 1
    38   20   47 1
    39   20   48 1
    40   21   22 1
    41   21   49 1
    42   22   27 ar
    43   22   23 ar
    44   23   24 ar
    45   23   50 1
    46   24   25 ar
    47   24   51 1
    48   25   26 ar
    49   25   28 1
    50   26   27 ar
    51   26   52 1
    52   28   32 1
    53   28   29 1
    54   29   30 1
    55   29   53 1
    56   29   54 1
    57   30   55 1
    58   30   56 1
    59   30   61 1
    60   31   32 1
    61   31   57 1
    62   31   58 1
    63   31   61 1
    64   32   59 1
    65   32   60 1
    66   61   62 1
    67   61   63 1
@<TRIPOS>MOLECULE
ZINC13641637
   58    62     0     0     0
SMALL
USER_CHARGES
6-bromo-8-cyclopentyl-5-methyl-2-[(5-piperazin-1-yl-2-pyridyl)amino]pyrido[6,5-d]pyrimidin-7-one
@<TRIPOS>ATOM
      1 C1         -2.5896   -0.4133    0.0348 C.3       1 <0>        -0.1395
      2 C2         -2.5142    1.0918    0.0409 C.2       1 <0>         0.0746
      3 C3         -1.2251    1.7769    0.0326 C.ar      1 <0>        -0.2691
      4 C4         -0.0134    1.0765    0.0183 C.ar      1 <0>         0.2534
      5 N1          1.1122    1.7676    0.0064 N.ar      1 <0>        -0.5162
      6 C5          1.1039    3.0962    0.0129 C.ar      1 <0>         0.5962
      7 N2         -0.0174    3.8008    0.0314 N.ar      1 <0>        -0.5871
      8 C6         -1.1947    3.1884    0.0444 C.ar      1 <0>         0.4651
      9 N3         -2.3722    3.8905    0.0632 N.am      1 <0>        -0.4966
     10 C7         -3.5571    3.2541    0.0614 C.2       1 <0>         0.5544
     11 O1         -4.5832    3.9118    0.0746 O.2       1 <0>        -0.4817
     12 C8         -3.6446    1.8463    0.0548 C.2       1 <0>        -0.2180
     13 Br1        -5.3389    1.0066    0.0660 Br        1 <0>         0.0100
     14 C9         -2.3394    5.3551    0.0703 C.3       1 <0>         0.1273
     15 C10        -3.0814    5.8943    1.3107 C.3       1 <0>        -0.1315
     16 C11        -3.7996    7.1684    0.7986 C.3       1 <0>        -0.1167
     17 C12        -4.2494    6.7591   -0.6259 C.3       1 <0>        -0.1175
     18 C13        -3.0813    5.9049   -1.1605 C.3       1 <0>        -0.1247
     19 N4          2.3115    3.7687    0.0003 N.pl3     1 <0>        -0.6127
     20 C14         3.5074    3.0564    0.0913 C.ar      1 <0>         0.3708
     21 C15         4.7117    3.7449    0.1883 C.ar      1 <0>        -0.1789
     22 C16         5.8913    3.0295    0.2842 C.ar      1 <0>        -0.0494
     23 C17         5.8265    1.6370    0.2679 C.ar      1 <0>        -0.0053
     24 C18         4.5894    1.0190    0.1626 C.ar      1 <0>         0.1029
     25 N5          3.4833    1.7335    0.0788 N.ar      1 <0>        -0.4393
     26 N6          6.9955    0.8721    0.3563 N.pl3     1 <0>        -0.4778
     27 C19         7.7585    1.2141    1.5648 C.3       1 <0>         0.0224
     28 C20         9.0642    0.4158    1.5834 C.3       1 <0>         0.0013
     29 C21         7.9945   -1.3630    0.3382 C.3       1 <0>         0.0020
     30 C22         6.6888   -0.5647    0.3196 C.3       1 <0>         0.0160
     31 H1         -2.5987   -0.7808    1.0609 H         1 <0>         0.0997
     32 H2         -3.5012   -0.7293   -0.4724 H         1 <0>         0.0945
     33 H3         -1.7235   -0.8183   -0.4886 H         1 <0>         0.0846
     34 H4          0.0009   -0.0033    0.0126 H         1 <0>         0.1865
     35 H5         -1.3072    5.7052    0.0713 H         1 <0>         0.1176
     36 H6         -3.8080    5.1645    1.6677 H         1 <0>         0.0829
     37 H7         -2.3728    6.1459    2.0997 H         1 <0>         0.0679
     38 H8         -3.1089    8.0107    0.7586 H         1 <0>         0.0677
     39 H9         -4.6615    7.4036    1.4232 H         1 <0>         0.0727
     40 H10        -4.3929    7.6418   -1.2490 H         1 <0>         0.0659
     41 H11        -5.1647    6.1689   -0.5821 H         1 <0>         0.0803
     42 H12        -2.4093    6.5225   -1.7565 H         1 <0>         0.0721
     43 H13        -3.4650    5.0820   -1.7636 H         1 <0>         0.0681
     44 H14         2.3274    4.7358   -0.0719 H         1 <0>         0.4372
     45 H15         4.7253    4.8248    0.1935 H         1 <0>         0.1464
     46 H16         6.8409    3.5376    0.3649 H         1 <0>         0.1442
     47 H17         4.5307   -0.0593    0.1493 H         1 <0>         0.1596
     48 H18         7.9842    2.2804    1.5627 H         1 <0>         0.1265
     49 H19         7.1695    0.9684    2.4484 H         1 <0>         0.0695
     50 H20         9.6184    0.6462    2.4933 H         1 <0>         0.1409
     51 H21         9.6654    0.6816    0.7140 H         1 <0>         0.1408
     52 H22         7.7688   -2.4293    0.3403 H         1 <0>         0.1423
     53 H23         8.5834   -1.1176   -0.5456 H         1 <0>         0.1409
     54 H24         6.0876   -0.8305    1.1891 H         1 <0>         0.0731
     55 H25         6.1343   -0.7950   -0.5901 H         1 <0>         0.1312
     56 N7          8.7602   -1.0275    1.5536 N.4       1 <0>        -0.5194
     57 H26         8.2063   -1.2744    2.3822 H         1 <0>         0.4317
     58 H27         9.6386   -1.5591    1.5584 H         1 <0>         0.4406
@<TRIPOS>BOND
     1    1    2 1
     2    1   31 1
     3    1   32 1
     4    1   33 1
     5    2   12 2
     6    2    3 1
     7    3    8 ar
     8    3    4 ar
     9    4    5 ar
    10    4   34 1
    11    5    6 ar
    12    6    7 ar
    13    6   19 1
    14    7    8 ar
    15    8    9 1
    16    9   10 am
    17    9   14 1
    18   10   11 2
    19   10   12 1
    20   12   13 1
    21   14   18 1
    22   14   15 1
    23   14   35 1
    24   15   16 1
    25   15   36 1
    26   15   37 1
    27   16   17 1
    28   16   38 1
    29   16   39 1
    30   17   18 1
    31   17   40 1
    32   17   41 1
    33   18   42 1
    34   18   43 1
    35   19   20 1
    36   19   44 1
    37   20   25 ar
    38   20   21 ar
    39   21   22 ar
    40   21   45 1
    41   22   23 ar
    42   22   46 1
    43   23   24 ar
    44   23   26 1
    45   24   25 ar
    46   24   47 1
    47   26   30 1
    48   26   27 1
    49   27   28 1
    50   27   48 1
    51   27   49 1
    52   28   50 1
    53   28   51 1
    54   28   56 1
    55   29   30 1
    56   29   52 1
    57   29   53 1
    58   29   56 1
    59   30   54 1
    60   30   55 1
    61   56   57 1
    62   56   58 1
@<TRIPOS>MOLECULE
ZINC06475935
   37    41     0     0     0
SMALL
USER_CHARGES

@<TRIPOS>ATOM
      1 C1         -0.0167    1.3792    0.0096 C.ar      1 <0>        -0.1062
      2 C2          1.1685    2.0927    0.0021 C.ar      1 <0>        -0.1241
      3 C3          2.3774    1.4276   -0.0135 C.ar      1 <0>        -0.0971
      4 C4          2.4028    0.0333   -0.0212 C.ar      1 <0>        -0.0698
      5 C5          1.2047   -0.6805   -0.0131 C.ar      1 <0>        -0.0699
      6 C6          0.0021   -0.0041    0.0020 C.ar      1 <0>        -0.1189
      7 C7          3.6973   -0.6869   -0.0384 C.ar      1 <0>         0.0669
      8 C8          4.6754   -0.3384   -0.9678 C.ar      1 <0>        -0.1132
      9 C9          5.8922   -1.0065   -0.9938 C.ar      1 <0>         0.1759
     10 C10         6.1423   -2.0459   -0.0730 C.ar      1 <0>        -0.0351
     11 C11         7.4991   -2.5393   -0.3607 C.ar      1 <0>        -0.0961
     12 C12         8.2934   -3.5392    0.1999 C.ar      1 <0>        -0.0753
     13 C13         9.5594   -3.7717   -0.3037 C.ar      1 <0>         0.0785
     14 C14        10.0393   -3.0111   -1.3648 C.ar      1 <0>        -0.0961
     15 C15         9.2614   -2.0209   -1.9249 C.ar      1 <0>        -0.1252
     16 C16         7.9844   -1.7730   -1.4314 C.ar      1 <0>         0.1387
     17 N1          7.0072   -0.8611   -1.7955 N.pl3     1 <0>        -0.6077
     18 H1          7.0938   -0.2127   -2.5117 H         1 <0>         0.4258
     19 O1         10.3376   -4.7456    0.2396 O.3       1 <0>        -0.4931
     20 C17         5.1676   -2.4003    0.8608 C.ar      1 <0>        -0.0787
     21 C18         3.9391   -1.7132    0.8827 C.ar      1 <0>        -0.1638
     22 C19         3.1555   -2.3189    1.9736 C.2       1 <0>         0.5798
     23 O2          2.0310   -1.9966    2.3024 O.2       1 <0>        -0.4523
     24 N2          3.8925   -3.2886    2.5445 N.am      1 <0>        -0.6803
     25 C20         5.0881   -3.4048    1.9386 C.2       1 <0>         0.5787
     26 O3          5.9616   -4.1941    2.2386 O.2       1 <0>        -0.4558
     27 H2         -0.9604    1.9042    0.0260 H         1 <0>         0.1242
     28 H3          1.1476    3.1725    0.0082 H         1 <0>         0.1259
     29 H4          3.3020    1.9857   -0.0200 H         1 <0>         0.1250
     30 H5          1.2181   -1.7604   -0.0194 H         1 <0>         0.1216
     31 H6         -0.9264   -0.5557    0.0079 H         1 <0>         0.1258
     32 H7          4.4855    0.4570   -1.6732 H         1 <0>         0.1471
     33 H8          7.9210   -4.1292    1.0243 H         1 <0>         0.1476
     34 H9         11.0297   -3.1978   -1.7528 H         1 <0>         0.1402
     35 H10         9.6439   -1.4363   -2.7485 H         1 <0>         0.1347
     36 H11        10.2282   -5.6129   -0.1739 H         1 <0>         0.3907
     37 H12         3.5977   -3.8372    3.2881 H         1 <0>         0.4317
@<TRIPOS>BOND
     1    1    6 ar
     2    1    2 ar
     3    1   27 1
     4    2    3 ar
     5    2   28 1
     6    3    4 ar
     7    3   29 1
     8    4    5 ar
     9    4    7 1
    10    5    6 ar
    11    5   30 1
    12    6   31 1
    13    7   21 ar
    14    7    8 ar
    15    8    9 ar
    16    8   32 1
    17    9   17 1
    18    9   10 ar
    19   10   11 1
    20   10   20 ar
    21   11   16 ar
    22   11   12 ar
    23   12   13 ar
    24   12   33 1
    25   13   14 ar
    26   13   19 1
    27   14   15 ar
    28   14   34 1
    29   15   16 ar
    30   15   35 1
    31   16   17 1
    32   17   18 1
    33   19   36 1
    34   20   25 1
    35   20   21 ar
    36   21   22 1
    37   22   23 2
    38   22   24 am
    39   24   25 am
    40   24   37 1
    41   25   26 2
@<TRIPOS>MOLECULE
ZINC00582575
   52    54     0     0     0
SMALL
USER_CHARGES

@<TRIPOS>ATOM
      1 C1          0.4280   -0.4909    1.8513 C.3       1 <0>        -0.1353
      2 C2         -0.1373    0.3043    0.6728 C.3       1 <0>        -0.0998
      3 C3          0.1219    1.7960    0.8928 C.3       1 <0>        -0.1438
      4 C4          0.5445   -0.1465   -0.6206 C.3       1 <0>         0.1707
      5 H1          1.6116    0.0682   -0.5626 H         1 <0>         0.1020
      6 C5         -0.0633    0.6053   -1.8064 C.3       1 <0>         0.0638
      7 O1         -1.4784    0.4070   -1.8214 O.3       1 <0>        -0.5678
      8 N1          0.3453   -1.5866   -0.8014 N.pl3     1 <0>        -0.6843
      9 C6          1.2038   -2.4865   -0.1915 C.ar      1 <0>         0.6278
     10 N2          2.1960   -2.0197    0.5559 N.ar      1 <0>        -0.6013
     11 C7          3.0454   -2.8423    1.1611 C.ar      1 <0>         0.5297
     12 C8          2.8737   -4.2277    0.9949 C.ar      1 <0>        -0.1465
     13 C9          1.8096   -4.6754    0.1948 C.ar      1 <0>         0.3495
     14 N3          1.0032   -3.7820   -0.3699 N.ar      1 <0>        -0.6072
     15 N4          1.8776   -6.0456    0.2064 N.pl3     1 <0>        -0.4700
     16 C10         2.9424   -6.3955    0.9844 C.2       1 <0>         0.2415
     17 N5          3.5251   -5.3277    1.4458 N.2       1 <0>        -0.4572
     18 C11         0.9729   -6.9645   -0.4890 C.3       1 <0>         0.1340
     19 C12         1.7722   -7.8175   -1.4761 C.3       1 <0>        -0.1629
     20 C13         0.2864   -7.8742    0.5318 C.3       1 <0>        -0.1632
     21 N6          4.0779   -2.3459    1.9386 N.pl3     1 <0>        -0.6355
     22 C14         4.2903   -0.9669    2.0207 C.ar      1 <0>         0.1742
     23 C15         4.0436   -0.1577    0.9185 C.ar      1 <0>        -0.1100
     24 C16         4.2538    1.2045    1.0024 C.ar      1 <0>        -0.0884
     25 C17         4.7100    1.7642    2.1819 C.ar      1 <0>        -0.1271
     26 C18         4.9569    0.9617    3.2819 C.ar      1 <0>        -0.0129
     27 C19         4.7429   -0.4020    3.2058 C.ar      1 <0>        -0.1416
     28 Cl1         5.5294    1.6687    4.7604 Cl        1 <0>        -0.0669
     29 H2          0.2433   -1.5536    1.6946 H         1 <0>         0.0430
     30 H3          1.5012   -0.3158    1.9263 H         1 <0>         0.0707
     31 H4         -0.0578   -0.1697    2.7727 H         1 <0>         0.0403
     32 H5         -1.2106    0.1292    0.5978 H         1 <0>         0.0766
     33 H6          1.1945    1.9872    0.8596 H         1 <0>         0.0559
     34 H7         -0.3739    2.3703    0.1101 H         1 <0>         0.0538
     35 H8         -0.2703    2.0934    1.8654 H         1 <0>         0.0560
     36 H9          0.1535    1.6693   -1.7118 H         1 <0>         0.0658
     37 H10         0.3663    0.2281   -2.7345 H         1 <0>         0.0519
     38 H11        -1.9308    0.8561   -2.5484 H         1 <0>         0.3823
     39 H12        -0.3878   -1.9099   -1.3481 H         1 <0>         0.4179
     40 H13         3.2553   -7.4091    1.1873 H         1 <0>         0.2164
     41 H14         0.2195   -6.3923   -1.0303 H         1 <0>         0.1069
     42 H15         2.5256   -8.3897   -0.9348 H         1 <0>         0.0660
     43 H16         1.0991   -8.5011   -1.9935 H         1 <0>         0.0802
     44 H17         2.2613   -7.1693   -2.2033 H         1 <0>         0.0632
     45 H18        -0.2830   -7.2665    1.2351 H         1 <0>         0.0634
     46 H19        -0.3867   -8.5579    0.0144 H         1 <0>         0.0803
     47 H20         1.0399   -8.4464    1.0731 H         1 <0>         0.0660
     48 H21         4.6539   -2.9553    2.4263 H         1 <0>         0.4297
     49 H22         3.6881   -0.5939   -0.0033 H         1 <0>         0.1411
     50 H23         4.0621    1.8335    0.1457 H         1 <0>         0.1337
     51 H24         4.8742    2.8298    2.2445 H         1 <0>         0.1331
     52 H25         4.9317   -1.0277    4.0656 H         1 <0>         0.1347
@<TRIPOS>BOND
     1    1    2 1
     2    1   29 1
     3    1   30 1
     4    1   31 1
     5    2    3 1
     6    2    4 1
     7    2   32 1
     8    3   33 1
     9    3   34 1
    10    3   35 1
    11    4    5 1
    12    4    6 1
    13    4    8 1
    14    6    7 1
    15    6   36 1
    16    6   37 1
    17    7   38 1
    18    8    9 1
    19    8   39 1
    20    9   14 ar
    21    9   10 ar
    22   10   11 ar
    23   11   12 ar
    24   11   21 1
    25   12   17 1
    26   12   13 ar
    27   13   14 ar
    28   13   15 1
    29   15   16 1
    30   15   18 1
    31   16   17 2
    32   16   40 1
    33   18   19 1
    34   18   20 1
    35   18   41 1
    36   19   42 1
    37   19   43 1
    38   19   44 1
    39   20   45 1
    40   20   46 1
    41   20   47 1
    42   21   22 1
    43   21   48 1
    44   22   27 ar
    45   22   23 ar
    46   23   24 ar
    47   23   49 1
    48   24   25 ar
    49   24   50 1
    50   25   26 ar
    51   25   51 1
    52   26   27 ar
    53   26   28 1
    54   27   52 1
@<TRIPOS>MOLECULE
ZINC01616841
   32    36     0     0     0
SMALL
USER_CHARGES
BLAHone
@<TRIPOS>ATOM
      1 C1         -4.4292    5.2593    0.0683 C.ar      1 <0>        -0.1267
      2 C2         -3.7839    6.4864    0.0689 C.ar      1 <0>        -0.0420
      3 C3         -2.4069    6.5540    0.0563 C.ar      1 <0>        -0.1292
      4 C4         -1.6516    5.3861    0.0434 C.ar      1 <0>         0.1568
      5 C5         -2.3062    4.1438    0.0428 C.ar      1 <0>        -0.1260
      6 C6         -3.6988    4.0907    0.0547 C.ar      1 <0>        -0.0356
      7 C7         -1.2506    3.1204    0.0284 C.ar      1 <0>         0.0087
      8 C8         -1.2294    1.7312    0.0174 C.ar      1 <0>        -0.0452
      9 C9         -0.0126    1.0758    0.0080 C.ar      1 <0>         0.1001
     10 N1          1.1432    1.7395    0.0005 N.ar      1 <0>        -0.2393
     11 C10         1.1657    3.0731    0.0070 C.ar      1 <0>         0.0117
     12 C11        -0.0197    3.8140    0.0211 C.ar      1 <0>         0.2043
     13 N2         -0.2845    5.1624    0.0303 N.pl3     1 <0>        -0.5755
     14 H1          0.3904    5.8591    0.0282 H         1 <0>         0.4415
     15 C12         2.5831    3.5188   -0.0032 C.2       1 <0>         0.4493
     16 O1          3.0044    4.6583   -0.0016 O.2       1 <0>        -0.3564
     17 C13         3.3672    2.2619   -0.0164 C.ar      1 <0>        -0.1653
     18 C14         2.4283    1.2188   -0.0134 C.ar      1 <0>         0.0523
     19 C15         2.8797   -0.0967   -0.0235 C.ar      1 <0>        -0.0647
     20 C16         4.2387   -0.3624   -0.0364 C.ar      1 <0>        -0.0628
     21 C17         5.1587    0.6691   -0.0393 C.ar      1 <0>        -0.0822
     22 C18         4.7268    1.9855   -0.0294 C.ar      1 <0>        -0.0135
     23 H2         -5.5084    5.2191    0.0782 H         1 <0>         0.1483
     24 H3         -4.3646    7.3969    0.0789 H         1 <0>         0.1506
     25 H4         -1.9140    7.5150    0.0569 H         1 <0>         0.1445
     26 H5         -4.2042    3.1363    0.0542 H         1 <0>         0.1449
     27 H6         -2.1524    1.1704    0.0191 H         1 <0>         0.1986
     28 H7          0.0021   -0.0041    0.0020 H         1 <0>         0.2129
     29 H8          2.1703   -0.9110   -0.0213 H         1 <0>         0.1555
     30 H9          4.5832   -1.3860   -0.0442 H         1 <0>         0.1628
     31 H10         6.2159    0.4486   -0.0491 H         1 <0>         0.1614
     32 H11         5.4447    2.7923   -0.0313 H         1 <0>         0.1602
@<TRIPOS>BOND
     1    1    6 ar
     2    1    2 ar
     3    1   23 1
     4    2    3 ar
     5    2   24 1
     6    3    4 ar
     7    3   25 1
     8    4   13 1
     9    4    5 ar
    10    5    6 ar
    11    5    7 1
    12    6   26 1
    13    7   12 ar
    14    7    8 ar
    15    8    9 ar
    16    8   27 1
    17    9   10 ar
    18    9   28 1
    19   10   18 1
    20   10   11 ar
    21   11   12 ar
    22   11   15 1
    23   12   13 1
    24   13   14 1
    25   15   16 2
    26   15   17 1
    27   17   22 ar
    28   17   18 ar
    29   18   19 ar
    30   19   20 ar
    31   19   29 1
    32   20   21 ar
    33   20   30 1
    34   21   22 ar
    35   21   31 1
    36   22   32 1
@<TRIPOS>MOLECULE
ZINC14806879
   29    31     0     0     0
SMALL
USER_CHARGES

@<TRIPOS>ATOM
      1 C1         -0.0173    1.4248    0.0099 C.3       1 <0>         0.0271
      2 O1          0.0021   -0.0041    0.0020 O.3       1 <0>        -0.3168
      3 C2         -1.2010   -0.6378    0.0101 C.ar      1 <0>         0.1024
      4 C3         -2.3765    0.1026    0.0196 C.ar      1 <0>        -0.1700
      5 C4         -3.6033   -0.5286    0.0283 C.ar      1 <0>        -0.1033
      6 C5         -3.6754   -1.9173    0.0273 C.ar      1 <0>         0.1187
      7 C6         -2.4893   -2.6625    0.0173 C.ar      1 <0>        -0.0676
      8 C7         -1.2551   -2.0214    0.0032 C.ar      1 <0>        -0.0969
      9 C8         -2.8914   -4.0876    0.0188 C.2       1 <0>        -0.1578
     10 C9         -2.0671   -5.1903    0.0116 C.2       1 <0>         0.0629
     11 C10        -2.6439   -6.5349    0.0144 C.2       1 <0>        -0.0242
     12 C11        -1.9450   -7.7254    0.0136 C.2       1 <0>        -0.0035
     13 N1         -2.8729   -8.7189    0.0171 N.pl3     1 <0>        -0.5670
     14 H1         -2.6907   -9.6716    0.0177 H         1 <0>         0.4219
     15 C12        -4.1014   -8.1382    0.0200 C.2       1 <0>         0.1702
     16 N2         -3.9675   -6.8441    0.0243 N.2       1 <0>        -0.4045
     17 C13        -4.3615   -4.0702    0.0302 C.2       1 <0>         0.5403
     18 O2         -5.0890   -5.0470    0.0353 O.2       1 <0>        -0.4371
     19 N3         -4.7617   -2.7874    0.0347 N.am      1 <0>        -0.6638
     20 H2          1.0053    1.8021    0.0021 H         1 <0>         0.1005
     21 H3         -0.5445    1.7859   -0.8732 H         1 <0>         0.0556
     22 H4         -0.5275    1.7763    0.9067 H         1 <0>         0.0557
     23 H5         -2.3296    1.1815    0.0204 H         1 <0>         0.1351
     24 H6         -4.5103    0.0577    0.0364 H         1 <0>         0.1299
     25 H7         -0.3432   -2.6000   -0.0090 H         1 <0>         0.1360
     26 H8         -0.9947   -5.0627    0.0038 H         1 <0>         0.1494
     27 H9         -0.8715   -7.8442    0.0104 H         1 <0>         0.1860
     28 H10        -5.0423   -8.6684    0.0231 H         1 <0>         0.2076
     29 H11        -5.6893   -2.5039    0.0425 H         1 <0>         0.4133
@<TRIPOS>BOND
     1    1    2 1
     2    1   20 1
     3    1   21 1
     4    1   22 1
     5    2    3 1
     6    3    8 ar
     7    3    4 ar
     8    4    5 ar
     9    4   23 1
    10    5    6 ar
    11    5   24 1
    12    6   19 1
    13    6    7 ar
    14    7    8 ar
    15    7    9 1
    16    8   25 1
    17    9   10 2
    18    9   17 1
    19   10   11 1
    20   10   26 1
    21   11   16 1
    22   11   12 2
    23   12   13 1
    24   12   27 1
    25   13   14 1
    26   13   15 1
    27   15   16 2
    28   15   28 1
    29   17   18 2
    30   17   19 am
    31   19   29 1
@<TRIPOS>MOLECULE
ZINC18183490
   45    52     0     0     0
SMALL
USER_CHARGES

@<TRIPOS>ATOM
      1 C1         -0.0167    1.3803    0.0096 C.ar      1 <0>        -0.1530
      2 C2          1.1495    2.1255    0.0025 C.ar      1 <0>        -0.0724
      3 C3          2.4024    1.5359   -0.0204 C.ar      1 <0>        -0.1468
      4 C4          2.4503    0.1427   -0.0320 C.ar      1 <0>         0.1515
      5 C5          1.2560   -0.6177   -0.0125 C.ar      1 <0>        -0.1069
      6 C6          0.0021   -0.0041    0.0020 C.ar      1 <0>        -0.0384
      7 C7          1.6509   -2.0237    0.0086 C.ar      1 <0>        -0.0076
      8 C8          0.9722   -3.2504    0.0426 C.ar      1 <0>        -0.1079
      9 C9          1.6918   -4.4571    0.1251 C.ar      1 <0>        -0.1087
     10 C10         3.0932   -4.4422    0.1719 C.ar      1 <0>        -0.0070
     11 C11         4.1381   -5.4475    0.3487 C.ar      1 <0>        -0.1067
     12 C12         4.0766   -6.8311    0.5249 C.ar      1 <0>        -0.0381
     13 C13         5.2816   -7.4969    0.6727 C.ar      1 <0>        -0.1529
     14 C14         6.4926   -6.8273    0.6485 C.ar      1 <0>        -0.0722
     15 C15         6.5748   -5.4564    0.4717 C.ar      1 <0>        -0.1470
     16 C16         5.3763   -4.7616    0.3148 C.ar      1 <0>         0.1518
     17 N1          5.1372   -3.4269    0.1009 N.pl3     1 <0>        -0.5088
     18 C17         3.7681   -3.2179    0.0614 C.ar      1 <0>         0.1402
     19 C18         3.0531   -2.0186   -0.0123 C.ar      1 <0>         0.1411
     20 N2          3.5203   -0.7161   -0.0799 N.pl3     1 <0>        -0.5095
     21 C19         4.9330   -0.3594   -0.2487 C.3       1 <0>         0.3009
     22 H1          5.0233    0.6109   -0.7369 H         1 <0>         0.1460
     23 C20         5.6121   -0.3298    1.1353 C.3       1 <0>        -0.1631
     24 C21         6.3995   -1.6530    1.2253 C.3       1 <0>        -0.1633
     25 C22         6.1330   -2.3718   -0.1119 C.3       1 <0>         0.3009
     26 H2          7.0567   -2.7963   -0.5052 H         1 <0>         0.1469
     27 O1          5.6099   -1.3632   -1.0073 O.3       1 <0>        -0.3460
     28 C23         0.6810   -5.5298    0.1434 C.2       1 <0>         0.5845
     29 O2          0.9125   -6.7210    0.2072 O.2       1 <0>        -0.4593
     30 N3         -0.5403   -4.9703    0.0777 N.am      1 <0>        -0.6809
     31 C24        -0.4518   -3.6300    0.0158 C.2       1 <0>         0.5844
     32 O3         -1.3895   -2.8600   -0.0503 O.2       1 <0>        -0.4594
     33 H3         -0.9673    1.8927    0.0260 H         1 <0>         0.1280
     34 H4          1.0802    3.2032    0.0148 H         1 <0>         0.1287
     35 H5          3.3041    2.1302   -0.0292 H         1 <0>         0.1326
     36 H6         -0.9103   -0.5820    0.0074 H         1 <0>         0.1488
     37 H7          3.1336   -7.3571    0.5453 H         1 <0>         0.1487
     38 H8          5.2763   -8.5680    0.8109 H         1 <0>         0.1281
     39 H9          7.4042   -7.3931    0.7721 H         1 <0>         0.1288
     40 H10         7.5270   -4.9470    0.4554 H         1 <0>         0.1327
     41 H11         6.2910    0.5200    1.2056 H         1 <0>         0.1044
     42 H12         4.8615   -0.2817    1.9242 H         1 <0>         0.0950
     43 H13         7.4646   -1.4524    1.3414 H         1 <0>         0.1048
     44 H14         6.0342   -2.2548    2.0575 H         1 <0>         0.0953
     45 H15        -1.3733   -5.4672    0.0749 H         1 <0>         0.4317
@<TRIPOS>BOND
     1    1    6 ar
     2    1    2 ar
     3    1   33 1
     4    2    3 ar
     5    2   34 1
     6    3    4 ar
     7    3   35 1
     8    4   20 1
     9    4    5 ar
    10    5    6 ar
    11    5    7 1
    12    6   36 1
    13    7   19 ar
    14    7    8 ar
    15    8   31 1
    16    8    9 ar
    17    9   10 ar
    18    9   28 1
    19   10   18 ar
    20   10   11 1
    21   11   16 ar
    22   11   12 ar
    23   12   13 ar
    24   12   37 1
    25   13   14 ar
    26   13   38 1
    27   14   15 ar
    28   14   39 1
    29   15   16 ar
    30   15   40 1
    31   16   17 1
    32   17   25 1
    33   17   18 1
    34   18   19 ar
    35   19   20 1
    36   20   21 1
    37   21   22 1
    38   21   27 1
    39   21   23 1
    40   23   24 1
    41   23   41 1
    42   23   42 1
    43   24   25 1
    44   24   43 1
    45   24   44 1
    46   25   26 1
    47   25   27 1
    48   28   29 2
    49   28   30 am
    50   30   31 am
    51   30   45 1
    52   31   32 2
@<TRIPOS>MOLECULE
ZINC05930916
   32    34     0     0     0
SMALL
USER_CHARGES

@<TRIPOS>ATOM
      1 C1          4.3353   -4.7945   -3.6889 C.3       1 <0>        -0.1113
      2 C2          3.1985   -4.6274   -2.7139 C.ar      1 <0>        -0.1205
      3 C3          2.1199   -3.8264   -3.0426 C.ar      1 <0>        -0.0802
      4 C4          1.0764   -3.6709   -2.1519 C.ar      1 <0>        -0.1633
      5 C5          1.1106   -4.3209   -0.9236 C.ar      1 <0>         0.1825
      6 C6          2.1961   -5.1255   -0.5970 C.ar      1 <0>        -0.1594
      7 C7          3.2336   -5.2800   -1.4949 C.ar      1 <0>        -0.0778
      8 N1          0.0585   -4.1659   -0.0209 N.pl3     1 <0>        -0.6697
      9 C8          0.0136   -4.9324    1.1224 C.2       1 <0>         0.1521
     10 C9         -0.0762   -4.3225    2.3271 C.2       1 <0>        -0.1786
     11 C10        -0.1250   -5.1346    3.5493 C.2       1 <0>         0.4690
     12 O1         -0.2061   -4.5960    4.6377 O.2       1 <0>        -0.4210
     13 C11        -0.0763   -6.5879    3.4543 C.2       1 <0>        -0.2853
     14 C12         0.0162   -7.2563    2.2333 C.2       1 <0>         0.0701
     15 N2          0.0492   -8.5855    2.3459 N.2       1 <0>        -0.4905
     16 C13        -0.0013   -9.1914    3.5020 C.2       1 <0>         0.0690
     17 S1         -0.1050   -7.9305    4.6133 S.3       1 <0>         0.2554
     18 C14         0.0266  -10.6728    3.7770 C.3       1 <0>        -0.0731
     19 C15         0.0583   -6.4087    1.0094 C.2       1 <0>         0.4332
     20 O2          0.1343   -6.9295   -0.0846 O.2       1 <0>        -0.3741
     21 H1          4.1316   -5.6425   -4.3427 H         1 <0>         0.0684
     22 H2          4.4359   -3.8896   -4.2883 H         1 <0>         0.0653
     23 H3          5.2607   -4.9721   -3.1411 H         1 <0>         0.0646
     24 H4          2.0940   -3.3216   -3.9970 H         1 <0>         0.1268
     25 H5          0.2348   -3.0447   -2.4089 H         1 <0>         0.1263
     26 H6          2.2262   -5.6321    0.3563 H         1 <0>         0.1111
     27 H7          4.0756   -5.9079   -1.2434 H         1 <0>         0.1242
     28 H8         -0.6414   -3.5182   -0.1984 H         1 <0>         0.4207
     29 H9         -0.1114   -3.2448    2.3891 H         1 <0>         0.1703
     30 H10         1.0588  -10.9993    3.9042 H         1 <0>         0.0997
     31 H11        -0.5360  -10.8842    4.6863 H         1 <0>         0.0950
     32 H12        -0.4226  -11.2064    2.9394 H         1 <0>         0.1009
@<TRIPOS>BOND
     1    1    2 1
     2    1   21 1
     3    1   22 1
     4    1   23 1
     5    2    7 ar
     6    2    3 ar
     7    3    4 ar
     8    3   24 1
     9    4    5 ar
    10    4   25 1
    11    5    6 ar
    12    5    8 1
    13    6    7 ar
    14    6   26 1
    15    7   27 1
    16    8    9 1
    17    8   28 1
    18    9   19 1
    19    9   10 2
    20   10   11 1
    21   10   29 1
    22   11   12 2
    23   11   13 1
    24   13   17 1
    25   13   14 2
    26   14   15 1
    27   14   19 1
    28   15   16 2
    29   16   17 1
    30   16   18 1
    31   18   30 1
    32   18   31 1
    33   18   32 1
    34   19   20 2
@<TRIPOS>MOLECULE
ZINC18038301
   15    15     0     0     0
SMALL
USER_CHARGES
2,6-diamino-5-nitroso-pyrimidin-4-ol
@<TRIPOS>ATOM
      1 C1          1.2736    2.0272    0.0008 C.ar      1 <0>        -0.3548
      2 C2          2.4886    1.1941   -0.0153 C.ar      1 <0>         0.5617
      3 N1          2.3384   -0.1234   -0.0209 N.ar      1 <0>        -0.6990
      4 C3          1.1392   -0.6861   -0.0125 C.ar      1 <0>         0.6527
      5 N2          0.0021   -0.0041    0.0020 N.ar      1 <0>        -0.6912
      6 C4         -0.0159    1.3191    0.0093 C.ar      1 <0>         0.5026
      7 O1         -1.1827    1.9988    0.0186 O.3       1 <0>        -0.6078
      8 N3          1.0694   -2.0584   -0.0187 N.pl3     1 <0>        -0.8447
      9 N4          3.7368    1.7637   -0.0241 N.pl3     1 <0>        -0.8359
     10 N5          1.3390    3.3490    0.0068 N.2       1 <0>        -0.2939
     11 O2          0.3156    4.0094    0.0197 O.2       1 <0>        -0.0932
     12 H1          0.0901   -2.5593   -0.0120 H         1 <0>         0.4286
     13 H2          1.9928   -2.6560   -0.0303 H         1 <0>         0.4204
     14 H3          4.6326    1.1254   -0.0361 H         1 <0>         0.4168
     15 H4          3.8417    2.8587   -0.0192 H         1 <0>         0.4377
@<TRIPOS>BOND
     1    1    6 ar
     2    1    2 ar
     3    1   10 1
     4    2    3 ar
     5    2    9 1
     6    3    4 ar
     7    4    5 ar
     8    4    8 1
     9    5    6 ar
    10    6    7 1
    11    8   12 1
    12    8   13 1
    13    9   14 1
    14    9   15 1
    15   10   11 2
@<TRIPOS>MOLECULE
ZINC03816409
   50    52     0     0     0
SMALL
USER_CHARGES
N-[5-[(5-tert-butyloxazol-2-yl)methylsulfanyl]thiazol-2-yl]piperidine-4-carboxamide
@<TRIPOS>ATOM
      1 C1         -0.0127    1.0858    0.0080 C.3       1 <0>        -0.1425
      2 C2         -0.7288    1.5792    1.2668 C.3       1 <0>         0.0153
      3 C3          0.0111    1.0724    2.5063 C.3       1 <0>        -0.1429
      4 C4         -0.7496    3.1091    1.2752 C.3       1 <0>        -0.1470
      5 C5         -2.1426    1.0576    1.2775 C.2       1 <0>        -0.0059
      6 C6         -2.5173   -0.2324    1.2742 C.2       1 <0>        -0.0384
      7 N1         -3.8616   -0.2670    1.2868 N.2       1 <0>        -0.4461
      8 C7         -4.3108    0.9556    1.2976 C.2       1 <0>         0.1754
      9 O1         -3.2687    1.7975    1.2981 O.3       1 <0>        -0.1872
     10 C8         -5.7633    1.3568    1.3132 C.3       1 <0>        -0.0274
     11 S1         -6.3302    1.5091    3.0296 S.3       1 <0>         0.0531
     12 C9         -8.0223    1.9770    2.8797 C.2       1 <0>        -0.2079
     13 C10        -8.9445    2.2293    3.8504 C.2       1 <0>         0.0730
     14 N2        -10.1733    2.5704    3.5096 N.2       1 <0>        -0.4781
     15 C11       -10.5307    2.6731    2.2430 C.2       1 <0>         0.3098
     16 S2         -9.0031    2.2599    1.4114 S.3       1 <0>         0.0397
     17 N3        -11.7659    3.0158    1.7000 N.am      1 <0>        -0.6146
     18 C12       -12.8034    3.3002    2.5119 C.2       1 <0>         0.5107
     19 O2        -12.6609    3.2576    3.7157 O.2       1 <0>        -0.4551
     20 C13       -14.1405    3.6713    1.9241 C.3       1 <0>        -0.1149
     21 C14       -13.9915    4.9332    1.0698 C.3       1 <0>        -0.1461
     22 C15       -15.3628    5.3397    0.5255 C.3       1 <0>         0.0009
     23 C16       -16.4761    4.3789    2.4515 C.3       1 <0>        -0.0009
     24 C17       -15.1380    3.9438    3.0534 C.3       1 <0>        -0.1323
     25 H1          0.0021   -0.0041    0.0020 H         1 <0>         0.0648
     26 H2          1.0099    1.4631    0.0003 H         1 <0>         0.0750
     27 H3         -0.5399    1.4469   -0.8751 H         1 <0>         0.0608
     28 H4          1.0337    1.4497    2.4986 H         1 <0>         0.0751
     29 H5         -0.4990    1.4239    3.4031 H         1 <0>         0.0616
     30 H6          0.0259   -0.0175    2.5003 H         1 <0>         0.0649
     31 H7         -1.2768    3.4701    0.3922 H         1 <0>         0.0605
     32 H8         -1.2598    3.4606    2.1720 H         1 <0>         0.0616
     33 H9          0.2730    3.4864    1.2675 H         1 <0>         0.0706
     34 H10        -1.8578   -1.0876    1.2633 H         1 <0>         0.1891
     35 H11        -5.8813    2.3140    0.8053 H         1 <0>         0.1204
     36 H12        -6.3553    0.5983    0.8010 H         1 <0>         0.1329
     37 H13        -8.6718    2.1504    4.8925 H         1 <0>         0.1794
     38 H14       -11.8799    3.0499    0.7373 H         1 <0>         0.4267
     39 H15       -14.5061    2.8521    1.3049 H         1 <0>         0.1234
     40 H16       -13.5885    5.7409    1.6809 H         1 <0>         0.0995
     41 H17       -13.3151    4.7324    0.2390 H         1 <0>         0.1172
     42 H18       -15.7590    4.5372   -0.0967 H         1 <0>         0.1349
     43 H19       -15.2623    6.2461   -0.0715 H         1 <0>         0.1387
     44 H20       -16.8671    3.5809    1.8204 H         1 <0>         0.1334
     45 H21       -17.1842    4.5877    3.2534 H         1 <0>         0.1392
     46 H22       -15.2808    3.0361    3.6398 H         1 <0>         0.1229
     47 H23       -14.7528    4.7354    3.6961 H         1 <0>         0.1008
     48 N4        -16.2857    5.6006    1.6466 N.4       1 <0>        -0.5187
     49 H24       -17.1928    5.9050    1.2741 H         1 <0>         0.4395
     50 H25       -15.8944    6.3401    2.2417 H         1 <0>         0.4347
@<TRIPOS>BOND
     1    1    2 1
     2    1   25 1
     3    1   26 1
     4    1   27 1
     5    2    3 1
     6    2    4 1
     7    2    5 1
     8    3   28 1
     9    3   29 1
    10    3   30 1
    11    4   31 1
    12    4   32 1
    13    4   33 1
    14    5    9 1
    15    5    6 2
    16    6    7 1
    17    6   34 1
    18    7    8 2
    19    8    9 1
    20    8   10 1
    21   10   11 1
    22   10   35 1
    23   10   36 1
    24   11   12 1
    25   12   16 1
    26   12   13 2
    27   13   14 1
    28   13   37 1
    29   14   15 2
    30   15   16 1
    31   15   17 1
    32   17   18 am
    33   17   38 1
    34   18   19 2
    35   18   20 1
    36   20   24 1
    37   20   21 1
    38   20   39 1
    39   21   22 1
    40   21   40 1
    41   21   41 1
    42   22   42 1
    43   22   43 1
    44   22   48 1
    45   23   24 1
    46   23   44 1
    47   23   45 1
    48   23   48 1
    49   24   46 1
    50   24   47 1
    51   48   49 1
    52   48   50 1
@<TRIPOS>MOLECULE
ZINC02047389
   35    37     0     0     0
SMALL
USER_CHARGES
4-(2-amino-4-methyl-thiazol-5-yl)-N-(3-nitrophenyl)-pyrimidin-2-amine
@<TRIPOS>ATOM
      1 C1         -0.3352    9.7451    0.3855 C.3       1 <0>        -0.0905
      2 C2          1.0683   10.2863    0.4765 C.2       1 <0>         0.1892
      3 C3          2.1516    9.4456    0.4437 C.2       1 <0>        -0.2443
      4 S1          3.4879   10.6229    0.5913 S.3       1 <0>         0.0803
      5 C4          2.5163   12.0599    0.6693 C.2       1 <0>         0.3677
      6 N1          1.2883   11.5754    0.5891 N.2       1 <0>        -0.5897
      7 N2          2.9227   13.3752    0.7905 N.pl3     1 <0>        -0.7863
      8 C5          2.1999    7.9776    0.3258 C.ar      1 <0>         0.3332
      9 C6          3.4297    7.3038    0.3117 C.ar      1 <0>        -0.2707
     10 C7          3.4239    5.9278    0.2000 C.ar      1 <0>         0.2012
     11 N3          2.2663    5.2881    0.1154 N.ar      1 <0>        -0.5701
     12 C8          1.1176    5.9489    0.1256 C.ar      1 <0>         0.5646
     13 N4          1.0742    7.2675    0.2311 N.ar      1 <0>        -0.5547
     14 N5         -0.0691    5.2405    0.0290 N.pl3     1 <0>        -0.6363
     15 C9         -0.0510    3.8425    0.0333 C.ar      1 <0>         0.1760
     16 C10        -0.9835    3.1319   -0.7120 C.ar      1 <0>        -0.1004
     17 C11        -0.9631    1.7513   -0.7052 C.ar      1 <0>        -0.0922
     18 C12        -0.0158    1.0757    0.0425 C.ar      1 <0>        -0.0777
     19 C13         0.9104    1.7799    0.7896 C.ar      1 <0>        -0.0222
     20 C14         0.8989    3.1611    0.7830 C.ar      1 <0>        -0.0570
     21 N6          1.9186    1.0527    1.5932 N.pl3     1 <0>         0.0280
     22 O1          1.9320   -0.1652    1.5961 O.2       1 <0>        -0.1580
     23 O2          2.7348    1.6723    2.2515 O.3       1 <0>        -0.1552
     24 H1         -0.7077    9.5307    1.3872 H         1 <0>         0.0791
     25 H2         -0.9794   10.4840   -0.0912 H         1 <0>         0.0712
     26 H3         -0.3338    8.8291   -0.2054 H         1 <0>         0.0997
     27 H4          2.2629   14.0853    0.8267 H         1 <0>         0.4203
     28 H5          3.8677   13.5883    0.8394 H         1 <0>         0.4243
     29 H6          4.3593    7.8485    0.3862 H         1 <0>         0.1461
     30 H7          4.3533    5.3778    0.1861 H         1 <0>         0.1761
     31 H8         -0.9125    5.7144   -0.0416 H         1 <0>         0.4300
     32 H9         -1.7237    3.6588   -1.2958 H         1 <0>         0.1460
     33 H10        -1.6880    1.1983   -1.2841 H         1 <0>         0.1526
     34 H11        -0.0023   -0.0042    0.0464 H         1 <0>         0.1544
     35 H12         1.6253    3.7105    1.3635 H         1 <0>         0.1650
@<TRIPOS>BOND
     1    1    2 1
     2    1   24 1
     3    1   25 1
     4    1   26 1
     5    2    6 1
     6    2    3 2
     7    3    4 1
     8    3    8 1
     9    4    5 1
    10    5    6 2
    11    5    7 1
    12    7   27 1
    13    7   28 1
    14    8   13 ar
    15    8    9 ar
    16    9   10 ar
    17    9   29 1
    18   10   11 ar
    19   10   30 1
    20   11   12 ar
    21   12   13 ar
    22   12   14 1
    23   14   15 1
    24   14   31 1
    25   15   20 ar
    26   15   16 ar
    27   16   17 ar
    28   16   32 1
    29   17   18 ar
    30   17   33 1
    31   18   19 ar
    32   18   34 1
    33   19   20 ar
    34   19   21 1
    35   20   35 1
    36   21   22 2
    37   21   23 1
@<TRIPOS>MOLECULE
ZINC03924157
   42    44     0     0     0
SMALL
USER_CHARGES

@<TRIPOS>ATOM
      1 C1          0.0101    1.6421    0.3204 C.3       1 <0>        -0.1518
      2 C2          0.1186    0.1164    0.3567 C.3       1 <0>        -0.1211
      3 C3         -1.2696   -0.4983    0.1673 C.3       1 <0>        -0.1176
      4 C4         -1.1611   -2.0240    0.2036 C.3       1 <0>         0.0797
      5 O1         -2.4577   -2.5981    0.0267 O.3       1 <0>        -0.3182
      6 C5         -2.5376   -3.9490    0.0337 C.ar      1 <0>         0.3009
      7 C6         -2.4048   -4.6898   -1.1534 C.ar      1 <0>        -0.2628
      8 C7         -2.1841   -4.3376   -2.5058 C.2       1 <0>         0.1084
      9 N1         -2.1427   -5.4289   -3.2138 N.2       1 <0>        -0.2329
     10 N2         -2.3302   -6.5390   -2.3823 N.pl3     1 <0>        -0.4786
     11 H1         -2.3414   -7.4662   -2.6668 H         1 <0>         0.4513
     12 C8         -2.4941   -6.0931   -1.1008 C.ar      1 <0>         0.3506
     13 N3         -2.7018   -6.7129    0.0590 N.ar      1 <0>        -0.5083
     14 C9         -2.8306   -6.0553    1.1864 C.ar      1 <0>         0.2389
     15 C10        -2.7500   -4.6562    1.2280 C.ar      1 <0>        -0.2892
     16 C11        -2.8911   -3.9380    2.5059 C.2       1 <0>         0.4589
     17 O2         -2.8480   -2.7224    2.5285 O.2       1 <0>        -0.4082
     18 C12        -3.0849   -4.6927    3.7588 C.ar      1 <0>        -0.2304
     19 C13        -1.9802   -5.1967    4.4549 C.ar      1 <0>         0.1655
     20 C14        -2.1710   -5.9025    5.6276 C.ar      1 <0>        -0.1646
     21 C15        -3.4490   -6.1113    6.1138 C.ar      1 <0>        -0.0074
     22 C16        -4.5465   -5.6172    5.4322 C.ar      1 <0>        -0.1646
     23 C17        -4.3741   -4.9038    4.2612 C.ar      1 <0>         0.1694
     24 F1         -5.4470   -4.4168    3.6002 F         1 <0>        -0.1191
     25 C18        -3.6469   -6.8822    7.3935 C.3       1 <0>        -0.1226
     26 F2         -0.7311   -4.9942    3.9816 F         1 <0>        -0.1212
     27 H2          0.9991    2.0800    0.4554 H         1 <0>         0.0572
     28 H3         -0.3975    1.9546   -0.6409 H         1 <0>         0.0562
     29 H4         -0.6486    1.9787    1.1211 H         1 <0>         0.0567
     30 H5          0.7773   -0.2201   -0.4439 H         1 <0>         0.0641
     31 H6          0.5263   -0.1961    1.3181 H         1 <0>         0.0646
     32 H7         -1.9283   -0.1617    0.9679 H         1 <0>         0.0796
     33 H8         -1.6773   -0.1858   -0.7941 H         1 <0>         0.0746
     34 H9         -0.5024   -2.3605   -0.5970 H         1 <0>         0.0581
     35 H10        -0.7534   -2.3365    1.1650 H         1 <0>         0.0597
     36 H11        -2.0700   -3.3333   -2.8863 H         1 <0>         0.2037
     37 H12        -2.9979   -6.6030    2.1020 H         1 <0>         0.1745
     38 H13        -1.3198   -6.2925    6.1659 H         1 <0>         0.1517
     39 H14        -5.5409   -5.7852    5.8188 H         1 <0>         0.1519
     40 H15        -3.6335   -6.1936    8.2383 H         1 <0>         0.0851
     41 H16        -4.6059   -7.3994    7.3615 H         1 <0>         0.0787
     42 H17        -2.8445   -7.6113    7.5063 H         1 <0>         0.0787
@<TRIPOS>BOND
     1    1    2 1
     2    1   27 1
     3    1   28 1
     4    1   29 1
     5    2    3 1
     6    2   30 1
     7    2   31 1
     8    3    4 1
     9    3   32 1
    10    3   33 1
    11    4    5 1
    12    4   34 1
    13    4   35 1
    14    5    6 1
    15    6   15 ar
    16    6    7 ar
    17    7   12 ar
    18    7    8 1
    19    8    9 2
    20    8   36 1
    21    9   10 1
    22   10   11 1
    23   10   12 1
    24   12   13 ar
    25   13   14 ar
    26   14   15 ar
    27   14   37 1
    28   15   16 1
    29   16   17 2
    30   16   18 1
    31   18   23 ar
    32   18   19 ar
    33   19   20 ar
    34   19   26 1
    35   20   21 ar
    36   20   38 1
    37   21   22 ar
    38   21   25 1
    39   22   23 ar
    40   22   39 1
    41   23   24 1
    42   25   40 1
    43   25   41 1
    44   25   42 1
@<TRIPOS>MOLECULE
ZINC03924157
   43    45     0     0     0
SMALL
USER_CHARGES
(4-butoxy-1H-pyrazolo[4,3-e]pyridin-5-yl)-(2,6-difluoro-4-methyl-phenyl)methanone
@<TRIPOS>ATOM
      1 C1          0.1011    1.4806    2.6683 C.3       1 <0>        -0.1549
      2 C2         -0.6446    2.0412    1.4556 C.3       1 <0>        -0.1207
      3 C3         -0.1038    1.3925    0.1798 C.3       1 <0>        -0.1215
      4 C4         -0.8495    1.9532   -1.0328 C.3       1 <0>         0.0785
      5 O1         -0.3443    1.3474   -2.2245 O.3       1 <0>        -0.3140
      6 C5         -0.9012    1.7362   -3.3949 C.ar      1 <0>         0.4111
      7 C6         -2.0154    1.0643   -3.9269 C.ar      1 <0>        -0.2694
      8 C7         -2.7950   -0.0329   -3.4911 C.2       1 <0>         0.2084
      9 N1         -3.7283   -0.2502   -4.3716 N.pl3     1 <0>        -0.3496
     10 N2         -3.6067    0.6639   -5.4245 N.2       1 <0>        -0.2899
     11 H1         -4.4269   -0.9627   -4.3059 H         1 <0>         0.4840
     12 C8         -2.5540    1.4926   -5.1544 C.ar      1 <0>         0.2939
     13 C9         -0.9841    3.1805   -5.3339 C.ar      1 <0>         0.3099
     14 C10        -0.3868    2.8261   -4.1159 C.ar      1 <0>        -0.2802
     15 C11         0.7738    3.5764   -3.6073 C.2       1 <0>         0.4651
     16 O2          1.3236    3.2243   -2.5808 O.2       1 <0>        -0.3775
     17 C12         1.2700    4.7552   -4.3428 C.ar      1 <0>        -0.2569
     18 C13         2.3359    4.6272   -5.2408 C.ar      1 <0>         0.1730
     19 C14         2.7905    5.7357   -5.9298 C.ar      1 <0>        -0.1617
     20 C15         2.2026    6.9710   -5.7256 C.ar      1 <0>         0.0085
     21 C16         1.1524    7.1078   -4.8358 C.ar      1 <0>        -0.1620
     22 C17         0.6813    6.0090   -4.1425 C.ar      1 <0>         0.1663
     23 F1         -0.3449    6.1448   -3.2742 F         1 <0>        -0.1203
     24 C18         2.7091    8.1750   -6.4772 C.3       1 <0>        -0.1304
     25 F2          2.9152    3.4226   -5.4376 F         1 <0>        -0.1166
     26 H2          1.1649    1.6980    2.5730 H         1 <0>         0.0595
     27 H3         -0.2842    1.9427    3.5772 H         1 <0>         0.0624
     28 H4         -0.0462    0.4018    2.7186 H         1 <0>         0.0581
     29 H5         -0.4973    3.1201    1.4053 H         1 <0>         0.0679
     30 H6         -1.7085    1.8239    1.5509 H         1 <0>         0.0661
     31 H7         -0.2512    0.3138    0.2301 H         1 <0>         0.0805
     32 H8          0.9600    1.6100    0.0846 H         1 <0>         0.0867
     33 H9         -1.9133    1.7359   -0.9376 H         1 <0>         0.0715
     34 H10        -0.7021    3.0319   -1.0832 H         1 <0>         0.0743
     35 H11        -2.6394   -0.5972   -2.5835 H         1 <0>         0.2276
     36 H12        -0.5844    4.0107   -5.8971 H         1 <0>         0.2104
     37 H13         3.6099    5.6379   -6.6264 H         1 <0>         0.1579
     38 H14         0.6991    8.0760   -4.6827 H         1 <0>         0.1575
     39 H15         3.4982    8.6577   -5.9008 H         1 <0>         0.0921
     40 H16         3.1051    7.8603   -7.4428 H         1 <0>         0.0832
     41 H17         1.8903    8.8776   -6.6319 H         1 <0>         0.0830
     42 N3         -2.0528    2.5499   -5.8728 N.ar      1 <0>        -0.4936
     43 H18        -2.4634    2.8433   -6.7670 H         1 <0>         0.4819
@<TRIPOS>BOND
     1    1    2 1
     2    1   26 1
     3    1   27 1
     4    1   28 1
     5    2    3 1
     6    2   29 1
     7    2   30 1
     8    3    4 1
     9    3   31 1
    10    3   32 1
    11    4    5 1
    12    4   33 1
    13    4   34 1
    14    5    6 1
    15    6   14 ar
    16    6    7 ar
    17    7   12 ar
    18    7    8 2
    19    8   35 1
    20    8    9 1
    21    9   11 1
    22    9   10 1
    23   10   12 2
    24   12   42 ar
    25   13   14 ar
    26   13   36 1
    27   13   42 ar
    28   14   15 1
    29   15   16 2
    30   15   17 1
    31   17   22 ar
    32   17   18 ar
    33   18   19 ar
    34   18   25 1
    35   19   20 ar
    36   19   37 1
    37   20   21 ar
    38   20   24 1
    39   21   22 ar
    40   21   38 1
    41   22   23 1
    42   24   39 1
    43   24   40 1
    44   24   41 1
    45   42   43 1
@<TRIPOS>MOLECULE
ZINC03924157
   43    45     0     0     0
SMALL
USER_CHARGES
(4-butoxy-1H-pyrazolo[4,3-e]pyridin-5-yl)-(2,6-difluoro-4-methyl-phenyl)methanone
@<TRIPOS>ATOM
      1 C1          0.1188    1.4601    2.6622 C.3       1 <0>        -0.1549
      2 C2         -0.6300    2.0236    1.4528 C.3       1 <0>        -0.1207
      3 C3         -0.0916    1.3790    0.1739 C.3       1 <0>        -0.1217
      4 C4         -0.8405    1.9426   -1.0354 C.3       1 <0>         0.0770
      5 O1         -0.3376    1.3406   -2.2299 O.3       1 <0>        -0.3084
      6 C5         -0.8974    1.7324   -3.3980 C.ar      1 <0>         0.3925
      7 C6         -2.0123    1.0612   -3.9294 C.ar      1 <0>        -0.2235
      8 C7         -2.7901   -0.0379   -3.4950 C.2       1 <0>         0.1449
      9 N1         -3.7283   -0.2502   -4.3716 N.2       1 <0>        -0.1963
     10 N2         -3.6253    0.6831   -5.4094 N.pl3     1 <0>        -0.4569
     11 H1         -4.2245    0.7391   -6.2081 H         1 <0>         0.4740
     12 C8         -2.5659    1.5049   -5.1447 C.ar      1 <0>         0.3467
     13 C9         -0.9921    3.1888   -5.3271 C.ar      1 <0>         0.2797
     14 C10        -0.3797    2.8189   -4.1213 C.ar      1 <0>        -0.2521
     15 C11         0.7906    3.5593   -3.6205 C.2       1 <0>         0.4618
     16 O2          1.3529    3.1940   -2.6055 O.2       1 <0>        -0.3686
     17 C12         1.2813    4.7443   -4.3498 C.ar      1 <0>        -0.2584
     18 C13         2.3344    4.6222   -5.2636 C.ar      1 <0>         0.1737
     19 C14         2.7838    5.7365   -5.9466 C.ar      1 <0>        -0.1616
     20 C15         2.2035    6.9716   -5.7209 C.ar      1 <0>         0.0097
     21 C16         1.1660    7.1025   -4.8154 C.ar      1 <0>        -0.1620
     22 C17         0.7001    5.9980   -4.1278 C.ar      1 <0>         0.1666
     23 F1         -0.3136    6.1280   -3.2442 F         1 <0>        -0.1201
     24 C18         2.7043    8.1819   -6.4662 C.3       1 <0>        -0.1309
     25 F2          2.9063    3.4177   -5.4814 F         1 <0>        -0.1162
     26 H2          1.1823    1.6785    2.5651 H         1 <0>         0.0590
     27 H3         -0.2647    1.9193    3.5733 H         1 <0>         0.0623
     28 H4         -0.0276    0.3810    2.7097 H         1 <0>         0.0588
     29 H5         -0.4836    3.1027    1.4053 H         1 <0>         0.0672
     30 H6         -1.6935    1.8052    1.5499 H         1 <0>         0.0670
     31 H7         -0.2381    0.3000    0.2215 H         1 <0>         0.0824
     32 H8          0.9718    1.5975    0.0769 H         1 <0>         0.0861
     33 H9         -1.9039    1.7242   -0.9384 H         1 <0>         0.0746
     34 H10        -0.6940    3.0216   -1.0830 H         1 <0>         0.0730
     35 H11        -2.6297   -0.6071   -2.5913 H         1 <0>         0.2311
     36 H12        -0.5969    4.0237   -5.8867 H         1 <0>         0.2138
     37 H13         3.5933    5.6433   -6.6553 H         1 <0>         0.1585
     38 H14         0.7185    8.0707   -4.6456 H         1 <0>         0.1579
     39 H15         3.5030    8.6554   -5.8954 H         1 <0>         0.0928
     40 H16         3.0859    7.8764   -7.4405 H         1 <0>         0.0835
     41 H17         1.8862    8.8892   -6.6020 H         1 <0>         0.0832
     42 N3         -2.0681    2.5657   -5.8603 N.ar      1 <0>        -0.5061
     43 H18        -2.4875    2.8681   -6.7473 H         1 <0>         0.4806
@<TRIPOS>BOND
     1    1    2 1
     2    1   26 1
     3    1   27 1
     4    1   28 1
     5    2    3 1
     6    2   29 1
     7    2   30 1
     8    3    4 1
     9    3   31 1
    10    3   32 1
    11    4    5 1
    12    4   33 1
    13    4   34 1
    14    5    6 1
    15    6   14 ar
    16    6    7 ar
    17    7   12 ar
    18    7    8 1
    19    8    9 2
    20    8   35 1
    21    9   10 1
    22   10   11 1
    23   10   12 1
    24   12   42 ar
    25   13   14 ar
    26   13   36 1
    27   13   42 ar
    28   14   15 1
    29   15   16 2
    30   15   17 1
    31   17   22 ar
    32   17   18 ar
    33   18   19 ar
    34   18   25 1
    35   19   20 ar
    36   19   37 1
    37   20   21 ar
    38   20   24 1
    39   21   22 ar
    40   21   38 1
    41   22   23 1
    42   24   39 1
    43   24   40 1
    44   24   41 1
    45   42   43 1
@<TRIPOS>MOLECULE
ZINC03873287
   50    53     0     0     0
SMALL
USER_CHARGES

@<TRIPOS>ATOM
      1 C1          1.0640   -0.4441   -0.7878 C.ar      1 <0>        -0.1410
      2 C2          2.2473    0.2676   -0.8051 C.ar      1 <0>        -0.0006
      3 C3          2.3751    1.4182   -0.0486 C.ar      1 <0>        -0.6984
      4 C4          1.3192    1.8600    0.7275 C.ar      1 <0>         0.0094
      5 C5          0.1332    1.1527    0.7497 C.ar      1 <0>        -0.1704
      6 C6          0.0014   -0.0032   -0.0094 C.ar      1 <0>         0.2324
      7 N1         -1.1980   -0.7210    0.0101 N.pl3     1 <0>        -0.6339
      8 C7         -1.1808   -2.1027   -0.1021 C.ar      1 <0>         0.6156
      9 N2         -2.3307   -2.7504   -0.1982 N.ar      1 <0>        -0.5803
     10 C8         -2.3525   -4.0741   -0.3076 C.ar      1 <0>         0.3394
     11 C9         -1.1370   -4.7803   -0.3202 C.ar      1 <0>        -0.1015
     12 C10         0.0574   -4.0511   -0.2158 C.ar      1 <0>         0.4739
     13 N3         -0.0115   -2.7302   -0.1151 N.ar      1 <0>        -0.6058
     14 O1          1.2559   -4.6825   -0.2224 O.3       1 <0>        -0.2730
     15 C11         2.4214   -3.8631   -0.1117 C.3       1 <0>         0.0667
     16 C12         3.6703   -4.7467   -0.1370 C.3       1 <0>        -0.0863
     17 C13         3.6862   -5.6428    1.1030 C.3       1 <0>        -0.1150
     18 C14         4.9350   -6.5264    1.0776 C.3       1 <0>        -0.1192
     19 C15         6.1845   -5.6434    1.0704 C.3       1 <0>        -0.1224
     20 C16         6.1685   -4.7473   -0.1696 C.3       1 <0>        -0.1175
     21 C17         4.9197   -3.8637   -0.1443 C.3       1 <0>        -0.1128
     22 N4         -1.4413   -6.0963   -0.4395 N.2       1 <0>        -0.4434
     23 C18        -2.7329   -6.2385   -0.4993 C.2       1 <0>         0.2546
     24 N5         -3.3404   -5.0194   -0.4220 N.pl3     1 <0>        -0.5790
     25 H1         -4.2955   -4.8516   -0.4439 H         1 <0>         0.4341
     26 S1          3.8869    2.3230   -0.0731 S.o2      1 <0>         2.7018
     27 O2          3.9389    3.0598    1.1409 O.2       1 <0>        -0.9640
     28 O3          4.9035    1.4050   -0.4512 O.2       1 <0>        -0.9607
     29 N6          3.7731    3.4335   -1.2963 N.pl3     1 <0>        -1.2490
     30 H2          0.9633   -1.3401   -1.3823 H         1 <0>         0.1431
     31 H3          3.0740   -0.0749   -1.4098 H         1 <0>         0.1446
     32 H4          1.4223    2.7589    1.3171 H         1 <0>         0.1468
     33 H5         -0.6908    1.4978    1.3565 H         1 <0>         0.1381
     34 H6         -2.0423   -0.2524    0.1021 H         1 <0>         0.4303
     35 H7          2.4544   -3.1635   -0.9469 H         1 <0>         0.0726
     36 H8          2.3879   -3.3083    0.8259 H         1 <0>         0.0738
     37 H9          3.6584   -5.3669   -1.0334 H         1 <0>         0.0830
     38 H10         3.6980   -5.0227    1.9993 H         1 <0>         0.0614
     39 H11         2.7961   -6.2719    1.1081 H         1 <0>         0.0692
     40 H12         4.9464   -7.1648    1.9610 H         1 <0>         0.0623
     41 H13         4.9232   -7.1466    0.1813 H         1 <0>         0.0626
     42 H14         6.1963   -5.0233    1.9667 H         1 <0>         0.0620
     43 H15         7.0741   -6.2729    1.0524 H         1 <0>         0.0618
     44 H16         7.0587   -4.1182   -0.1747 H         1 <0>         0.0663
     45 H17         6.1567   -5.3675   -1.0659 H         1 <0>         0.0630
     46 H18         4.9084   -3.2253   -1.0277 H         1 <0>         0.0678
     47 H19         4.9315   -3.2436    0.7521 H         1 <0>         0.0678
     48 H20        -3.2485   -7.1825   -0.5967 H         1 <0>         0.2311
     49 H21         4.2460    4.2778   -1.2303 H         1 <0>         0.4215
     50 H22         3.2336    3.2396   -2.0787 H         1 <0>         0.4170
@<TRIPOS>BOND
     1    1    6 ar
     2    1    2 ar
     3    1   30 1
     4    2    3 ar
     5    2   31 1
     6    3    4 ar
     7    3   26 1
     8    4    5 ar
     9    4   32 1
    10    5    6 ar
    11    5   33 1
    12    6    7 1
    13    7    8 1
    14    7   34 1
    15    8   13 ar
    16    8    9 ar
    17    9   10 ar
    18   10   24 1
    19   10   11 ar
    20   11   12 ar
    21   11   22 1
    22   12   13 ar
    23   12   14 1
    24   14   15 1
    25   15   16 1
    26   15   35 1
    27   15   36 1
    28   16   21 1
    29   16   17 1
    30   16   37 1
    31   17   18 1
    32   17   38 1
    33   17   39 1
    34   18   19 1
    35   18   40 1
    36   18   41 1
    37   19   20 1
    38   19   42 1
    39   19   43 1
    40   20   21 1
    41   20   44 1
    42   20   45 1
    43   21   46 1
    44   21   47 1
    45   22   23 2
    46   23   24 1
    47   23   48 1
    48   24   25 1
    49   26   27 2
    50   26   28 2
    51   26   29 1
    52   29   49 1
    53   29   50 1
@<TRIPOS>MOLECULE
ZINC13581272
   63    69     0     0     0
SMALL
USER_CHARGES
3-imidazo[3,2-a]pyridin-3-yl-4-(piperidine-1-carbonylBLAHyl)pyrrole-2,5-dione
@<TRIPOS>ATOM
      1 C1         -1.9985    3.2992    4.3777 C.2       1 <0>        -0.0944
      2 C2         -0.6850    3.1116    4.8310 C.2       1 <0>        -0.1354
      3 C3         -0.2514    1.8748    5.1645 C.2       1 <0>         0.0622
      4 N1         -1.0809    0.7990    5.0652 N.pl3     1 <0>        -0.3380
      5 C4         -2.3691    0.9499    4.6258 C.2       1 <0>         0.2348
      6 C5         -2.8366    2.2284    4.2749 C.2       1 <0>        -0.0812
      7 N2         -2.9579   -0.2445    4.6176 N.2       1 <0>        -0.4890
      8 C6         -2.1076   -1.1667    5.0422 C.2       1 <0>         0.1056
      9 C7         -0.9016   -0.5434    5.3336 C.2       1 <0>        -0.0422
     10 C8          0.3176   -1.1826    5.8265 C.2       1 <0>        -0.0512
     11 C9          0.9976   -2.2556    5.2474 C.2       1 <0>        -0.0001
     12 C10         2.1547   -2.5222    6.1168 C.2       1 <0>         0.5534
     13 O1          2.9897   -3.3876    5.9381 O.2       1 <0>        -0.4357
     14 N3          2.1347   -1.6550    7.1426 N.am      1 <0>        -0.6879
     15 C11         1.0796   -0.8286    7.0446 C.2       1 <0>         0.5587
     16 O2          0.7990    0.0597    7.8241 O.2       1 <0>        -0.4525
     17 C12         0.6321   -2.9743    4.0133 C.2       1 <0>        -0.1485
     18 C13         0.7891   -2.5267    2.7328 C.2       1 <0>         0.1116
     19 N4          0.2994   -3.4469    1.8617 N.pl3     1 <0>        -0.4759
     20 C14        -0.0851   -4.5862    2.5535 C.ar      1 <0>         0.1176
     21 C15         0.0333   -4.3155    3.9227 C.ar      1 <0>        -0.0671
     22 C16        -0.4313   -5.2547    4.8403 C.ar      1 <0>        -0.0773
     23 C17        -0.9438   -6.4509    4.3836 C.ar      1 <0>        -0.1304
     24 C18        -0.9671   -6.7453    3.0266 C.ar      1 <0>        -0.0911
     25 C19        -0.4955   -5.8276    2.1108 C.ar      1 <0>        -0.1030
     26 C20        -0.4074   -6.1795    0.6451 C.3       1 <0>         0.1893
     27 N5          0.8630   -5.6562    0.1231 N.am      1 <0>        -0.6725
     28 C21         0.9987   -4.2759   -0.3422 C.3       1 <0>         0.1090
     29 C22         0.1025   -3.3074    0.4119 C.3       1 <0>         0.1033
     30 C23         1.9346   -6.4720    0.0720 C.2       1 <0>         0.7229
     31 O3          2.3598   -6.9817    1.0907 O.2       1 <0>        -0.5428
     32 N6          2.5350   -6.7227   -1.1083 N.am      1 <0>        -0.6165
     33 C24         2.1507   -5.9799   -2.3163 C.3       1 <0>         0.0888
     34 C25         3.4158   -5.3669   -2.9360 C.3       1 <0>        -0.1357
     35 C26         4.4450   -6.4730   -3.1795 C.3       1 <0>        -0.1204
     36 C27         4.8269   -7.1194   -1.8459 C.3       1 <0>        -0.1357
     37 C28         3.5818   -7.7484   -1.2127 C.3       1 <0>         0.1213
     38 H1         -2.3447    4.2868    4.1110 H         1 <0>         0.1469
     39 H2         -0.0178    3.9568    4.9137 H         1 <0>         0.1546
     40 H3          0.7619    1.7388    5.5125 H         1 <0>         0.1585
     41 H4         -3.8504    2.3613    3.9272 H         1 <0>         0.1554
     42 H5         -2.3150   -2.2220    5.1405 H         1 <0>         0.1872
     43 H6          2.7918   -1.6286    7.8556 H         1 <0>         0.4305
     44 H7          1.2356   -1.5835    2.4545 H         1 <0>         0.1685
     45 H8         -0.3878   -5.0499    5.8998 H         1 <0>         0.1196
     46 H9         -1.3320   -7.1687    5.0910 H         1 <0>         0.1242
     47 H10        -1.3548   -7.6946    2.6876 H         1 <0>         0.1261
     48 H11        -1.2404   -5.7265    0.1075 H         1 <0>         0.0855
     49 H12        -0.4368   -7.2623    0.5238 H         1 <0>         0.0888
     50 H13         0.7460   -4.2359   -1.4018 H         1 <0>         0.0833
     51 H14         2.0358   -3.9650   -0.2169 H         1 <0>         0.0747
     52 H15        -0.9392   -3.5161    0.1680 H         1 <0>         0.0926
     53 H16         0.3420   -2.2871    0.1123 H         1 <0>         0.1081
     54 H17         1.6833   -6.6588   -3.0296 H         1 <0>         0.0679
     55 H18         1.4512   -5.1873   -2.0508 H         1 <0>         0.0987
     56 H19         3.8337   -4.6244   -2.2562 H         1 <0>         0.0643
     57 H20         3.1617   -4.8914   -3.8833 H         1 <0>         0.0754
     58 H21         5.3339   -6.0461   -3.6439 H         1 <0>         0.0660
     59 H22         4.0174   -7.2277   -3.8395 H         1 <0>         0.0652
     60 H23         5.2315   -6.3604   -1.1764 H         1 <0>         0.0657
     61 H24         5.5772   -7.8912   -2.0174 H         1 <0>         0.0766
     62 H25         3.8268   -8.1229   -0.2189 H         1 <0>         0.0932
     63 H26         3.2278   -8.5697   -1.8357 H         1 <0>         0.0682
@<TRIPOS>BOND
     1    1    6 2
     2    1    2 1
     3    1   38 1
     4    2    3 2
     5    2   39 1
     6    3    4 1
     7    3   40 1
     8    4    9 1
     9    4    5 1
    10    5    6 1
    11    5    7 2
    12    6   41 1
    13    7    8 1
    14    8    9 2
    15    8   42 1
    16    9   10 1
    17   10   15 1
    18   10   11 2
    19   11   12 1
    20   11   17 1
    21   12   13 2
    22   12   14 am
    23   14   15 am
    24   14   43 1
    25   15   16 2
    26   17   21 1
    27   17   18 2
    28   18   19 1
    29   18   44 1
    30   19   29 1
    31   19   20 1
    32   20   25 ar
    33   20   21 ar
    34   21   22 ar
    35   22   23 ar
    36   22   45 1
    37   23   24 ar
    38   23   46 1
    39   24   25 ar
    40   24   47 1
    41   25   26 1
    42   26   27 1
    43   26   48 1
    44   26   49 1
    45   27   28 1
    46   27   30 am
    47   28   29 1
    48   28   50 1
    49   28   51 1
    50   29   52 1
    51   29   53 1
    52   30   31 2
    53   30   32 am
    54   32   37 1
    55   32   33 1
    56   33   34 1
    57   33   54 1
    58   33   55 1
    59   34   35 1
    60   34   56 1
    61   34   57 1
    62   35   36 1
    63   35   58 1
    64   35   59 1
    65   36   37 1
    66   36   60 1
    67   36   61 1
    68   37   62 1
    69   37   63 1
@<TRIPOS>MOLECULE
ZINC14779318
   32    35     0     0     0
SMALL
USER_CHARGES
dihydroxy-methoxy-BLAHone
@<TRIPOS>ATOM
      1 C1          4.1070    2.5394   -1.2965 C.3       1 <0>         0.0299
      2 O1          3.5705    2.1853   -0.0203 O.3       1 <0>        -0.3219
      3 C2          2.4248    1.4585   -0.0138 C.ar      1 <0>         0.1293
      4 C3          1.1809    2.0920    0.0020 C.ar      1 <0>         0.0853
      5 C4         -0.0168    1.3864    0.0097 C.ar      1 <0>        -0.0292
      6 C5          0.0021   -0.0041    0.0020 C.ar      1 <0>        -0.1465
      7 C6          1.2569   -0.6254   -0.0134 C.ar      1 <0>        -0.0770
      8 C7          2.4679    0.0596   -0.0214 C.ar      1 <0>        -0.0292
      9 C8          3.6802   -0.7599   -0.0377 C.ar      1 <0>        -0.0230
     10 C9          4.9538   -0.1962   -0.0473 C.ar      1 <0>        -0.1334
     11 C10         6.0641   -1.0174   -0.0628 C.ar      1 <0>         0.1139
     12 C11         5.9141   -2.4048   -0.0697 C.ar      1 <0>        -0.1331
     13 C12         4.6789   -2.9760   -0.0607 C.ar      1 <0>        -0.0856
     14 C13         3.5265   -2.1711   -0.0443 C.ar      1 <0>        -0.0376
     15 C14         2.2461   -2.7753   -0.0351 C.ar      1 <0>        -0.0942
     16 C15         1.1129   -2.0186   -0.0198 C.ar      1 <0>         0.1426
     17 N1         -0.2561   -2.2769   -0.0080 N.am      1 <0>        -0.6534
     18 C16        -0.9550   -1.1133    0.0053 C.2       1 <0>         0.5790
     19 O2         -2.1679   -1.0094    0.0177 O.2       1 <0>        -0.4860
     20 O3          7.3085   -0.4719   -0.0717 O.3       1 <0>        -0.4949
     21 O4          1.1391    3.4516    0.0092 O.3       1 <0>        -0.4850
     22 H1          4.3315    1.6339   -1.8602 H         1 <0>         0.0515
     23 H2          3.3781    3.1369   -1.8440 H         1 <0>         0.0587
     24 H3          5.0208    3.1175   -1.1588 H         1 <0>         0.1041
     25 H4         -0.9581    1.9158    0.0170 H         1 <0>         0.1529
     26 H5          5.0724    0.8773   -0.0426 H         1 <0>         0.1531
     27 H6          6.7913   -3.0346   -0.0827 H         1 <0>         0.1348
     28 H7          4.5836   -4.0518   -0.0666 H         1 <0>         0.1373
     29 H8          2.1663   -3.8523   -0.0407 H         1 <0>         0.1390
     30 H9         -0.6531   -3.1620   -0.0091 H         1 <0>         0.4265
     31 H10         7.6600   -0.3086   -0.9577 H         1 <0>         0.3932
     32 H11         1.1353    3.8403    0.8946 H         1 <0>         0.3986
@<TRIPOS>BOND
     1    1    2 1
     2    1   22 1
     3    1   23 1
     4    1   24 1
     5    2    3 1
     6    3    8 ar
     7    3    4 ar
     8    4    5 ar
     9    4   21 1
    10    5    6 ar
    11    5   25 1
    12    6   18 1
    13    6    7 ar
    14    7   16 ar
    15    7    8 ar
    16    8    9 ar
    17    9   14 ar
    18    9   10 ar
    19   10   11 ar
    20   10   26 1
    21   11   12 ar
    22   11   20 1
    23   12   13 ar
    24   12   27 1
    25   13   14 ar
    26   13   28 1
    27   14   15 ar
    28   15   16 ar
    29   15   29 1
    30   16   17 1
    31   17   18 am
    32   17   30 1
    33   18   19 2
    34   20   31 1
    35   21   32 1
@<TRIPOS>MOLECULE
ZINC18825325
   49    52     0     0     0
SMALL
USER_CHARGES

@<TRIPOS>ATOM
      1 C1         -2.3093    1.0814    2.5547 C.3       1 <0>        -0.0480
      2 N1         -2.0492   -0.3535    2.3782 N.4       1 <0>        -0.3808
      3 C2         -0.6003   -0.5876    2.3558 C.3       1 <0>        -0.0043
      4 C3         -0.3239   -2.0891    2.2535 C.3       1 <0>        -0.1503
      5 C4         -0.9501   -2.6313    0.9655 C.3       1 <0>        -0.0297
      6 H1         -0.4784   -2.1588    0.1039 H         1 <0>         0.1164
      7 C5         -2.4486   -2.3158    0.9659 C.3       1 <0>         0.0899
      8 H2         -2.8911   -2.6493    0.0273 H         1 <0>         0.1052
      9 C6         -2.6463   -0.8058    1.1159 C.3       1 <0>        -0.0399
     10 O1         -3.0781   -2.9910    2.0567 O.3       1 <0>        -0.5391
     11 C7         -0.7476   -4.1230    0.8958 C.ar      1 <0>        -0.1630
     12 C8         -0.2029   -4.6958   -0.2434 C.ar      1 <0>         0.1998
     13 C9         -0.0104   -6.0706   -0.3226 C.ar      1 <0>        -0.2104
     14 C10        -0.3617   -6.8837    0.7393 C.ar      1 <0>         0.2330
     15 C11        -0.9119   -6.3118    1.8931 C.ar      1 <0>        -0.2679
     16 C12        -1.1006   -4.9209    1.9725 C.ar      1 <0>         0.2083
     17 O2         -1.6270   -4.3787    3.0910 O.3       1 <0>        -0.1851
     18 C13        -1.9796   -5.1227    4.1512 C.2       1 <0>         0.1841
     19 C14        -1.8330   -6.4738    4.1772 C.2       1 <0>        -0.2771
     20 C15        -1.3005   -7.1402    3.0468 C.2       1 <0>         0.4189
     21 O3         -1.1553   -8.3518    3.0351 O.2       1 <0>        -0.4398
     22 C16        -2.5478   -4.4476    5.3347 C.ar      1 <0>        -0.0545
     23 C17        -1.7640   -3.5673    6.0843 C.ar      1 <0>        -0.0804
     24 C18        -2.3013   -2.9397    7.1883 C.ar      1 <0>        -0.1170
     25 C19        -3.6144   -3.1798    7.5551 C.ar      1 <0>        -0.0831
     26 C20        -4.3973   -4.0498    6.8185 C.ar      1 <0>        -0.1070
     27 C21        -3.8744   -4.6817    5.7071 C.ar      1 <0>        -0.0070
     28 Cl1        -4.8604   -5.7681    4.7791 Cl        1 <0>        -0.0419
     29 O4         -0.1750   -8.2258    0.6637 O.3       1 <0>        -0.4711
     30 O5          0.1455   -3.9068   -1.2916 O.3       1 <0>        -0.4863
     31 H3         -3.3850    1.2556    2.5781 H         1 <0>         0.1231
     32 H4         -1.8662    1.4184    3.4919 H         1 <0>         0.1245
     33 H5         -1.8695    1.6351    1.7252 H         1 <0>         0.1223
     34 H6         -0.1638   -0.0788    1.4963 H         1 <0>         0.1288
     35 H7         -0.1557   -0.1983    3.2717 H         1 <0>         0.1325
     36 H8          0.7524   -2.2606    2.2353 H         1 <0>         0.1117
     37 H9         -0.7598   -2.5988    3.1128 H         1 <0>         0.1099
     38 H10        -3.7122   -0.5777    1.1164 H         1 <0>         0.1341
     39 H11        -2.1662   -0.2925    0.2828 H         1 <0>         0.1386
     40 H12        -4.0306   -2.8359    2.1183 H         1 <0>         0.3859
     41 H13         0.4142   -6.5045   -1.2159 H         1 <0>         0.1533
     42 H14        -2.1292   -7.0362    5.0503 H         1 <0>         0.1601
     43 H15        -0.7393   -3.3789    5.8001 H         1 <0>         0.1361
     44 H16        -1.6959   -2.2592    7.7687 H         1 <0>         0.1389
     45 H17        -4.0293   -2.6854    8.4210 H         1 <0>         0.1417
     46 H18        -5.4208   -4.2327    7.1106 H         1 <0>         0.1452
     47 H19         0.6892   -8.5212    0.9815 H         1 <0>         0.4083
     48 H20         1.0780   -3.6509   -1.2985 H         1 <0>         0.4048
     49 H21        -2.4587   -0.8654    3.1453 H         1 <0>         0.4284
@<TRIPOS>BOND
     1    1    2 1
     2    1   31 1
     3    1   32 1
     4    1   33 1
     5    2    9 1
     6    2    3 1
     7    2   49 1
     8    3    4 1
     9    3   34 1
    10    3   35 1
    11    4    5 1
    12    4   36 1
    13    4   37 1
    14    5    6 1
    15    5    7 1
    16    5   11 1
    17    7    8 1
    18    7    9 1
    19    7   10 1
    20    9   38 1
    21    9   39 1
    22   10   40 1
    23   11   16 ar
    24   11   12 ar
    25   12   13 ar
    26   12   30 1
    27   13   14 ar
    28   13   41 1
    29   14   15 ar
    30   14   29 1
    31   15   20 1
    32   15   16 ar
    33   16   17 1
    34   17   18 1
    35   18   19 2
    36   18   22 1
    37   19   20 1
    38   19   42 1
    39   20   21 2
    40   22   27 ar
    41   22   23 ar
    42   23   24 ar
    43   23   43 1
    44   24   25 ar
    45   24   44 1
    46   25   26 ar
    47   25   45 1
    48   26   27 ar
    49   26   46 1
    50   27   28 1
    51   29   47 1
    52   30   48 1
@<TRIPOS>MOLECULE
ZINC21288966
   49    52     0     0     0
SMALL
USER_CHARGES
2-(2-chlorophenyl)-5,7-dihydroxy-8-[(3S,4R)-3-hydroxy-1-methyl-4-piperidyl]chromen-4-one
@<TRIPOS>ATOM
      1 C1          6.0895   -0.0238    5.9621 C.3       1 <0>        -0.0460
      2 N1          6.1756    1.0472    4.9603 N.4       1 <0>        -0.3934
      3 C2          5.9739    0.5180    3.6055 C.3       1 <0>        -0.0028
      4 C3          6.2126    1.6289    2.5802 C.3       1 <0>        -0.1464
      5 C4          5.2418    2.7821    2.8491 C.3       1 <0>        -0.0180
      6 H1          4.2050    2.4431    2.7074 H         1 <0>         0.1039
      7 C5          5.4391    3.2830    4.2825 C.3       1 <0>         0.1015
      8 H2          4.7709    4.1271    4.5084 H         1 <0>         0.0941
      9 C6          5.2218    2.1236    5.2574 C.3       1 <0>        -0.0361
     10 O1          6.7669    3.7898    4.4323 O.3       1 <0>        -0.5639
     11 C7          5.5132    3.9050    1.8814 C.ar      1 <0>        -0.2158
     12 C8          6.8017    4.3949    1.7322 C.ar      1 <0>         0.2946
     13 C9          7.0678    5.4304    0.8434 C.ar      1 <0>        -0.3049
     14 C10         6.0448    5.9841    0.0956 C.ar      1 <0>         0.3111
     15 C11         4.7411    5.4942    0.2412 C.ar      1 <0>        -0.3649
     16 C12         4.4748    4.4470    1.1407 C.ar      1 <0>         0.2362
     17 O2          3.2147    3.9814    1.2730 O.3       1 <0>        -0.2171
     18 C13         2.1871    4.4838    0.5705 C.2       1 <0>         0.1982
     19 C14         2.3394    5.4926   -0.3277 C.2       1 <0>        -0.2780
     20 C15         3.6225    6.0546   -0.5353 C.2       1 <0>         0.4382
     21 O3          3.7953    6.9641   -1.3304 O.2       1 <0>        -0.4786
     22 C16         0.8407    3.9147    0.7769 C.ar      1 <0>        -0.0680
     23 C17         0.6478    2.5322    0.7263 C.ar      1 <0>        -0.0708
     24 C18        -0.6124    2.0073    0.9205 C.ar      1 <0>        -0.1159
     25 C19        -1.6867    2.8467    1.1599 C.ar      1 <0>        -0.0780
     26 C20        -1.5036    4.2164    1.2169 C.ar      1 <0>        -0.1066
     27 C21        -0.2472    4.7566    1.0243 C.ar      1 <0>        -0.0057
     28 Cl1        -0.0199    6.4765    1.0889 Cl        1 <0>        -0.0424
     29 O4          6.3024    6.9947   -0.7728 O.3       1 <0>        -0.4999
     30 O5          7.8133    3.8585    2.4614 O.3       1 <0>        -0.4665
     31 H3          6.8128   -0.8151    5.7159 H         1 <0>         0.1242
     32 H4          5.0728   -0.4438    5.9634 H         1 <0>         0.1169
     33 H5          6.3184    0.3856    6.9571 H         1 <0>         0.1225
     34 H6          6.6809   -0.3050    3.4243 H         1 <0>         0.1308
     35 H7          4.9438    0.1448    3.5072 H         1 <0>         0.1211
     36 H8          7.2477    1.9910    2.6662 H         1 <0>         0.1216
     37 H9          6.0450    1.2349    1.5669 H         1 <0>         0.1057
     38 H10         4.1951    1.7434    5.1512 H         1 <0>         0.1298
     39 H11         5.3771    2.4772    6.2874 H         1 <0>         0.1312
     40 H12         7.0946    4.1958    5.4007 H         1 <0>         0.4106
     41 H13         8.0758    5.8030    0.7365 H         1 <0>         0.1471
     42 H14         1.4871    5.8659   -0.8759 H         1 <0>         0.1670
     43 H15         1.4839    1.8757    0.5352 H         1 <0>         0.1384
     44 H16        -0.7625    0.9385    0.8812 H         1 <0>         0.1407
     45 H17        -2.6721    2.4298    1.3071 H         1 <0>         0.1438
     46 H18        -2.3456    4.8651    1.4082 H         1 <0>         0.1476
     47 H19         5.4855    7.4321   -1.3656 H         1 <0>         0.4556
     48 H20         8.8375    4.2431    2.3473 H         1 <0>         0.4397
     49 H21         7.1882    1.4744    5.0059 H         1 <0>         0.4481
@<TRIPOS>BOND
     1    1    2 1
     2    1   31 1
     3    1   32 1
     4    1   33 1
     5    2    9 1
     6    2    3 1
     7    2   49 1
     8    3    4 1
     9    3   34 1
    10    3   35 1
    11    4    5 1
    12    4   36 1
    13    4   37 1
    14    5    6 1
    15    5    7 1
    16    5   11 1
    17    7    8 1
    18    7    9 1
    19    7   10 1
    20    9   38 1
    21    9   39 1
    22   10   40 1
    23   11   16 ar
    24   11   12 ar
    25   12   13 ar
    26   12   30 1
    27   13   14 ar
    28   13   41 1
    29   14   15 ar
    30   14   29 1
    31   15   20 1
    32   15   16 ar
    33   16   17 1
    34   17   18 1
    35   18   19 2
    36   18   22 1
    37   19   20 1
    38   19   42 1
    39   20   21 2
    40   22   27 ar
    41   22   23 ar
    42   23   24 ar
    43   23   43 1
    44   24   25 ar
    45   24   44 1
    46   25   26 ar
    47   25   45 1
    48   26   27 ar
    49   26   46 1
    50   27   28 1
    51   29   47 1
    52   30   48 1
@<TRIPOS>MOLECULE
ZINC16052857
   43    45     0     0     0
SMALL
USER_CHARGES

@<TRIPOS>ATOM
      1 C1         -0.0167    1.3791    0.0096 C.ar      1 <0>        -0.0698
      2 C2          1.1675    2.0941    0.0022 C.ar      1 <0>        -0.1041
      3 C3          2.3786    1.4307   -0.0134 C.ar      1 <0>         0.0046
      4 C4          2.4058    0.0335   -0.0211 C.ar      1 <0>        -0.1178
      5 C5          1.2052   -0.6817   -0.0130 C.ar      1 <0>         0.0046
      6 C6          0.0021   -0.0041    0.0020 C.ar      1 <0>        -0.1044
      7 Cl1         1.2262   -2.4176   -0.0230 Cl        1 <0>        -0.0391
      8 C7          3.6966   -0.6835   -0.0382 C.2       1 <0>         0.5702
      9 O1          4.2389   -0.9843    1.0077 O.2       1 <0>        -0.4955
     10 N1          4.2737   -1.0045   -1.2131 N.am      1 <0>        -0.6213
     11 C8          5.4999   -1.6856   -1.2294 C.2       1 <0>         0.0911
     12 C9          6.2283   -2.0967   -0.1573 C.2       1 <0>        -0.0188
     13 N2          7.3381   -2.7109   -0.6417 N.pl3     1 <0>        -0.3624
     14 N3          7.3278   -2.6979   -1.9261 N.2       1 <0>        -0.2395
     15 H1          8.0379   -3.1031   -0.0964 H         1 <0>         0.4576
     16 C10         6.2398   -2.0971   -2.3681 C.2       1 <0>        -0.0478
     17 C11         5.8651   -1.8890   -3.7795 C.2       1 <0>         0.6212
     18 O2          4.8300   -1.3136   -4.0552 O.2       1 <0>        -0.5297
     19 N4          6.6700   -2.3365   -4.7635 N.am      1 <0>        -0.7176
     20 C12         6.2978   -2.1298   -6.1652 C.3       1 <0>         0.1360
     21 C13         5.3719   -3.2611   -6.6214 C.3       1 <0>        -0.1646
     22 C14         5.0512   -3.0827   -8.1069 C.3       1 <0>        -0.0030
     23 N5          6.2937   -3.1206   -8.8874 N.4       1 <0>        -0.5069
     24 C15         7.1562   -1.9960   -8.5056 C.3       1 <0>        -0.0012
     25 C16         7.5579   -2.1325   -7.0354 C.3       1 <0>        -0.1589
     26 Cl2         3.8634    2.3301   -0.0239 Cl        1 <0>        -0.0379
     27 H2         -0.9607    1.9035    0.0260 H         1 <0>         0.1529
     28 H3          1.1449    3.1738    0.0081 H         1 <0>         0.1516
     29 H4         -0.9266   -0.5554    0.0079 H         1 <0>         0.1514
     30 H5          3.8411   -0.7645   -2.0475 H         1 <0>         0.4255
     31 H6          5.9726   -1.9600    0.8831 H         1 <0>         0.2119
     32 H7          7.4957   -2.7955   -4.5435 H         1 <0>         0.4145
     33 H8          5.7852   -1.1734   -6.2690 H         1 <0>         0.1086
     34 H9          5.8665   -4.2203   -6.4685 H         1 <0>         0.0925
     35 H10         4.4482   -3.2309   -6.0434 H         1 <0>         0.1186
     36 H11         4.3919   -3.8864   -8.4349 H         1 <0>         0.1375
     37 H12         4.5564   -2.1234   -8.2587 H         1 <0>         0.1346
     38 H13         6.7757   -3.9887   -8.7085 H         1 <0>         0.4286
     39 H14         8.0511   -1.9974   -9.1280 H         1 <0>         0.1397
     40 H15         6.6166   -1.0598   -8.6489 H         1 <0>         0.1351
     41 H16         8.1968   -1.2957   -6.7534 H         1 <0>         0.1209
     42 H17         8.0979   -3.0683   -6.8911 H         1 <0>         0.0965
     43 H18         6.0744   -3.0564   -9.8702 H         1 <0>         0.4344
@<TRIPOS>BOND
     1    1    6 ar
     2    1    2 ar
     3    1   27 1
     4    2    3 ar
     5    2   28 1
     6    3    4 ar
     7    3   26 1
     8    4    5 ar
     9    4    8 1
    10    5    6 ar
    11    5    7 1
    12    6   29 1
    13    8    9 2
    14    8   10 am
    15   10   30 1
    16   10   11 1
    17   11   16 1
    18   11   12 2
    19   12   31 1
    20   12   13 1
    21   13   14 1
    22   13   15 1
    23   14   16 2
    24   16   17 1
    25   17   18 2
    26   17   19 am
    27   19   20 1
    28   19   32 1
    29   20   25 1
    30   20   21 1
    31   20   33 1
    32   21   22 1
    33   21   34 1
    34   21   35 1
    35   22   23 1
    36   22   36 1
    37   22   37 1
    38   23   24 1
    39   23   38 1
    40   23   43 1
    41   24   25 1
    42   24   39 1
    43   24   40 1
    44   25   41 1
    45   25   42 1
@<TRIPOS>MOLECULE
ZINC40917261
   45    47     0     0     0
SMALL
USER_CHARGES

@<TRIPOS>ATOM
      1 C1         -0.9111    0.9663    0.0329 C.3       1 <0>        -0.1502
      2 C2         -0.5545   -0.5215    0.0517 C.3       1 <0>        -0.1238
      3 C3          0.1967   -0.8821   -1.2314 C.3       1 <0>         0.0492
      4 O1          0.5298   -2.2716   -1.2138 O.3       1 <0>        -0.2856
      5 C4          1.2054   -2.7587   -2.2902 C.2       1 <0>        -0.0167
      6 C5          1.5405   -1.9413   -3.3167 C.2       1 <0>         0.0133
      7 N1          2.2146   -2.4235   -4.3934 N.pl3     1 <0>        -0.5637
      8 C6          2.5722   -3.7273   -4.4778 C.2       1 <0>         0.1468
      9 C7          2.2676   -4.5941   -3.4861 C.2       1 <0>        -0.2623
     10 C8          1.5724   -4.1272   -2.3483 C.2       1 <0>         0.3989
     11 O2          1.2886   -4.8886   -1.4344 O.2       1 <0>        -0.4951
     12 C9          3.3183   -4.2174   -5.6920 C.3       1 <0>         0.1326
     13 N2          2.4596   -4.0998   -6.8732 N.pl3     1 <0>        -0.6841
     14 C10         2.9231   -4.4846   -8.0910 C.2       1 <0>         0.2914
     15 C11         2.1618   -4.2666   -9.2179 C.2       1 <0>        -0.3338
     16 C12         2.5460   -4.8499  -10.5202 C.ar      1 <0>         0.0626
     17 C13         3.6824   -5.6372  -10.6624 C.ar      1 <0>        -0.1161
     18 C14         3.9983   -6.1603  -11.9005 C.ar      1 <0>        -0.0516
     19 C15         3.1910   -5.9051  -13.0004 C.ar      1 <0>        -0.1182
     20 C16         2.0609   -5.1264  -12.8784 C.ar      1 <0>        -0.0249
     21 C17         1.7232   -4.5890  -11.6357 C.ar      1 <0>        -0.1540
     22 C18         0.5268   -3.7554  -11.4624 C.2       1 <0>         0.5717
     23 O3         -0.1869   -3.5273  -12.4207 O.2       1 <0>        -0.4994
     24 N3          0.2071   -3.2410  -10.2638 N.am      1 <0>        -0.6631
     25 C19         0.9417   -3.4534   -9.1598 C.2       1 <0>         0.5859
     26 O4          0.5944   -2.9626   -8.1012 O.2       1 <0>        -0.5412
     27 I1          5.7101   -7.3479  -12.1208 I         1 <0>        -0.0278
     28 H1          0.0020    1.5580   -0.0320 H         1 <0>         0.0573
     29 H2         -1.5431    1.1775   -0.8297 H         1 <0>         0.0575
     30 H3         -1.4463    1.2232    0.9471 H         1 <0>         0.0666
     31 H4          0.0775   -0.7327    0.9143 H         1 <0>         0.0759
     32 H5         -1.4676   -1.1132    0.1167 H         1 <0>         0.0760
     33 H6         -0.4352   -0.6708   -2.0940 H         1 <0>         0.0615
     34 H7          1.1098   -0.2904   -1.2964 H         1 <0>         0.0612
     35 H8          1.2692   -0.8966   -3.2793 H         1 <0>         0.1674
     36 H9          2.5560   -5.6322   -3.5613 H         1 <0>         0.1599
     37 H10         2.4445   -1.8208   -5.1178 H         1 <0>         0.4225
     38 H11         4.2161   -3.6159   -5.8341 H         1 <0>         0.1030
     39 H12         3.5989   -5.2610   -5.5493 H         1 <0>         0.1152
     40 H13         1.5602   -3.7472   -6.7858 H         1 <0>         0.4261
     41 H14         3.8885   -4.9613   -8.1754 H         1 <0>         0.1686
     42 H15         4.3144   -5.8384   -9.8101 H         1 <0>         0.1361
     43 H16         3.4518   -6.3211  -13.9624 H         1 <0>         0.1390
     44 H17         1.4391   -4.9336  -13.7402 H         1 <0>         0.1482
     45 H18        -0.5916   -2.6954  -10.1914 H         1 <0>         0.4174
@<TRIPOS>BOND
     1    1    2 1
     2    1   28 1
     3    1   29 1
     4    1   30 1
     5    2    3 1
     6    2   31 1
     7    2   32 1
     8    3   33 1
     9    3   34 1
    10    3    4 1
    11    4    5 1
    12    5   10 1
    13    5    6 2
    14    6    7 1
    15    6   35 1
    16    7   37 1
    17    7    8 1
    18    8   12 1
    19    8    9 2
    20    9   36 1
    21    9   10 1
    22   10   11 2
    23   12   13 1
    24   12   38 1
    25   12   39 1
    26   13   14 1
    27   13   40 1
    28   14   15 2
    29   14   41 1
    30   15   25 1
    31   15   16 1
    32   16   21 ar
    33   16   17 ar
    34   17   18 ar
    35   17   42 1
    36   18   19 ar
    37   18   27 1
    38   19   20 ar
    39   19   43 1
    40   20   21 ar
    41   20   44 1
    42   21   22 1
    43   22   23 2
    44   22   24 am
    45   24   25 am
    46   24   45 1
    47   25   26 2
@<TRIPOS>MOLECULE
ZINC16721243
   50    53     0     0     0
SMALL
USER_CHARGES

@<TRIPOS>ATOM
      1 C1         -2.5599   -0.8991   -0.1135 C.3       1 <0>        -0.0473
      2 N1         -1.0992   -1.0178   -0.0135 N.4       1 <0>        -0.3839
      3 C2         -0.7562   -1.8625    1.1375 C.3       1 <0>        -0.0233
      4 C3          0.7659   -1.8938    1.3113 C.3       1 <0>         0.0992
      5 N2          1.3716   -2.3229    0.0413 N.pl3     1 <0>        -0.6446
      6 C4          0.9583   -1.6345   -1.1914 C.3       1 <0>         0.0989
      7 C5         -0.5728   -1.6155   -1.2471 C.3       1 <0>        -0.0234
      8 C6          2.3140   -3.3558    0.0067 C.ar      1 <0>         0.1782
      9 C7          2.7899   -3.8213   -1.2124 C.ar      1 <0>        -0.1486
     10 C8          3.7197   -4.8410   -1.2466 C.ar      1 <0>        -0.1034
     11 C9          4.1799   -5.4013   -0.0617 C.ar      1 <0>         0.1088
     12 C10         3.7043   -4.9354    1.1576 C.ar      1 <0>        -0.1107
     13 C11         2.7784   -3.9121    1.1918 C.ar      1 <0>        -0.1458
     14 N3          5.1220   -6.4352   -0.0963 N.pl3     1 <0>        -0.6274
     15 C12         5.5722   -6.9833    1.0628 C.2       1 <0>         0.2691
     16 C13         6.6016   -7.8992    1.0378 C.2       1 <0>        -0.3076
     17 C14         7.6108   -7.8800   -0.0412 C.ar      1 <0>         0.0392
     18 C15         7.5656   -6.9449   -1.0690 C.ar      1 <0>        -0.1769
     19 C16         8.5320   -6.9681   -2.0535 C.ar      1 <0>        -0.0631
     20 C17         9.5450   -7.9157   -2.0250 C.ar      1 <0>        -0.1450
     21 C18         9.6061   -8.8509   -1.0146 C.ar      1 <0>        -0.0266
     22 C19         8.6393   -8.8445   -0.0086 C.ar      1 <0>        -0.1619
     23 C20         8.6682   -9.8225    1.0866 C.2       1 <0>         0.5697
     24 O1          9.5530  -10.6565    1.1204 O.2       1 <0>        -0.4988
     25 N4          7.7343   -9.8111    2.0516 N.am      1 <0>        -0.6647
     26 C21         6.7315   -8.9185    2.0852 C.2       1 <0>         0.5879
     27 O2          5.9190   -8.9587    2.9911 O.2       1 <0>        -0.5221
     28 H1         -2.9961   -1.8882   -0.2536 H         1 <0>         0.1219
     29 H2         -2.9519   -0.4555    0.8017 H         1 <0>         0.1257
     30 H3         -2.8157   -0.2657   -0.9629 H         1 <0>         0.1255
     31 H4         -1.2165   -1.4549    2.0375 H         1 <0>         0.1419
     32 H5         -1.1234   -2.8747    0.9677 H         1 <0>         0.1328
     33 H6          1.1254   -0.8980    1.5706 H         1 <0>         0.0891
     34 H7          1.0301   -2.5985    2.0997 H         1 <0>         0.1266
     35 H8          1.3373   -0.6125   -1.1849 H         1 <0>         0.0891
     36 H9          1.3498   -2.1679   -2.0576 H         1 <0>         0.1265
     37 H10        -0.9456   -2.6351   -1.3447 H         1 <0>         0.1327
     38 H11        -0.8980   -1.0259   -2.1042 H         1 <0>         0.1415
     39 H12         2.4321   -3.3857   -2.1337 H         1 <0>         0.1318
     40 H13         4.0891   -5.2034   -2.1945 H         1 <0>         0.1359
     41 H14         4.0618   -5.3712    2.0788 H         1 <0>         0.1382
     42 H15         2.4117   -3.5471    2.1398 H         1 <0>         0.1325
     43 H16         5.4538   -6.7608   -0.9476 H         1 <0>         0.4249
     44 H17         5.1232   -6.7011    2.0037 H         1 <0>         0.1717
     45 H18         6.7791   -6.2054   -1.0968 H         1 <0>         0.1317
     46 H19         8.4994   -6.2429   -2.8532 H         1 <0>         0.1315
     47 H20        10.2937   -7.9207   -2.8034 H         1 <0>         0.1354
     48 H21        10.3984   -9.5847   -1.0014 H         1 <0>         0.1430
     49 H22         7.7885  -10.4744    2.7573 H         1 <0>         0.4194
     50 H23        -0.6964   -0.1013    0.1131 H         1 <0>         0.4250
@<TRIPOS>BOND
     1    1    2 1
     2    1   28 1
     3    1   29 1
     4    1   30 1
     5    2    7 1
     6    2    3 1
     7    2   50 1
     8    3    4 1
     9    3   31 1
    10    3   32 1
    11    4    5 1
    12    4   33 1
    13    4   34 1
    14    5    6 1
    15    5    8 1
    16    6    7 1
    17    6   35 1
    18    6   36 1
    19    7   37 1
    20    7   38 1
    21    8   13 ar
    22    8    9 ar
    23    9   10 ar
    24    9   39 1
    25   10   11 ar
    26   10   40 1
    27   11   12 ar
    28   11   14 1
    29   12   13 ar
    30   12   41 1
    31   13   42 1
    32   14   15 1
    33   14   43 1
    34   15   16 2
    35   15   44 1
    36   16   26 1
    37   16   17 1
    38   17   22 ar
    39   17   18 ar
    40   18   19 ar
    41   18   45 1
    42   19   20 ar
    43   19   46 1
    44   20   21 ar
    45   20   47 1
    46   21   22 ar
    47   21   48 1
    48   22   23 1
    49   23   24 2
    50   23   25 am
    51   25   26 am
    52   25   49 1
    53   26   27 2
@<TRIPOS>MOLECULE
ZINC16721243
   50    53     0     0     0
SMALL
USER_CHARGES

@<TRIPOS>ATOM
      1 C1         -2.7949   -1.1936    0.0618 C.3       1 <0>        -0.0472
      2 N1         -1.3294   -1.2811    0.0114 N.4       1 <0>        -0.3839
      3 C2         -0.8405   -1.9702    1.2123 C.3       1 <0>        -0.0232
      4 C3          0.6917   -1.9610    1.2171 C.3       1 <0>         0.0999
      5 N2          1.1655   -2.5391   -0.0500 N.pl3     1 <0>        -0.6449
      6 C4          0.6018   -2.0163   -1.3042 C.3       1 <0>         0.0988
      7 C5         -0.9262   -2.0229   -1.1899 C.3       1 <0>        -0.0233
      8 C6          2.1249   -3.5567   -0.0619 C.ar      1 <0>         0.1735
      9 C7          2.4762   -4.1661   -1.2598 C.ar      1 <0>        -0.1468
     10 C8          3.4228   -5.1707   -1.2716 C.ar      1 <0>        -0.1020
     11 C9          4.0244   -5.5720   -0.0855 C.ar      1 <0>         0.1160
     12 C10         3.6735   -4.9623    1.1123 C.ar      1 <0>        -0.1192
     13 C11         2.7306   -3.9541    1.1233 C.ar      1 <0>        -0.1459
     14 N3          4.9837   -6.5907   -0.0973 N.pl3     1 <0>        -0.6174
     15 C12         5.5722   -6.9833    1.0628 C.2       1 <0>         0.2555
     16 C13         6.6016   -7.8992    1.0378 C.2       1 <0>        -0.3006
     17 C14         7.1466   -8.4654    2.2889 C.ar      1 <0>         0.0436
     18 C15         6.6486   -8.1015    3.5349 C.ar      1 <0>        -0.1454
     19 C16         7.1912   -8.6590    4.6744 C.ar      1 <0>        -0.0670
     20 C17         8.2277   -9.5771    4.5854 C.ar      1 <0>        -0.1432
     21 C18         8.7348   -9.9497    3.3594 C.ar      1 <0>        -0.0313
     22 C19         8.1998   -9.3987    2.1945 C.ar      1 <0>        -0.1645
     23 C20         8.7104   -9.7692    0.8683 C.2       1 <0>         0.5698
     24 O1          9.6183  -10.5739    0.7804 O.2       1 <0>        -0.4966
     25 N4          8.1912   -9.2346   -0.2490 N.am      1 <0>        -0.6631
     26 C21         7.1848   -8.3457   -0.2324 C.2       1 <0>         0.5840
     27 O2          6.7553   -7.9019   -1.2817 O.2       1 <0>        -0.5382
     28 H1         -3.2180   -2.1976    0.0948 H         1 <0>         0.1218
     29 H2         -3.0956   -0.6431    0.9532 H         1 <0>         0.1254
     30 H3         -3.1586   -0.6750   -0.8253 H         1 <0>         0.1254
     31 H4         -1.2098   -1.4583    2.1009 H         1 <0>         0.1413
     32 H5         -1.1978   -3.0000    1.2112 H         1 <0>         0.1325
     33 H6          1.0516   -0.9363    1.3093 H         1 <0>         0.0883
     34 H7          1.0590   -2.5579    2.0520 H         1 <0>         0.1261
     35 H8          0.9526   -0.9971   -1.4665 H         1 <0>         0.0887
     36 H9          0.9096   -2.6496   -2.1362 H         1 <0>         0.1266
     37 H10        -1.2808   -3.0510   -1.1183 H         1 <0>         0.1326
     38 H11        -1.3586   -1.5496   -2.0715 H         1 <0>         0.1413
     39 H12         2.0084   -3.8540   -2.1819 H         1 <0>         0.1311
     40 H13         3.6954   -5.6449   -2.2028 H         1 <0>         0.1366
     41 H14         4.1409   -5.2746    2.0345 H         1 <0>         0.1342
     42 H15         2.4607   -3.4773    2.0540 H         1 <0>         0.1312
     43 H16         5.2285   -7.0166   -0.9337 H         1 <0>         0.4318
     44 H17         5.2332   -6.5775    2.0046 H         1 <0>         0.1684
     45 H18         5.8423   -7.3869    3.6104 H         1 <0>         0.1273
     46 H19         6.8062   -8.3782    5.6436 H         1 <0>         0.1324
     47 H20         8.6418  -10.0040    5.4869 H         1 <0>         0.1346
     48 H21         9.5420  -10.6648    3.3006 H         1 <0>         0.1415
     49 H22         8.5567   -9.5054   -1.1058 H         1 <0>         0.4184
     50 H23        -0.9391   -0.3512   -0.0221 H         1 <0>         0.4250
@<TRIPOS>BOND
     1    1    2 1
     2    1   28 1
     3    1   29 1
     4    1   30 1
     5    2    7 1
     6    2    3 1
     7    2   50 1
     8    3    4 1
     9    3   31 1
    10    3   32 1
    11    4    5 1
    12    4   33 1
    13    4   34 1
    14    5    6 1
    15    5    8 1
    16    6    7 1
    17    6   35 1
    18    6   36 1
    19    7   37 1
    20    7   38 1
    21    8   13 ar
    22    8    9 ar
    23    9   10 ar
    24    9   39 1
    25   10   11 ar
    26   10   40 1
    27   11   12 ar
    28   11   14 1
    29   12   13 ar
    30   12   41 1
    31   13   42 1
    32   14   15 1
    33   14   43 1
    34   15   16 2
    35   15   44 1
    36   16   26 1
    37   16   17 1
    38   17   22 ar
    39   17   18 ar
    40   18   19 ar
    41   18   45 1
    42   19   20 ar
    43   19   46 1
    44   20   21 ar
    45   20   47 1
    46   21   22 ar
    47   21   48 1
    48   22   23 1
    49   23   24 2
    50   23   25 am
    51   25   26 am
    52   25   49 1
    53   26   27 2
@<TRIPOS>MOLECULE
ZINC03950132
   46    49     0     0     0
SMALL
USER_CHARGES
4-(2-amino-4-methyl-thiazol-5-yl)-N-(4-morpholinophenyl)-pyrimidin-2-amine
@<TRIPOS>ATOM
      1 C1          4.1560   -0.7976    0.1288 C.3       1 <0>        -0.0903
      2 C2          5.0273    0.0086   -0.7995 C.2       1 <0>         0.1857
      3 C3          4.5164    1.0708   -1.5011 C.2       1 <0>        -0.2392
      4 S1          5.9673    1.6025   -2.3985 S.3       1 <0>         0.0763
      5 C4          7.0692    0.4161   -1.7712 C.2       1 <0>         0.3657
      6 N1          6.2965   -0.2857   -0.9592 N.2       1 <0>        -0.5890
      7 N2          8.4111    0.2448   -2.0535 N.pl3     1 <0>        -0.7876
      8 C5          3.1483    1.6180   -1.5155 C.ar      1 <0>         0.3312
      9 C6          2.8322    2.7257   -2.3152 C.ar      1 <0>        -0.2802
     10 C7          1.5368    3.2027   -2.2949 C.ar      1 <0>         0.1966
     11 N3          0.6368    2.6054   -1.5271 N.ar      1 <0>        -0.5647
     12 C8          0.9611    1.5596   -0.7803 C.ar      1 <0>         0.5701
     13 N4          2.1912    1.0711   -0.7636 N.ar      1 <0>        -0.5604
     14 N5         -0.0111    0.9658    0.0074 N.pl3     1 <0>        -0.6370
     15 C9         -1.2863    1.5388    0.0969 C.ar      1 <0>         0.1437
     16 C10        -1.4323    2.9189    0.0487 C.ar      1 <0>        -0.0851
     17 C11        -2.6897    3.4834    0.1313 C.ar      1 <0>        -0.1473
     18 C12        -3.8073    2.6715    0.2739 C.ar      1 <0>         0.0899
     19 C13        -3.6607    1.2916    0.3278 C.ar      1 <0>        -0.1158
     20 C14        -2.4038    0.7269    0.2395 C.ar      1 <0>        -0.1224
     21 N6         -5.0813    3.2440    0.3639 N.pl3     1 <0>        -0.4867
     22 C15        -5.9729    2.7112   -0.6765 C.3       1 <0>         0.0197
     23 C16        -7.3681    3.3176   -0.5049 C.3       1 <0>         0.0614
     24 O1         -7.2718    4.7437   -0.5527 O.3       1 <0>        -0.3833
     25 C17        -6.4117    5.2965    0.4473 C.3       1 <0>         0.0618
     26 C18        -5.0068    4.7101    0.2853 C.3       1 <0>         0.0127
     27 H1          3.7021   -1.6212   -0.4225 H         1 <0>         0.0783
     28 H2          4.7625   -1.1956    0.9423 H         1 <0>         0.0703
     29 H3          3.3730   -0.1593    0.5381 H         1 <0>         0.1010
     30 H4          8.9087   -0.4711   -1.6283 H         1 <0>         0.4198
     31 H5          8.8554    0.8405   -2.6769 H         1 <0>         0.4237
     32 H6          3.5844    3.1948   -2.9320 H         1 <0>         0.1421
     33 H7          1.2595    4.0540   -2.8990 H         1 <0>         0.1715
     34 H8          0.1898    0.1510    0.4938 H         1 <0>         0.4230
     35 H9         -0.5628    3.5505   -0.0578 H         1 <0>         0.1350
     36 H10        -2.8037    4.5566    0.0890 H         1 <0>         0.1283
     37 H11        -4.5298    0.6602    0.4391 H         1 <0>         0.1282
     38 H12        -2.2898   -0.3462    0.2811 H         1 <0>         0.1273
     39 H13        -5.5813    2.9716   -1.6599 H         1 <0>         0.0534
     40 H14        -6.0334    1.6268   -0.5837 H         1 <0>         0.0927
     41 H15        -7.7817    3.0127    0.4564 H         1 <0>         0.0622
     42 H16        -8.0182    2.9696   -1.3076 H         1 <0>         0.1028
     43 H17        -6.7975    5.0492    1.4363 H         1 <0>         0.0619
     44 H18        -6.3694    6.3797    0.3336 H         1 <0>         0.1028
     45 H19        -4.3621    5.0849    1.0802 H         1 <0>         0.0937
     46 H20        -4.5990    5.0025   -0.6823 H         1 <0>         0.0563
@<TRIPOS>BOND
     1    1    2 1
     2    1   27 1
     3    1   28 1
     4    1   29 1
     5    2    6 1
     6    2    3 2
     7    3    4 1
     8    3    8 1
     9    4    5 1
    10    5    6 2
    11    5    7 1
    12    7   30 1
    13    7   31 1
    14    8   13 ar
    15    8    9 ar
    16    9   10 ar
    17    9   32 1
    18   10   11 ar
    19   10   33 1
    20   11   12 ar
    21   12   13 ar
    22   12   14 1
    23   14   15 1
    24   14   34 1
    25   15   20 ar
    26   15   16 ar
    27   16   17 ar
    28   16   35 1
    29   17   18 ar
    30   17   36 1
    31   18   19 ar
    32   18   21 1
    33   19   20 ar
    34   19   37 1
    35   20   38 1
    36   21   26 1
    37   21   22 1
    38   22   23 1
    39   22   39 1
    40   22   40 1
    41   23   24 1
    42   23   41 1
    43   23   42 1
    44   24   25 1
    45   25   26 1
    46   25   43 1
    47   25   44 1
    48   26   45 1
    49   26   46 1
@<TRIPOS>MOLECULE
ZINC40442496
   48    50     0     0     0
SMALL
USER_CHARGES

@<TRIPOS>ATOM
      1 C1         -0.3035    1.5916   -0.2006 C.3       1 <0>        -0.1416
      2 C2         -0.2204    0.0919   -0.0785 C.cat     1 <0>         0.3300
      3 N1         -0.3374   -0.7570   -1.0651 N.pl3     1 <0>        -0.4778
      4 C3         -0.2111   -2.0037   -0.6007 C.2       1 <0>         0.0663
      5 C4         -0.0049   -1.9296    0.7438 C.2       1 <0>         0.0809
      6 N2         -0.0076   -0.5897    1.0654 N.pl3     1 <0>        -0.3913
      7 C5          0.1821   -0.0142    2.3992 C.3       1 <0>         0.1097
      8 C6          1.6270   -0.2375    2.8502 C.3       1 <0>        -0.1881
      9 C7         -0.1118    1.4866    2.3536 C.3       1 <0>        -0.1960
     10 C8          0.1887   -3.0612    1.6722 C.ar      1 <0>         0.2671
     11 C9          0.2594   -2.8438    3.0541 C.ar      1 <0>        -0.2822
     12 C10         0.4409   -3.9342    3.8831 C.ar      1 <0>         0.2146
     13 N3          0.5419   -5.1434    3.3517 N.ar      1 <0>        -0.5353
     14 C11         0.4716   -5.3214    2.0403 C.ar      1 <0>         0.5804
     15 N4          0.2934   -4.3070    1.2090 N.ar      1 <0>        -0.5453
     16 N5          0.5825   -6.6032    1.5266 N.pl3     1 <0>        -0.6309
     17 C12         0.6504   -7.6995    2.3916 C.ar      1 <0>         0.2074
     18 C13        -0.0655   -7.6924    3.5819 C.ar      1 <0>        -0.1347
     19 C14         0.0033   -8.7771    4.4338 C.ar      1 <0>        -0.0015
     20 C15         0.7838   -9.8697    4.1029 C.ar      1 <0>        -0.6719
     21 C16         1.4982   -9.8799    2.9189 C.ar      1 <0>         0.0016
     22 C17         1.4292   -8.8007    2.0598 C.ar      1 <0>        -0.1622
     23 S1          0.8688  -11.2516    5.1927 S.o2      1 <0>         2.5006
     24 O1          2.1265  -11.8532    4.9180 O.2       1 <0>        -0.9349
     25 O2          0.5870  -10.7171    6.4788 O.2       1 <0>        -0.9353
     26 C18        -0.4767  -12.3467    4.6627 C.3       1 <0>        -0.6502
     27 H1          0.7025    2.0103   -0.2277 H         1 <0>         0.1256
     28 H2         -0.8306    1.8528   -1.1182 H         1 <0>         0.1149
     29 H3         -0.8426    1.9966    0.6559 H         1 <0>         0.1416
     30 H4         -0.2638   -2.9091   -1.1870 H         1 <0>         0.2326
     31 H5         -0.4967   -0.4961    3.1028 H         1 <0>         0.1326
     32 H6          1.7910    0.2622    3.8049 H         1 <0>         0.1069
     33 H7          1.8115   -1.3058    2.9628 H         1 <0>         0.0828
     34 H8          2.3079    0.1722    2.1040 H         1 <0>         0.0772
     35 H9         -1.1588    1.6441    2.0945 H         1 <0>         0.0864
     36 H10         0.0910    1.9264    3.3301 H         1 <0>         0.1082
     37 H11         0.5231    1.9586    1.6037 H         1 <0>         0.0925
     38 H12         0.1744   -1.8474    3.4620 H         1 <0>         0.1599
     39 H13         0.5001   -3.8020    4.9534 H         1 <0>         0.1876
     40 H14         0.6132   -6.7400    0.5668 H         1 <0>         0.4306
     41 H15        -0.6750   -6.8393    3.8410 H         1 <0>         0.1402
     42 H16        -0.5528   -8.7720    5.3596 H         1 <0>         0.1481
     43 H17         2.1074  -10.7344    2.6638 H         1 <0>         0.1503
     44 H18         1.9839   -8.8112    1.1331 H         1 <0>         0.1381
     45 H19        -0.3183  -12.6411    3.6252 H         1 <0>         0.1318
     46 H20        -0.4922  -13.2351    5.2941 H         1 <0>         0.1354
     47 H21        -1.4281  -11.8221    4.7503 H         1 <0>         0.1313
     48 H22        -0.4926   -0.5188   -1.9925 H         1 <0>         0.4663
@<TRIPOS>BOND
     1    1    2 1
     2    1   27 1
     3    1   28 1
     4    1   29 1
     5    2    6 1
     6    2    3 2
     7    3    4 1
     8    3   48 1
     9    4    5 2
    10    4   30 1
    11    5    6 1
    12    5   10 1
    13    6    7 1
    14    7    8 1
    15    7    9 1
    16    7   31 1
    17    8   32 1
    18    8   33 1
    19    8   34 1
    20    9   35 1
    21    9   36 1
    22    9   37 1
    23   10   15 ar
    24   10   11 ar
    25   11   12 ar
    26   11   38 1
    27   12   13 ar
    28   12   39 1
    29   13   14 ar
    30   14   15 ar
    31   14   16 1
    32   16   17 1
    33   16   40 1
    34   17   22 ar
    35   17   18 ar
    36   18   19 ar
    37   18   41 1
    38   19   20 ar
    39   19   42 1
    40   20   21 ar
    41   20   23 1
    42   21   22 ar
    43   21   43 1
    44   22   44 1
    45   23   24 2
    46   23   25 2
    47   23   26 1
    48   26   45 1
    49   26   46 1
    50   26   47 1
@<TRIPOS>MOLECULE
ZINC40442496
   47    49     0     0     0
SMALL
USER_CHARGES

@<TRIPOS>ATOM
      1 C1         -0.3035    1.5916   -0.2007 C.3       1 <0>        -0.0993
      2 C2         -0.2204    0.0919   -0.0786 C.2       1 <0>         0.2415
      3 N1         -0.3374   -0.7571   -1.0652 N.2       1 <0>        -0.4953
      4 C3         -0.2111   -2.0037   -0.6007 C.2       1 <0>         0.0612
      5 C4         -0.0049   -1.9296    0.7438 C.2       1 <0>        -0.0230
      6 N2         -0.0076   -0.5897    1.0654 N.pl3     1 <0>        -0.4384
      7 C5          0.1821   -0.0141    2.3992 C.3       1 <0>         0.1185
      8 C6          1.6270   -0.2374    2.8501 C.3       1 <0>        -0.1794
      9 C7         -0.1118    1.4867    2.3535 C.3       1 <0>        -0.1818
     10 C8          0.1887   -3.0611    1.6722 C.ar      1 <0>         0.3085
     11 C9          0.2594   -2.8437    3.0541 C.ar      1 <0>        -0.2980
     12 C10         0.4409   -3.9342    3.8831 C.ar      1 <0>         0.1981
     13 N3          0.5419   -5.1433    3.3517 N.ar      1 <0>        -0.5589
     14 C11         0.4716   -5.3213    2.0404 C.ar      1 <0>         0.5685
     15 N4          0.2934   -4.3069    1.2091 N.ar      1 <0>        -0.5508
     16 N5          0.5826   -6.6032    1.5267 N.pl3     1 <0>        -0.6389
     17 C12         0.6504   -7.6995    2.3917 C.ar      1 <0>         0.2254
     18 C13        -0.0655   -7.6923    3.5819 C.ar      1 <0>        -0.1369
     19 C14         0.0033   -8.7771    4.4339 C.ar      1 <0>        -0.0022
     20 C15         0.7838   -9.8696    4.1031 C.ar      1 <0>        -0.6810
     21 C16         1.4982   -9.8798    2.9190 C.ar      1 <0>         0.0006
     22 C17         1.4292   -8.8007    2.0599 C.ar      1 <0>        -0.1700
     23 S1          0.8688  -11.2515    5.1929 S.o2      1 <0>         2.5030
     24 O1          2.1265  -11.8531    4.9182 O.2       1 <0>        -0.9392
     25 O2          0.5870  -10.7169    6.4790 O.2       1 <0>        -0.9387
     26 C18        -0.4767  -12.3467    4.6629 C.3       1 <0>        -0.6514
     27 H1          0.7025    2.0103   -0.2277 H         1 <0>         0.0847
     28 H2         -0.8306    1.8528   -1.1183 H         1 <0>         0.0907
     29 H3         -0.8426    1.9966    0.6558 H         1 <0>         0.1023
     30 H4         -0.2638   -2.9092   -1.1870 H         1 <0>         0.1812
     31 H5         -0.4967   -0.4961    3.1028 H         1 <0>         0.1018
     32 H6          2.3079    0.1722    2.1040 H         1 <0>         0.0682
     33 H7          1.7910    0.2623    3.8049 H         1 <0>         0.0841
     34 H8          1.8115   -1.3058    2.9627 H         1 <0>         0.0738
     35 H9         -1.1588    1.6442    2.0944 H         1 <0>         0.0773
     36 H10         0.0910    1.9265    3.3300 H         1 <0>         0.0837
     37 H11         0.5230    1.9586    1.6036 H         1 <0>         0.0871
     38 H12         0.1744   -1.8473    3.4620 H         1 <0>         0.1560
     39 H13         0.5001   -3.8019    4.9534 H         1 <0>         0.1754
     40 H14         0.6132   -6.7400    0.5669 H         1 <0>         0.4284
     41 H15        -0.6750   -6.8392    3.8411 H         1 <0>         0.1418
     42 H16        -0.5528   -8.7720    5.3597 H         1 <0>         0.1445
     43 H17         2.1074  -10.7343    2.6639 H         1 <0>         0.1463
     44 H18         1.9839   -8.8112    1.1333 H         1 <0>         0.1364
     45 H19        -0.3183  -12.6410    3.6254 H         1 <0>         0.1311
     46 H20        -0.4922  -13.2350    5.2943 H         1 <0>         0.1322
     47 H21        -1.4281  -11.8220    4.7505 H         1 <0>         0.1310
@<TRIPOS>BOND
     1    1    2 1
     2    1   27 1
     3    1   28 1
     4    1   29 1
     5    2    6 1
     6    2    3 2
     7    3    4 1
     8    4    5 2
     9    4   30 1
    10    5    6 1
    11    5   10 1
    12    6    7 1
    13    7    8 1
    14    7    9 1
    15    7   31 1
    16    8   32 1
    17    8   33 1
    18    8   34 1
    19    9   35 1
    20    9   36 1
    21    9   37 1
    22   10   15 ar
    23   10   11 ar
    24   11   12 ar
    25   11   38 1
    26   12   13 ar
    27   12   39 1
    28   13   14 ar
    29   14   15 ar
    30   14   16 1
    31   16   17 1
    32   16   40 1
    33   17   22 ar
    34   17   18 ar
    35   18   19 ar
    36   18   41 1
    37   19   20 ar
    38   19   42 1
    39   20   21 ar
    40   20   23 1
    41   21   22 ar
    42   21   43 1
    43   22   44 1
    44   23   24 2
    45   23   25 2
    46   23   26 1
    47   26   45 1
    48   26   46 1
    49   26   47 1
