@<TRIPOS>MOLECULE
ZINC24044436
   76    80     0     0     0
SMALL
USER_CHARGES
1-[5-tert-butyl-2-(p-tolyl)pyrazol-3-yl]-3-[4-(2-morpholinoethoxy)-1-naphthyl]urea
@<TRIPOS>ATOM
      1 C1          3.3307    9.5387   -0.3298 C.3       1 <0>        -0.1193
      2 C2          2.0898    8.6848   -0.2813 C.ar      1 <0>        -0.0892
      3 C3          0.9612    9.0673   -0.9828 C.ar      1 <0>        -0.0934
      4 C4         -0.1775    8.2868   -0.9403 C.ar      1 <0>        -0.1062
      5 C5         -0.1884    7.1174   -0.1919 C.ar      1 <0>         0.1564
      6 C6          0.9444    6.7392    0.5163 C.ar      1 <0>        -0.1500
      7 C7          2.0821    7.5207    0.4649 C.ar      1 <0>        -0.0924
      8 N1         -1.3424    6.3233   -0.1469 N.pl3     1 <0>        -0.3448
      9 C8         -1.3788    4.9645   -0.0790 C.2       1 <0>         0.3309
     10 C9         -2.6878    4.5925   -0.0483 C.2       1 <0>        -0.2629
     11 C10        -3.4651    5.7529   -0.1047 C.2       1 <0>         0.1115
     12 N2         -2.6643    6.7861   -0.1672 N.2       1 <0>        -0.2779
     13 C11        -4.9712    5.8052   -0.0954 C.3       1 <0>         0.0134
     14 C12        -5.4824    5.5257    1.3193 C.3       1 <0>        -0.1388
     15 C13        -5.4360    7.1933   -0.5406 C.3       1 <0>        -0.1390
     16 C14        -5.5242    4.7499   -1.0553 C.3       1 <0>        -0.1399
     17 N3         -0.2771    4.1104   -0.0417 N.am      1 <0>        -0.6731
     18 C15        -0.4603    2.7771    0.0314 C.2       1 <0>         0.7165
     19 O1         -1.5862    2.3190    0.0649 O.2       1 <0>        -0.5445
     20 N4          0.6045    1.9516    0.0675 N.am      1 <0>        -0.6819
     21 C16         0.4162    0.5655    0.0407 C.ar      1 <0>         0.1254
     22 C17        -0.6813    0.0024    0.6542 C.ar      1 <0>        -0.0743
     23 C18        -0.8835   -1.3742    0.6299 C.ar      1 <0>        -0.2061
     24 C19         0.0048   -2.2051    0.0082 C.ar      1 <0>         0.1395
     25 C20         1.1426   -1.6672   -0.6254 C.ar      1 <0>        -0.0565
     26 C21         1.3517   -0.2661   -0.6096 C.ar      1 <0>        -0.0251
     27 C22         2.4862    0.2686   -1.2409 C.ar      1 <0>        -0.1232
     28 C23         3.3687   -0.5639   -1.8588 C.ar      1 <0>        -0.0971
     29 C24         3.1636   -1.9422   -1.8742 C.ar      1 <0>        -0.1313
     30 C25         2.0750   -2.4951   -1.2724 C.ar      1 <0>        -0.0739
     31 O2         -0.2080   -3.5475    0.0012 O.3       1 <0>        -0.2916
     32 C26        -1.3823   -4.0216    0.6634 C.3       1 <0>         0.0605
     33 C27        -1.4510   -5.5459    0.5508 C.3       1 <0>         0.0539
     34 N5         -0.3065   -6.1409    1.2538 N.3       1 <0>        -0.5287
     35 C28        -0.1978   -7.5776    0.9617 C.3       1 <0>         0.0167
     36 C29         1.0390   -8.1436    1.6645 C.3       1 <0>         0.0615
     37 O3          0.9456   -7.8818    3.0674 O.3       1 <0>        -0.3849
     38 C30         0.8389   -6.4921    3.3879 C.3       1 <0>         0.0625
     39 C31        -0.3999   -5.9094    2.7026 C.3       1 <0>         0.0120
     40 H1          3.1476   10.4156   -0.9682 H         1 <0>         0.0687
     41 H2          4.1639    8.9515   -0.7434 H         1 <0>         0.0732
     42 H3          3.5863    9.8722    0.6868 H         1 <0>         0.0734
     43 H4          0.9703    9.9770   -1.5648 H         1 <0>         0.1335
     44 H5         -1.0587    8.5861   -1.4884 H         1 <0>         0.1355
     45 H6          0.9374    5.8324    1.1029 H         1 <0>         0.1262
     46 H7          2.9651    7.2245    1.0118 H         1 <0>         0.1343
     47 H8         -3.0598    3.5802    0.0092 H         1 <0>         0.1784
     48 H9         -6.5817    5.5639    1.3261 H         1 <0>         0.0656
     49 H10        -5.0849    6.2845    2.0094 H         1 <0>         0.0565
     50 H11        -5.1481    4.5278    1.6395 H         1 <0>         0.0614
     51 H12        -6.5353    7.2315   -0.5338 H         1 <0>         0.0604
     52 H13        -5.0684    7.3943   -1.5577 H         1 <0>         0.0568
     53 H14        -5.0385    7.9519    0.1496 H         1 <0>         0.0614
     54 H15        -6.6235    4.7882   -1.0484 H         1 <0>         0.0647
     55 H16        -5.1900    3.7520   -0.7351 H         1 <0>         0.0637
     56 H17        -5.1566    4.9509   -2.0724 H         1 <0>         0.0570
     57 H18         0.7414    4.5248   -0.0719 H         1 <0>         0.4294
     58 H19         1.6215    2.3677    0.1180 H         1 <0>         0.4280
     59 H20        -1.3959    0.6376    1.1566 H         1 <0>         0.1450
     60 H21        -1.7537   -1.7925    1.1139 H         1 <0>         0.1296
     61 H22         2.6580    1.3348   -1.2361 H         1 <0>         0.1222
     62 H23         4.2405   -0.1501   -2.3437 H         1 <0>         0.1243
     63 H24         3.8790   -2.5810   -2.3706 H         1 <0>         0.1250
     64 H25         1.9286   -3.5650   -1.2926 H         1 <0>         0.1353
     65 H26        -1.3465   -3.7335    1.7244 H         1 <0>         0.0659
     66 H27        -2.2726   -3.5787    0.1931 H         1 <0>         0.0716
     67 H28        -2.3868   -5.9052    1.0039 H         1 <0>         0.0605
     68 H29        -1.4216   -5.8370   -0.5096 H         1 <0>         0.0912
     69 H30        -1.0977   -8.0949    1.3258 H         1 <0>         0.0437
     70 H31        -0.1044   -7.7249   -0.1244 H         1 <0>         0.0891
     71 H32         1.0925   -9.2291    1.4949 H         1 <0>         0.1001
     72 H33         1.9424   -7.6643    1.2595 H         1 <0>         0.0618
     73 H34         0.7475   -6.3731    4.4776 H         1 <0>         0.0994
     74 H35         1.7375   -5.9645    3.0355 H         1 <0>         0.0616
     75 H36        -0.4553   -4.8284    2.8983 H         1 <0>         0.0869
     76 H37        -1.3031   -6.3997    3.0948 H         1 <0>         0.0443
@<TRIPOS>BOND
     1    1    2 1
     2    1   40 1
     3    1   41 1
     4    1   42 1
     5    2    7 ar
     6    2    3 ar
     7    3    4 ar
     8    3   43 1
     9    4    5 ar
    10    4   44 1
    11    5    6 ar
    12    5    8 1
    13    6    7 ar
    14    6   45 1
    15    7   46 1
    16    8   12 1
    17    8    9 1
    18    9   10 2
    19    9   17 1
    20   10   11 1
    21   10   47 1
    22   11   12 2
    23   11   13 1
    24   13   14 1
    25   13   15 1
    26   13   16 1
    27   14   48 1
    28   14   49 1
    29   14   50 1
    30   15   51 1
    31   15   52 1
    32   15   53 1
    33   16   54 1
    34   16   55 1
    35   16   56 1
    36   17   18 am
    37   17   57 1
    38   18   19 2
    39   18   20 am
    40   20   21 1
    41   20   58 1
    42   21   26 ar
    43   21   22 ar
    44   22   23 ar
    45   22   59 1
    46   23   24 ar
    47   23   60 1
    48   24   25 ar
    49   24   31 1
    50   25   30 ar
    51   25   26 ar
    52   26   27 ar
    53   27   28 ar
    54   27   61 1
    55   28   29 ar
    56   28   62 1
    57   29   30 ar
    58   29   63 1
    59   30   64 1
    60   31   32 1
    61   32   33 1
    62   32   65 1
    63   32   66 1
    64   33   34 1
    65   33   67 1
    66   33   68 1
    67   34   39 1
    68   34   35 1
    69   35   36 1
    70   35   69 1
    71   35   70 1
    72   36   37 1
    73   36   71 1
    74   36   72 1
    75   37   38 1
    76   38   39 1
    77   38   73 1
    78   38   74 1
    79   39   75 1
    80   39   76 1
@<TRIPOS>MOLECULE
ZINC40979326
   58    61     0     0     0
SMALL
USER_CHARGES

@<TRIPOS>ATOM
      1 C1          0.0313    0.4233    0.2594 C.3       1 <0>        -0.1531
      2 C2          0.2943   -1.0706    0.0598 C.3       1 <0>        -0.1280
      3 C3          1.0135   -1.2883   -1.2730 C.3       1 <0>         0.1684
      4 H1          0.4319   -0.8381   -2.0774 H         1 <0>         0.1039
      5 C4          1.1655   -2.7886   -1.5315 C.3       1 <0>         0.0631
      6 O1          1.8265   -3.3987   -0.4211 O.3       1 <0>        -0.5696
      7 N1          2.3383   -0.6651   -1.2204 N.pl3     1 <0>        -0.6797
      8 C5          2.9626   -0.2653   -2.3906 C.ar      1 <0>         0.6268
      9 N2          2.3380   -0.4527   -3.5463 N.ar      1 <0>        -0.6111
     10 C6          2.8951   -0.0864   -4.6951 C.ar      1 <0>         0.5347
     11 C7          4.1686    0.5082   -4.6654 C.ar      1 <0>        -0.1491
     12 C8          4.7913    0.6864   -3.4190 C.ar      1 <0>         0.3505
     13 N3          4.1589    0.2950   -2.3171 N.ar      1 <0>        -0.6084
     14 N4          6.0011    1.2778   -3.6812 N.pl3     1 <0>        -0.4705
     15 C9          6.0909    1.4434   -5.0326 C.2       1 <0>         0.2398
     16 N5          5.0151    0.9913   -5.6077 N.2       1 <0>        -0.4562
     17 C10         7.0111    1.6616   -2.6918 C.3       1 <0>         0.1342
     18 C11         8.3154    0.9151   -2.9785 C.3       1 <0>        -0.1631
     19 C12         7.2579    3.1694   -2.7734 C.3       1 <0>        -0.1628
     20 N6          2.2359   -0.2864   -5.8962 N.pl3     1 <0>        -0.6367
     21 C13         0.9236   -0.7682   -5.9015 C.ar      1 <0>         0.1541
     22 C14         0.0267   -0.3535   -4.9238 C.ar      1 <0>        -0.0986
     23 C15        -1.2712   -0.8272   -4.9261 C.ar      1 <0>        -0.1046
     24 C16        -1.6849   -1.7151   -5.8994 C.ar      1 <0>        -0.1149
     25 C17        -0.7925   -2.1364   -6.8837 C.ar      1 <0>        -0.0326
     26 C18         0.5144   -1.6556   -6.8855 C.ar      1 <0>        -0.1040
     27 C19        -1.2354   -3.0907   -7.9298 C.ar      1 <0>         0.1695
     28 C20        -2.5724   -3.4781   -7.9903 C.ar      1 <0>        -0.1627
     29 C21        -2.9706   -4.3690   -8.9717 C.ar      1 <0>        -0.0719
     30 C22        -2.0173   -4.8439   -9.8616 C.ar      1 <0>        -0.1760
     31 C23        -0.7076   -4.4172   -9.7437 C.ar      1 <0>         0.1055
     32 N7         -0.3562   -3.5639   -8.8031 N.ar      1 <0>        -0.4790
     33 H2          0.9792    0.9614    0.2659 H         1 <0>         0.0551
     34 H3         -0.5916    0.7945   -0.5544 H         1 <0>         0.0540
     35 H4         -0.4811    0.5783    1.2089 H         1 <0>         0.0566
     36 H5          0.9172   -1.4418    0.8736 H         1 <0>         0.0770
     37 H6         -0.6536   -1.6088    0.0532 H         1 <0>         0.0779
     38 H7          0.1802   -3.2370   -1.6589 H         1 <0>         0.0526
     39 H8          1.7550   -2.9437   -2.4351 H         1 <0>         0.0503
     40 H9          1.9570   -4.3521   -0.5164 H         1 <0>         0.3778
     41 H10         2.7784   -0.5324   -0.3662 H         1 <0>         0.4153
     42 H11         6.9307    1.8848   -5.5485 H         1 <0>         0.2161
     43 H12         6.6574    1.4048   -1.6933 H         1 <0>         0.1068
     44 H13         8.6691    1.1718   -3.9771 H         1 <0>         0.0658
     45 H14         9.0669    1.2006   -2.2424 H         1 <0>         0.0800
     46 H15         8.1396   -0.1591   -2.9204 H         1 <0>         0.0632
     47 H16         7.6115    3.4261   -3.7720 H         1 <0>         0.0658
     48 H17         6.3286    3.7012   -2.5692 H         1 <0>         0.0632
     49 H18         8.0093    3.4549   -2.0373 H         1 <0>         0.0800
     50 H19         2.6846   -0.0922   -6.7339 H         1 <0>         0.4288
     51 H20         0.3454    0.3405   -4.1601 H         1 <0>         0.1325
     52 H21        -1.9643   -0.5023   -4.1642 H         1 <0>         0.1293
     53 H22        -2.7001   -2.0834   -5.8978 H         1 <0>         0.1268
     54 H23         1.2084   -1.9760   -7.6485 H         1 <0>         0.1368
     55 H24        -3.2879   -3.0888   -7.2811 H         1 <0>         0.1385
     56 H25        -4.0000   -4.6877   -9.0433 H         1 <0>         0.1371
     57 H26        -2.2959   -5.5404  -10.6386 H         1 <0>         0.1365
     58 H27         0.0367   -4.7848  -10.4345 H         1 <0>         0.1583
@<TRIPOS>BOND
     1    1    2 1
     2    1   33 1
     3    1   34 1
     4    1   35 1
     5    2    3 1
     6    2   36 1
     7    2   37 1
     8    3    4 1
     9    3    5 1
    10    3    7 1
    11    5    6 1
    12    5   38 1
    13    5   39 1
    14    6   40 1
    15    7    8 1
    16    7   41 1
    17    8   13 ar
    18    8    9 ar
    19    9   10 ar
    20   10   11 ar
    21   10   20 1
    22   11   16 1
    23   11   12 ar
    24   12   13 ar
    25   12   14 1
    26   14   15 1
    27   14   17 1
    28   15   16 2
    29   15   42 1
    30   17   18 1
    31   17   19 1
    32   17   43 1
    33   18   44 1
    34   18   45 1
    35   18   46 1
    36   19   47 1
    37   19   48 1
    38   19   49 1
    39   20   21 1
    40   20   50 1
    41   21   26 ar
    42   21   22 ar
    43   22   23 ar
    44   22   51 1
    45   23   24 ar
    46   23   52 1
    47   24   25 ar
    48   24   53 1
    49   25   26 ar
    50   25   27 1
    51   26   54 1
    52   27   32 ar
    53   27   28 ar
    54   28   29 ar
    55   28   55 1
    56   29   30 ar
    57   29   56 1
    58   30   31 ar
    59   30   57 1
    60   31   32 ar
    61   31   58 1
@<TRIPOS>MOLECULE
ZINC49033750
   58    61     0     0     0
SMALL
USER_CHARGES

@<TRIPOS>ATOM
      1 C1         -0.3258    0.6123    0.0085 C.3       1 <0>        -0.1534
      2 C2         -0.1194   -0.8977   -0.1256 C.3       1 <0>        -0.1280
      3 C3          0.6808   -1.1923   -1.3960 C.3       1 <0>         0.1679
      4 H1          1.6121   -0.6262   -1.3783 H         1 <0>         0.1037
      5 C4          0.9944   -2.6882   -1.4658 C.3       1 <0>         0.0630
      6 O1         -0.2205   -3.4345   -1.3717 O.3       1 <0>        -0.5696
      7 N1         -0.1052   -0.8029   -2.5694 N.pl3     1 <0>        -0.6797
      8 C5          0.5342   -0.4782   -3.7546 C.ar      1 <0>         0.6263
      9 N2          1.8591   -0.5326   -3.8035 N.ar      1 <0>        -0.6112
     10 C6          2.5180   -0.2307   -4.9167 C.ar      1 <0>         0.5337
     11 C7          1.7813    0.1507   -6.0517 C.ar      1 <0>        -0.1486
     12 C8          0.3809    0.1940   -5.9528 C.ar      1 <0>         0.3505
     13 N3         -0.1975   -0.1296   -4.8003 N.ar      1 <0>        -0.6078
     14 N4         -0.0737    0.5901   -7.1851 N.pl3     1 <0>        -0.4704
     15 C9          1.0173    0.7743   -7.9835 C.2       1 <0>         0.2402
     16 N5          2.1041    0.5161   -7.3166 N.2       1 <0>        -0.4563
     17 C10        -1.4736    0.7800   -7.5729 C.3       1 <0>         0.1341
     18 C11        -1.6895    2.2301   -8.0104 C.3       1 <0>        -0.1629
     19 C12        -1.8135   -0.1585   -8.7324 C.3       1 <0>        -0.1631
     20 N6          3.9007   -0.2899   -4.9582 N.pl3     1 <0>        -0.6346
     21 C13         4.6242   -0.5570   -3.7922 C.ar      1 <0>         0.1542
     22 C14         4.1533   -0.1085   -2.5637 C.ar      1 <0>        -0.1027
     23 C15         4.8654   -0.3710   -1.4091 C.ar      1 <0>        -0.1043
     24 C16         6.0487   -1.0802   -1.4689 C.ar      1 <0>        -0.1166
     25 C17         6.5286   -1.5339   -2.6963 C.ar      1 <0>        -0.0318
     26 C18         5.8090   -1.2745   -3.8601 C.ar      1 <0>        -0.1067
     27 C19         7.7999   -2.2956   -2.7622 C.ar      1 <0>         0.1696
     28 C20         8.4546   -2.6505   -1.5846 C.ar      1 <0>        -0.1627
     29 C21         9.6398   -3.3610   -1.6620 C.ar      1 <0>        -0.0719
     30 C22        10.1320   -3.6938   -2.9162 C.ar      1 <0>        -0.1761
     31 C23         9.4304   -3.3094   -4.0437 C.ar      1 <0>         0.1055
     32 N7          8.3013   -2.6379   -3.9417 N.ar      1 <0>        -0.4791
     33 H2          0.6434    1.1078    0.0664 H         1 <0>         0.0540
     34 H3         -0.8720    0.9828   -0.8590 H         1 <0>         0.0552
     35 H4         -0.8958    0.8222    0.9136 H         1 <0>         0.0567
     36 H5          0.4268   -1.2682    0.7419 H         1 <0>         0.0781
     37 H6         -1.0885   -1.3932   -0.1835 H         1 <0>         0.0771
     38 H7          1.4863   -2.9125   -2.4123 H         1 <0>         0.0505
     39 H8          1.6528   -2.9602   -0.6408 H         1 <0>         0.0527
     40 H9         -0.0973   -4.3929   -1.4091 H         1 <0>         0.3778
     41 H10        -1.0732   -0.7724   -2.5164 H         1 <0>         0.4155
     42 H11         0.9836    1.0879   -9.0164 H         1 <0>         0.2163
     43 H12        -2.1194    0.5568   -6.7235 H         1 <0>         0.1068
     44 H13        -1.0438    2.4533   -8.8597 H         1 <0>         0.0659
     45 H14        -2.7311    2.3714   -8.2988 H         1 <0>         0.0800
     46 H15        -1.4474    2.8987   -7.1843 H         1 <0>         0.0633
     47 H16        -1.1678    0.0647   -9.5817 H         1 <0>         0.0659
     48 H17        -1.6597   -1.1916   -8.4207 H         1 <0>         0.0632
     49 H18        -2.8551   -0.0173   -9.0209 H         1 <0>         0.0801
     50 H19         4.3674   -0.1461   -5.7963 H         1 <0>         0.4291
     51 H20         3.2286    0.4470   -2.5115 H         1 <0>         0.1380
     52 H21         4.4957   -0.0201   -0.4570 H         1 <0>         0.1291
     53 H22         6.6027   -1.2832   -0.5643 H         1 <0>         0.1265
     54 H23         6.1747   -1.6275   -4.8130 H         1 <0>         0.1367
     55 H24         8.0432   -2.3747   -0.6249 H         1 <0>         0.1384
     56 H25        10.1699   -3.6498   -0.7664 H         1 <0>         0.1371
     57 H26        11.0544   -4.2475   -3.0105 H         1 <0>         0.1364
     58 H27         9.8106   -3.5668   -5.0212 H         1 <0>         0.1584
@<TRIPOS>BOND
     1    1    2 1
     2    1   33 1
     3    1   34 1
     4    1   35 1
     5    2    3 1
     6    2   36 1
     7    2   37 1
     8    3    4 1
     9    3    5 1
    10    3    7 1
    11    5    6 1
    12    5   38 1
    13    5   39 1
    14    6   40 1
    15    7    8 1
    16    7   41 1
    17    8   13 ar
    18    8    9 ar
    19    9   10 ar
    20   10   11 ar
    21   10   20 1
    22   11   16 1
    23   11   12 ar
    24   12   13 ar
    25   12   14 1
    26   14   15 1
    27   14   17 1
    28   15   16 2
    29   15   42 1
    30   17   18 1
    31   17   19 1
    32   17   43 1
    33   18   44 1
    34   18   45 1
    35   18   46 1
    36   19   47 1
    37   19   48 1
    38   19   49 1
    39   20   21 1
    40   20   50 1
    41   21   26 ar
    42   21   22 ar
    43   22   23 ar
    44   22   51 1
    45   23   24 ar
    46   23   52 1
    47   24   25 ar
    48   24   53 1
    49   25   26 ar
    50   25   27 1
    51   26   54 1
    52   27   32 ar
    53   27   28 ar
    54   28   29 ar
    55   28   55 1
    56   29   30 ar
    57   29   56 1
    58   30   31 ar
    59   30   57 1
    60   31   32 ar
    61   31   58 1
@<TRIPOS>MOLECULE
ZINC05932684
   50    53     0     0     0
SMALL
USER_CHARGES
3-[3-[[(2S)-2,3-dihydroxypropyl]amino]phenyl]-4-(5-fluoro-1-methyl-indol-3-yl)pyrrole-2,5-dione
@<TRIPOS>ATOM
      1 C1          1.8520    4.5431    0.0093 C.3       1 <0>         0.0726
      2 N1          0.8716    3.4545    0.0123 N.pl3     1 <0>        -0.4693
      3 C2         -0.4742    3.6256    0.0261 C.2       1 <0>         0.1108
      4 C3         -1.0941    2.3952    0.0195 C.2       1 <0>        -0.1478
      5 C4         -0.0168    1.3885    0.0097 C.ar      1 <0>        -0.0457
      6 C5          1.1878    2.1100    0.0020 C.ar      1 <0>         0.0816
      7 C6          2.3956    1.4207   -0.0137 C.ar      1 <0>        -0.0897
      8 C7          2.4023    0.0424   -0.0211 C.ar      1 <0>        -0.1331
      9 C8          1.2107   -0.6707   -0.0131 C.ar      1 <0>         0.0833
     10 C9          0.0021   -0.0041    0.0020 C.ar      1 <0>        -0.1096
     11 F1          1.2344   -2.0214   -0.0206 F         1 <0>        -0.1388
     12 C10        -2.5397    2.1376    0.0230 C.2       1 <0>        -0.0174
     13 C11        -3.4166    2.2800   -1.0445 C.2       1 <0>        -0.0749
     14 C12        -4.7473    1.9011   -0.5367 C.2       1 <0>         0.5603
     15 O1         -5.7765    1.8987   -1.1830 O.2       1 <0>        -0.4467
     16 N2         -4.6360    1.5589    0.7576 N.am      1 <0>        -0.6894
     17 C13        -3.3599    1.6660    1.1659 C.2       1 <0>         0.5550
     18 O2         -2.9485    1.4209    2.2815 O.2       1 <0>        -0.4424
     19 C14        -3.0827    2.7229   -2.4137 C.ar      1 <0>         0.0137
     20 C15        -2.6250    4.0243   -2.6378 C.ar      1 <0>        -0.1476
     21 C16        -2.3089    4.4333   -3.9167 C.ar      1 <0>        -0.0706
     22 C17        -2.4532    3.5632   -4.9818 C.ar      1 <0>        -0.1871
     23 C18        -2.9132    2.2681   -4.7706 C.ar      1 <0>         0.2196
     24 C19        -3.2287    1.8450   -3.4888 C.ar      1 <0>        -0.1595
     25 N3         -3.0580    1.3936   -5.8502 N.pl3     1 <0>        -0.7407
     26 C20        -2.7246    1.8408   -7.2049 C.3       1 <0>         0.0967
     27 C21        -2.9706    0.6995   -8.1937 C.3       1 <0>         0.0964
     28 H1         -4.0196    0.4058   -8.1559 H         1 <0>         0.1125
     29 C22        -2.6224    1.1665   -9.6085 C.3       1 <0>         0.0474
     30 O3         -2.9614    0.1420  -10.5452 O.3       1 <0>        -0.5627
     31 O4         -2.1503   -0.4176   -7.8455 O.3       1 <0>        -0.5474
     32 H2          2.0857    4.8187   -1.0191 H         1 <0>         0.0769
     33 H3          1.4386    5.4058    0.5316 H         1 <0>         0.0888
     34 H4          2.7611    4.2147    0.5130 H         1 <0>         0.0861
     35 H5         -0.9814    4.5791    0.0355 H         1 <0>         0.1794
     36 H6          3.3282    1.9653   -0.0204 H         1 <0>         0.1325
     37 H7          3.3430   -0.4880   -0.0330 H         1 <0>         0.1410
     38 H8         -0.9241   -0.5595    0.0075 H         1 <0>         0.1323
     39 H9         -5.3732    1.2709    1.3184 H         1 <0>         0.4305
     40 H10        -2.5152    4.7084   -1.8094 H         1 <0>         0.1196
     41 H11        -1.9514    5.4381   -4.0874 H         1 <0>         0.1254
     42 H12        -2.2080    3.8907   -5.9813 H         1 <0>         0.1211
     43 H13        -3.5865    0.8396   -3.3228 H         1 <0>         0.1231
     44 H14        -3.3792    0.4903   -5.7030 H         1 <0>         0.4066
     45 H15        -3.3503    2.6929   -7.4705 H         1 <0>         0.0722
     46 H16        -1.6756    2.1345   -7.2427 H         1 <0>         0.0652
     47 H17        -3.1838    2.0715   -9.8408 H         1 <0>         0.0584
     48 H18        -1.5544    1.3757   -9.6695 H         1 <0>         0.0524
     49 H19        -2.7674    0.3699  -11.4648 H         1 <0>         0.3833
     50 H20        -1.2021   -0.2285   -7.8583 H         1 <0>         0.3759
@<TRIPOS>BOND
     1    1    2 1
     2    1   32 1
     3    1   33 1
     4    1   34 1
     5    2    6 1
     6    2    3 1
     7    3    4 2
     8    3   35 1
     9    4    5 1
    10    4   12 1
    11    5   10 ar
    12    5    6 ar
    13    6    7 ar
    14    7    8 ar
    15    7   36 1
    16    8    9 ar
    17    8   37 1
    18    9   10 ar
    19    9   11 1
    20   10   38 1
    21   12   17 1
    22   12   13 2
    23   13   14 1
    24   13   19 1
    25   14   15 2
    26   14   16 am
    27   16   17 am
    28   16   39 1
    29   17   18 2
    30   19   24 ar
    31   19   20 ar
    32   20   21 ar
    33   20   40 1
    34   21   22 ar
    35   21   41 1
    36   22   23 ar
    37   22   42 1
    38   23   24 ar
    39   23   25 1
    40   24   43 1
    41   25   26 1
    42   25   44 1
    43   26   27 1
    44   26   45 1
    45   26   46 1
    46   27   28 1
    47   27   29 1
    48   27   31 1
    49   29   30 1
    50   29   47 1
    51   29   48 1
    52   30   49 1
    53   31   50 1
@<TRIPOS>MOLECULE
ZINC12501080
   50    53     0     0     0
SMALL
USER_CHARGES
3-[3-[[(2R)-2,3-dihydroxypropyl]amino]phenyl]-4-(5-fluoro-1-methyl-indol-3-yl)pyrrole-2,5-dione
@<TRIPOS>ATOM
      1 C1          7.9960    8.6641    5.2309 C.3       1 <0>         0.0725
      2 N1          6.7497    9.1520    4.6353 N.pl3     1 <0>        -0.4693
      3 C2          6.6022    9.5111    3.3353 C.2       1 <0>         0.1109
      4 C3          5.3062    9.9245    3.1168 C.2       1 <0>        -0.1479
      5 C4          4.6061    9.7932    4.4078 C.ar      1 <0>        -0.0456
      6 C5          5.5586    9.3064    5.3175 C.ar      1 <0>         0.0816
      7 C6          5.1867    9.0788    6.6381 C.ar      1 <0>        -0.0896
      8 C7          3.8932    9.3299    7.0426 C.ar      1 <0>        -0.1332
      9 C8          2.9516    9.8113    6.1425 C.ar      1 <0>         0.0831
     10 C9          3.3022   10.0438    4.8279 C.ar      1 <0>        -0.1098
     11 F1          1.6878   10.0524    6.5549 F         1 <0>        -0.1389
     12 C10         4.7345   10.3959    1.8492 C.2       1 <0>        -0.0174
     13 C11         4.3897    9.6221    0.7487 C.2       1 <0>        -0.0750
     14 C12         3.8564   10.5555   -0.2594 C.2       1 <0>         0.5602
     15 O1          3.4446   10.2476   -1.3606 O.2       1 <0>        -0.4463
     16 N2          3.8999   11.8025    0.2386 N.am      1 <0>        -0.6894
     17 C13         4.4103   11.7964    1.4819 C.2       1 <0>         0.5551
     18 O2          4.5743   12.7713    2.1867 O.2       1 <0>        -0.4425
     19 C14         4.5245    8.1568    0.6175 C.ar      1 <0>         0.0137
     20 C15         5.7914    7.5666    0.6147 C.ar      1 <0>        -0.1477
     21 C16         5.9142    6.1981    0.4924 C.ar      1 <0>        -0.0706
     22 C17         4.7870    5.4053    0.3777 C.ar      1 <0>        -0.1870
     23 C18         3.5222    5.9828    0.3740 C.ar      1 <0>         0.2196
     24 C19         3.3872    7.3570    0.4963 C.ar      1 <0>        -0.1595
     25 N3          2.3871    5.1776    0.2529 N.pl3     1 <0>        -0.7410
     26 C20         2.5297    3.7253    0.1236 C.3       1 <0>         0.0972
     27 C21         1.1449    3.0852    0.0077 C.3       1 <0>         0.0964
     28 H1          0.5324    3.3879    0.8570 H         1 <0>         0.1122
     29 C22         1.2864    1.5618   -0.0018 C.3       1 <0>         0.0474
     30 O3         -0.0110    0.9628    0.0073 O.3       1 <0>        -0.5628
     31 O4          0.5223    3.5133   -1.2052 O.3       1 <0>        -0.5475
     32 H2          8.0425    7.5790    5.1383 H         1 <0>         0.0768
     33 H3          8.8452    9.1096    4.7126 H         1 <0>         0.0889
     34 H4          8.0278    8.9405    6.2848 H         1 <0>         0.0863
     35 H5          7.3811    9.4801    2.5878 H         1 <0>         0.1794
     36 H6          5.9110    8.7045    7.3464 H         1 <0>         0.1325
     37 H7          3.6094    9.1511    8.0692 H         1 <0>         0.1410
     38 H8          2.5690   10.4178    4.1286 H         1 <0>         0.1323
     39 H9          3.6042   12.5966   -0.2335 H         1 <0>         0.4306
     40 H10         6.6741    8.1818    0.7086 H         1 <0>         0.1196
     41 H11         6.8941    5.7438    0.4905 H         1 <0>         0.1255
     42 H12         4.8896    4.3340    0.2864 H         1 <0>         0.1211
     43 H13         2.4055    7.8070    0.4981 H         1 <0>         0.1231
     44 H14         1.5046    5.5800    0.2544 H         1 <0>         0.4060
     45 H15         3.0400    3.3307    1.0023 H         1 <0>         0.0714
     46 H16         3.1121    3.4953   -0.7686 H         1 <0>         0.0663
     47 H17         1.8401    1.2428    0.8812 H         1 <0>         0.0582
     48 H18         1.8231    1.2523   -0.8987 H         1 <0>         0.0528
     49 H19         0.0021   -0.0041    0.0020 H         1 <0>         0.3833
     50 H20         1.0134    3.2774   -2.0040 H         1 <0>         0.3762
@<TRIPOS>BOND
     1    1    2 1
     2    1   32 1
     3    1   33 1
     4    1   34 1
     5    2    6 1
     6    2    3 1
     7    3    4 2
     8    3   35 1
     9    4    5 1
    10    4   12 1
    11    5   10 ar
    12    5    6 ar
    13    6    7 ar
    14    7    8 ar
    15    7   36 1
    16    8    9 ar
    17    8   37 1
    18    9   10 ar
    19    9   11 1
    20   10   38 1
    21   12   17 1
    22   12   13 2
    23   13   14 1
    24   13   19 1
    25   14   15 2
    26   14   16 am
    27   16   17 am
    28   16   39 1
    29   17   18 2
    30   19   24 ar
    31   19   20 ar
    32   20   21 ar
    33   20   40 1
    34   21   22 ar
    35   21   41 1
    36   22   23 ar
    37   22   42 1
    38   23   24 ar
    39   23   25 1
    40   24   43 1
    41   25   26 1
    42   25   44 1
    43   26   27 1
    44   26   45 1
    45   26   46 1
    46   27   28 1
    47   27   29 1
    48   27   31 1
    49   29   30 1
    50   29   47 1
    51   29   48 1
    52   30   49 1
    53   31   50 1
@<TRIPOS>MOLECULE
ZINC58655676
   55    57     0     0     0
SMALL
USER_CHARGES

@<TRIPOS>ATOM
      1 C1          0.5488    1.6611   -0.2219 C.3       1 <0>        -0.1411
      2 C2          0.4334    0.1368   -0.1575 C.3       1 <0>        -0.0014
      3 C3          1.1752   -0.3791    1.0772 C.3       1 <0>        -0.1412
      4 C4         -1.0195   -0.2538   -0.0701 C.2       1 <0>        -0.2596
      5 C5         -1.9098    0.1168    0.9294 C.2       1 <0>         0.1117
      6 N1         -3.0838   -0.4099    0.6710 N.2       1 <0>        -0.3361
      7 N2         -2.9973   -1.1475   -0.5153 N.pl3     1 <0>        -0.3639
      8 C6         -1.7117   -1.0440   -0.9772 C.2       1 <0>         0.3466
      9 N3         -1.3417   -1.6548   -2.1127 N.2       1 <0>        -0.5767
     10 C7         -2.2072   -2.3671   -2.8134 C.2       1 <0>         0.4953
     11 C8         -3.5350   -2.4948   -2.3753 C.2       1 <0>        -0.3671
     12 C9         -3.9182   -1.8828   -1.2175 C.2       1 <0>         0.5060
     13 N4         -5.2172   -1.9910   -0.7665 N.pl3     1 <0>        -0.7101
     14 C10        -6.1925   -2.7789   -1.5242 C.3       1 <0>         0.1679
     15 C11        -7.5259   -2.7365   -0.8233 C.ar      1 <0>        -0.1184
     16 C12        -7.8360   -3.6880    0.1303 C.ar      1 <0>        -0.0961
     17 C13        -9.0591   -3.6491    0.7733 C.ar      1 <0>        -0.1212
     18 C14        -9.9719   -2.6584    0.4630 C.ar      1 <0>        -0.1053
     19 C15        -9.6614   -1.7064   -0.4899 C.ar      1 <0>        -0.1214
     20 C16        -8.4366   -1.7427   -1.1298 C.ar      1 <0>        -0.0963
     21 N5         -1.8032   -2.9889   -3.9834 N.pl3     1 <0>        -0.6918
     22 C17        -0.4184   -2.8566   -4.4427 C.3       1 <0>         0.1320
     23 H1         -0.0468   -1.8624   -4.1947 H         1 <0>         0.1085
     24 C18         0.4500   -3.9119   -3.7549 C.3       1 <0>         0.0700
     25 O1          0.0275   -5.2151   -4.1614 O.3       1 <0>        -0.5699
     26 C19        -0.3623   -3.0587   -5.9582 C.3       1 <0>         0.1075
     27 H2         -0.7661   -4.0395   -6.2092 H         1 <0>         0.1172
     28 C20        -1.1915   -1.9738   -6.6485 C.3       1 <0>         0.0440
     29 O2         -1.2351   -2.2295   -8.0537 O.3       1 <0>        -0.5625
     30 O3          0.9941   -2.9748   -6.4001 O.3       1 <0>        -0.5390
     31 H3          1.5996    1.9436   -0.2851 H         1 <0>         0.0538
     32 H4          0.0202    2.0286   -1.1015 H         1 <0>         0.0506
     33 H5          0.1086    2.0970    0.6749 H         1 <0>         0.0520
     34 H6          0.8736   -0.2992   -1.0543 H         1 <0>         0.0769
     35 H7          2.2261   -0.0966    1.0141 H         1 <0>         0.0538
     36 H8          0.7351    0.0569    1.9741 H         1 <0>         0.0520
     37 H9          1.0931   -1.4650    1.1232 H         1 <0>         0.0506
     38 H10        -1.6741    0.7374    1.7813 H         1 <0>         0.1890
     39 H11        -4.2442   -3.0761   -2.9458 H         1 <0>         0.1543
     40 H12        -5.4849   -1.5453    0.0524 H         1 <0>         0.4169
     41 H13        -6.2955   -2.3630   -2.5265 H         1 <0>         0.0824
     42 H14        -5.8507   -3.8116   -1.5927 H         1 <0>         0.0828
     43 H15        -7.1229   -4.4620    0.3727 H         1 <0>         0.1248
     44 H16        -9.3017   -4.3929    1.5178 H         1 <0>         0.1267
     45 H17       -10.9277   -2.6285    0.9648 H         1 <0>         0.1260
     46 H18       -10.3746   -0.9326   -0.7326 H         1 <0>         0.1266
     47 H19        -8.1925   -0.9967   -1.8716 H         1 <0>         0.1246
     48 H20        -2.4372   -3.5119   -4.4985 H         1 <0>         0.4145
     49 H21         1.4927   -3.7638   -4.0361 H         1 <0>         0.0598
     50 H22         0.3484   -3.8178   -2.6738 H         1 <0>         0.0555
     51 H23         0.5354   -5.9352   -3.7633 H         1 <0>         0.3813
     52 H24        -2.2046   -1.9800   -6.2464 H         1 <0>         0.0549
     53 H25        -0.7358   -0.9998   -6.4704 H         1 <0>         0.0491
     54 H26        -1.7454   -1.5796   -8.5561 H         1 <0>         0.3802
     55 H27         1.4409   -2.1559   -6.1452 H         1 <0>         0.3731
@<TRIPOS>BOND
     1    1    2 1
     2    1   31 1
     3    1   32 1
     4    1   33 1
     5    2    3 1
     6    2    4 1
     7    2   34 1
     8    3   35 1
     9    3   36 1
    10    3   37 1
    11    4    8 2
    12    4    5 1
    13    5    6 2
    14    5   38 1
    15    6    7 1
    16    7   12 1
    17    7    8 1
    18    8    9 1
    19    9   10 2
    20   10   11 1
    21   10   21 1
    22   11   12 2
    23   11   39 1
    24   12   13 1
    25   13   14 1
    26   13   40 1
    27   14   15 1
    28   14   41 1
    29   14   42 1
    30   15   20 ar
    31   15   16 ar
    32   16   17 ar
    33   16   43 1
    34   17   18 ar
    35   17   44 1
    36   18   19 ar
    37   18   45 1
    38   19   20 ar
    39   19   46 1
    40   20   47 1
    41   21   22 1
    42   21   48 1
    43   22   23 1
    44   22   24 1
    45   22   26 1
    46   24   25 1
    47   24   49 1
    48   24   50 1
    49   25   51 1
    50   26   27 1
    51   26   28 1
    52   26   30 1
    53   28   29 1
    54   28   52 1
    55   28   53 1
    56   29   54 1
    57   30   55 1
@<TRIPOS>MOLECULE
ZINC01493878
   48    50     0     0     0
SMALL
USER_CHARGES

@<TRIPOS>ATOM
      1 C1         -1.0955   -5.0083   -6.9234 C.3       1 <0>         0.0847
      2 N1         -1.5520   -4.3038   -5.7228 N.am      1 <0>        -0.7137
      3 C2         -1.8827   -5.0004   -4.6175 C.2       1 <0>         0.5696
      4 O1         -1.8023   -6.2129   -4.6168 O.2       1 <0>        -0.5284
      5 C3         -2.3445   -4.2878   -3.4031 C.ar      1 <0>         0.1129
      6 C4         -2.6788   -5.0128   -2.2640 C.ar      1 <0>        -0.1883
      7 C5         -3.1110   -4.3279   -1.1310 C.ar      1 <0>         0.1595
      8 C6         -3.1903   -2.9389   -1.1877 C.ar      1 <0>        -0.1766
      9 C7         -2.8404   -2.2885   -2.3571 C.ar      1 <0>         0.1349
     10 N2         -2.4302   -2.9626   -3.4105 N.ar      1 <0>        -0.4815
     11 O2         -3.4471   -4.9979    0.0005 O.3       1 <0>        -0.2437
     12 C8         -3.4462   -6.3570   -0.0383 C.ar      1 <0>         0.0568
     13 C9         -2.2447   -7.0505   -0.0178 C.ar      1 <0>        -0.1074
     14 C10        -2.2431   -8.4307   -0.0577 C.ar      1 <0>        -0.1009
     15 C11        -3.4442   -9.1246   -0.1179 C.ar      1 <0>         0.1671
     16 C12        -4.6464   -8.4301   -0.1379 C.ar      1 <0>        -0.1272
     17 C13        -4.6469   -7.0500   -0.0928 C.ar      1 <0>        -0.0940
     18 N3         -3.4432  -10.5252   -0.1588 N.am      1 <0>        -0.6776
     19 C14        -2.5108  -11.2187    0.5239 C.2       1 <0>         0.7077
     20 O3         -1.6217  -10.6297    1.1080 O.2       1 <0>        -0.5493
     21 N4         -2.5639  -12.5649    0.5593 N.am      1 <0>        -0.6795
     22 C15        -1.6655  -13.2800    1.3600 C.ar      1 <0>         0.1700
     23 C16        -1.2529  -12.7583    2.5792 C.ar      1 <0>        -0.0742
     24 C17        -0.3670  -13.4659    3.3674 C.ar      1 <0>        -0.0871
     25 C18         0.1097  -14.6941    2.9434 C.ar      1 <0>        -0.0077
     26 C19        -0.2993  -15.2159    1.7290 C.ar      1 <0>        -0.1564
     27 C20        -1.1898  -14.5147    0.9394 C.ar      1 <0>        -0.0879
     28 C21         0.2222  -16.5533    1.2702 C.3       1 <0>         0.5112
     29 F1         -0.3299  -16.8663    0.0234 F         1 <0>        -0.1743
     30 F2          1.6160  -16.4983    1.1626 F         1 <0>        -0.1671
     31 F3         -0.1354  -17.5367    2.1987 F         1 <0>        -0.1677
     32 Cl1         1.2234  -15.5812    3.9366 Cl        1 <0>        -0.0394
     33 H1         -0.8760   -4.2843   -7.7081 H         1 <0>         0.0803
     34 H2         -0.1948   -5.5764   -6.6909 H         1 <0>         0.0631
     35 H3         -1.8761   -5.6883   -7.2645 H         1 <0>         0.0629
     36 H4         -1.6162   -3.3359   -5.7233 H         1 <0>         0.4141
     37 H5         -2.6047   -6.0902   -2.2584 H         1 <0>         0.1546
     38 H6         -3.5217   -2.3755   -0.3280 H         1 <0>         0.1523
     39 H7         -2.9005   -1.2112   -2.4052 H         1 <0>         0.1747
     40 H8         -1.3104   -6.5106    0.0290 H         1 <0>         0.1364
     41 H9         -1.3078   -8.9704   -0.0424 H         1 <0>         0.1514
     42 H10        -5.5809   -8.9693   -0.1851 H         1 <0>         0.1386
     43 H11        -5.5820   -6.5098   -0.1039 H         1 <0>         0.1400
     44 H12        -4.1137  -10.9957   -0.6785 H         1 <0>         0.4131
     45 H13        -3.2246  -13.0383    0.0299 H         1 <0>         0.4146
     46 H14        -1.6244  -11.7997    2.9103 H         1 <0>         0.1546
     47 H15        -0.0456  -13.0604    4.3154 H         1 <0>         0.1524
     48 H16        -1.5123  -14.9245   -0.0064 H         1 <0>         0.1525
@<TRIPOS>BOND
     1    1    2 1
     2    1   33 1
     3    1   34 1
     4    1   35 1
     5    2    3 am
     6    2   36 1
     7    3    4 2
     8    3    5 1
     9    5   10 ar
    10    5    6 ar
    11    6    7 ar
    12    6   37 1
    13    7    8 ar
    14    7   11 1
    15    8    9 ar
    16    8   38 1
    17    9   10 ar
    18    9   39 1
    19   11   12 1
    20   12   17 ar
    21   12   13 ar
    22   13   14 ar
    23   13   40 1
    24   14   15 ar
    25   14   41 1
    26   15   16 ar
    27   15   18 1
    28   16   17 ar
    29   16   42 1
    30   17   43 1
    31   18   19 am
    32   18   44 1
    33   19   20 2
    34   19   21 am
    35   21   22 1
    36   21   45 1
    37   22   27 ar
    38   22   23 ar
    39   23   24 ar
    40   23   46 1
    41   24   25 ar
    42   24   47 1
    43   25   26 ar
    44   25   32 1
    45   26   27 ar
    46   26   28 1
    47   27   48 1
    48   28   29 1
    49   28   30 1
    50   28   31 1
@<TRIPOS>MOLECULE
ZINC01649340
   52    54     0     0     0
SMALL
USER_CHARGES

@<TRIPOS>ATOM
      1 C1         -0.0187    1.5258    0.0104 C.3       1 <0>        -0.1531
      2 C2          0.0021   -0.0041    0.0020 C.3       1 <0>        -0.1278
      3 C3         -1.4333   -0.5336    0.0129 C.3       1 <0>         0.1689
      4 H1         -1.9701   -0.1109    0.8621 H         1 <0>         0.1030
      5 C4         -1.4133   -2.0590    0.1302 C.3       1 <0>         0.0625
      6 O1         -0.6117   -2.6069   -0.9183 O.3       1 <0>        -0.5692
      7 N1         -2.1054   -0.1483   -1.2305 N.pl3     1 <0>        -0.6816
      8 C5         -3.4856   -0.0365   -1.2658 C.ar      1 <0>         0.6305
      9 N2         -4.1766   -0.2783   -0.1589 N.ar      1 <0>        -0.6256
     10 C6         -5.5013   -0.1844   -0.1423 C.ar      1 <0>         0.5407
     11 C7         -6.1646    0.1788   -1.3275 C.ar      1 <0>        -0.1560
     12 C8         -5.3921    0.4251   -2.4741 C.ar      1 <0>         0.3485
     13 N3         -4.0693    0.3129   -2.4004 N.ar      1 <0>        -0.6161
     14 N4         -6.2808    0.7538   -3.4662 N.pl3     1 <0>        -0.4704
     15 C9         -7.5330    0.7038   -2.9264 C.2       1 <0>         0.2320
     16 N5         -7.4624    0.3664   -1.6720 N.2       1 <0>        -0.4548
     17 C10        -5.9467    1.0964   -4.8508 C.3       1 <0>         0.1344
     18 C11        -6.6196    0.1019   -5.7989 C.3       1 <0>        -0.1626
     19 C12        -6.4419    2.5107   -5.1599 C.3       1 <0>        -0.1626
     20 N6         -6.2133   -0.4389    1.0165 N.pl3     1 <0>        -0.6899
     21 C13        -5.5062   -0.8166    2.2427 C.3       1 <0>         0.1717
     22 C14        -6.5039   -1.0364    3.3505 C.ar      1 <0>        -0.1135
     23 C15        -6.8801    0.0183    4.1611 C.ar      1 <0>        -0.0982
     24 C16        -7.7953   -0.1833    5.1773 C.ar      1 <0>        -0.1219
     25 C17        -8.3347   -1.4394    5.3826 C.ar      1 <0>        -0.1101
     26 C18        -7.9592   -2.4939    4.5714 C.ar      1 <0>        -0.1221
     27 C19        -7.0472   -2.2913    3.5524 C.ar      1 <0>        -0.0986
     28 H2          1.0039    1.9031    0.0027 H         1 <0>         0.0563
     29 H3         -0.5459    1.8868   -0.8726 H         1 <0>         0.0552
     30 H4         -0.5289    1.8773    0.9072 H         1 <0>         0.0537
     31 H5          0.5123   -0.3556   -0.8948 H         1 <0>         0.0768
     32 H6          0.5293   -0.3651    0.8851 H         1 <0>         0.0774
     33 H7         -0.9936   -2.3437    1.0951 H         1 <0>         0.0524
     34 H8         -2.4301   -2.4431    0.0488 H         1 <0>         0.0503
     35 H9         -0.5540   -3.5721   -0.9058 H         1 <0>         0.3776
     36 H10        -1.5839    0.0285   -2.0291 H         1 <0>         0.4145
     37 H11        -8.4474    0.9139   -3.4613 H         1 <0>         0.2138
     38 H12        -4.8660    1.0524   -4.9853 H         1 <0>         0.1061
     39 H13        -7.7004    0.1459   -5.6644 H         1 <0>         0.0654
     40 H14        -6.3710    0.3568   -6.8291 H         1 <0>         0.0793
     41 H15        -6.2668   -0.9057   -5.5787 H         1 <0>         0.0629
     42 H16        -5.9625    3.2193   -4.4845 H         1 <0>         0.0629
     43 H17        -6.1933    2.7656   -6.1901 H         1 <0>         0.0793
     44 H18        -7.5227    2.5547   -5.0254 H         1 <0>         0.0654
     45 H19        -7.1807   -0.3672    1.0169 H         1 <0>         0.4195
     46 H20        -4.9460   -1.7357    2.0706 H         1 <0>         0.0763
     47 H21        -4.8186   -0.0196    2.5258 H         1 <0>         0.0773
     48 H22        -6.4587    0.9996    4.0008 H         1 <0>         0.1237
     49 H23        -8.0886    0.6405    5.8111 H         1 <0>         0.1245
     50 H24        -9.0492   -1.5971    6.1770 H         1 <0>         0.1237
     51 H25        -8.3804   -3.4753    4.7320 H         1 <0>         0.1244
     52 H26        -6.7567   -3.1143    2.9163 H         1 <0>         0.1232
@<TRIPOS>BOND
     1    1    2 1
     2    1   28 1
     3    1   29 1
     4    1   30 1
     5    2    3 1
     6    2   31 1
     7    2   32 1
     8    3    4 1
     9    3    5 1
    10    3    7 1
    11    5    6 1
    12    5   33 1
    13    5   34 1
    14    6   35 1
    15    7    8 1
    16    7   36 1
    17    8   13 ar
    18    8    9 ar
    19    9   10 ar
    20   10   11 ar
    21   10   20 1
    22   11   16 1
    23   11   12 ar
    24   12   13 ar
    25   12   14 1
    26   14   15 1
    27   14   17 1
    28   15   16 2
    29   15   37 1
    30   17   18 1
    31   17   19 1
    32   17   38 1
    33   18   39 1
    34   18   40 1
    35   18   41 1
    36   19   42 1
    37   19   43 1
    38   19   44 1
    39   20   21 1
    40   20   45 1
    41   21   22 1
    42   21   46 1
    43   21   47 1
    44   22   27 ar
    45   22   23 ar
    46   23   24 ar
    47   23   48 1
    48   24   25 ar
    49   24   49 1
    50   25   26 ar
    51   25   50 1
    52   26   27 ar
    53   26   51 1
    54   27   52 1
@<TRIPOS>MOLECULE
ZINC03814434
   62    69     0     0     0
SMALL
USER_CHARGES

@<TRIPOS>ATOM
      1 C1         -0.1295    1.5952   -0.2973 C.3       1 <0>        -0.1687
      2 C2         -0.0862    0.0696   -0.1900 C.3       1 <0>         0.3342
      3 C3          0.5692   -0.4501   -1.4637 C.3       1 <0>         0.0405
      4 H1          1.4796    0.1159   -1.6612 H         1 <0>         0.1372
      5 C4          0.9167   -1.9328   -1.2889 C.3       1 <0>        -0.0061
      6 H2          1.3963   -2.3075   -2.1932 H         1 <0>         0.1555
      7 C5          1.8785   -2.0596   -0.1021 C.3       1 <0>        -0.1827
      8 C6          1.2061   -1.5198    1.1541 C.3       1 <0>         0.2999
      9 H3          1.9797   -1.4243    1.9161 H         1 <0>         0.1550
     10 O1          0.6555   -0.2442    0.9666 O.3       1 <0>        -0.3234
     11 N1          0.2189   -2.4746    1.6600 N.pl3     1 <0>        -0.5366
     12 C7          0.4705   -3.5508    2.4739 C.ar      1 <0>         0.1469
     13 C8          1.6649   -4.0152    3.0240 C.ar      1 <0>        -0.1522
     14 C9          1.5948   -5.1456    3.8201 C.ar      1 <0>        -0.0582
     15 C10         0.4006   -5.7997    4.0696 C.ar      1 <0>        -0.1457
     16 C11        -0.7984   -5.3597    3.5358 C.ar      1 <0>        -0.0280
     17 C12        -0.7487   -4.2198    2.7307 C.ar      1 <0>        -0.1131
     18 C13        -1.7893   -3.4830    2.0197 C.ar      1 <0>         0.0276
     19 C14        -1.1442   -2.4197    1.3841 C.ar      1 <0>         0.0376
     20 C15        -1.8806   -1.5095    0.6175 C.ar      1 <0>         0.0894
     21 N2         -1.4718   -0.3951   -0.1095 N.pl3     1 <0>        -0.5183
     22 C16        -2.5611    0.1913   -0.7090 C.ar      1 <0>         0.1618
     23 C17        -2.6521    1.3277   -1.5118 C.ar      1 <0>        -0.1305
     24 C18        -3.9109    1.6745   -1.9733 C.ar      1 <0>        -0.0737
     25 C19        -5.0393    0.9368   -1.6616 C.ar      1 <0>        -0.1358
     26 C20        -4.9745   -0.1955   -0.8662 C.ar      1 <0>        -0.0503
     27 C21        -3.7147   -0.5596   -0.3919 C.ar      1 <0>        -0.1042
     28 C22        -3.2693   -1.6660    0.4845 C.ar      1 <0>        -0.0360
     29 C23        -3.9084   -2.7313    1.1102 C.ar      1 <0>        -0.0288
     30 C24        -3.1873   -3.6421    1.8754 C.ar      1 <0>        -0.1255
     31 C25        -4.1221   -4.6480    2.4030 C.2       1 <0>         0.5632
     32 O2         -3.8062   -5.5851    3.1110 O.2       1 <0>        -0.5106
     33 N3         -5.3744   -4.3851    1.9926 N.am      1 <0>        -0.7162
     34 C26        -5.3495   -3.1771    1.1601 C.3       1 <0>         0.1358
     35 N4         -0.3067   -2.7008   -1.0216 N.4       1 <0>        -0.5252
     36 C27         0.0145   -4.1336   -0.9773 C.3       1 <0>        -0.0497
     37 O3         -0.3340   -0.2979   -2.5607 O.3       1 <0>        -0.3614
     38 C28         0.3101   -0.0933   -3.8198 C.3       1 <0>         0.0162
     39 H4          0.8261    2.0094    0.0240 H         1 <0>         0.0984
     40 H5         -0.3202    1.8814   -1.3317 H         1 <0>         0.1036
     41 H6         -0.9255    1.9818    0.3392 H         1 <0>         0.0921
     42 H7          2.1370   -3.1081    0.0458 H         1 <0>         0.1233
     43 H8          2.7835   -1.4869   -0.3048 H         1 <0>         0.1455
     44 H9          2.6036   -3.5149    2.8368 H         1 <0>         0.1365
     45 H10         2.5026   -5.5304    4.2610 H         1 <0>         0.1359
     46 H11         0.4045   -6.6780    4.6980 H         1 <0>         0.1352
     47 H12        -1.7278   -5.8736    3.7323 H         1 <0>         0.1600
     48 H13        -1.7792    1.9122   -1.7624 H         1 <0>         0.1440
     49 H14        -4.0153    2.5500   -2.5970 H         1 <0>         0.1336
     50 H15        -5.9967    1.2527   -2.0488 H         1 <0>         0.1332
     51 H16        -5.8575   -0.7687   -0.6249 H         1 <0>         0.1415
     52 H17        -6.1628   -4.9065    2.2103 H         1 <0>         0.4348
     53 H18        -5.9671   -2.3994    1.6094 H         1 <0>         0.1115
     54 H19        -5.7060   -3.4063    0.1559 H         1 <0>         0.1103
     55 H20        -0.6958   -2.4158   -0.1353 H         1 <0>         0.4186
     56 H21         0.4349   -4.4415   -1.9347 H         1 <0>         0.1256
     57 H22         0.7403   -4.3189   -0.1854 H         1 <0>         0.1191
     58 H23        -0.8932   -4.7035   -0.7789 H         1 <0>         0.1256
     59 H24         0.9168    0.8112   -3.7748 H         1 <0>         0.0633
     60 H25         0.9482   -0.9479   -4.0446 H         1 <0>         0.0514
     61 H26        -0.4433    0.0130   -4.6003 H         1 <0>         0.1100
     62 H27        -0.9785   -2.5293   -1.7546 H         1 <0>         0.4274
@<TRIPOS>BOND
     1    1    2 1
     2    1   39 1
     3    1   40 1
     4    1   41 1
     5    2   10 1
     6    2   21 1
     7    2    3 1
     8    3    4 1
     9    3    5 1
    10    3   37 1
    11    5    6 1
    12    5    7 1
    13    5   35 1
    14    7    8 1
    15    7   42 1
    16    7   43 1
    17    8    9 1
    18    8   10 1
    19    8   11 1
    20   11   19 1
    21   11   12 1
    22   12   17 ar
    23   12   13 ar
    24   13   14 ar
    25   13   44 1
    26   14   15 ar
    27   14   45 1
    28   15   16 ar
    29   15   46 1
    30   16   17 ar
    31   16   47 1
    32   17   18 1
    33   18   30 ar
    34   18   19 ar
    35   19   20 ar
    36   20   28 ar
    37   20   21 1
    38   21   22 1
    39   22   27 ar
    40   22   23 ar
    41   23   24 ar
    42   23   48 1
    43   24   25 ar
    44   24   49 1
    45   25   26 ar
    46   25   50 1
    47   26   27 ar
    48   26   51 1
    49   27   28 1
    50   28   29 ar
    51   29   34 1
    52   29   30 ar
    53   30   31 1
    54   31   32 2
    55   31   33 am
    56   33   34 1
    57   33   52 1
    58   34   53 1
    59   34   54 1
    60   35   36 1
    61   35   55 1
    62   35   62 1
    63   36   56 1
    64   36   57 1
    65   36   58 1
    66   37   38 1
    67   38   59 1
    68   38   60 1
    69   38   61 1
@<TRIPOS>MOLECULE
ZINC28396457
   25    26     0     0     0
SMALL
USER_CHARGES
N-(5-bromothiazol-2-yl)-2-phenyl-acetamide
@<TRIPOS>ATOM
      1 C1          5.0248    8.0092   -0.0027 C.ar      1 <0>        -0.1150
      2 C2          5.0605    7.3122    1.1905 C.ar      1 <0>        -0.1186
      3 C3          5.1091    5.9307    1.1828 C.ar      1 <0>        -0.1030
      4 C4          5.1227    5.2463   -0.0181 C.ar      1 <0>        -0.0774
      5 C5          5.0928    5.9435   -1.2114 C.ar      1 <0>        -0.1031
      6 C6          5.0384    7.3248   -1.2036 C.ar      1 <0>        -0.1186
      7 C7          5.1762    3.7403   -0.0265 C.3       1 <0>        -0.0944
      8 C8          3.7741    3.1877   -0.0165 C.2       1 <0>         0.5087
      9 O1          2.8249    3.9426   -0.0038 O.2       1 <0>        -0.4552
     10 N1          3.5751    1.8548   -0.0217 N.am      1 <0>        -0.6356
     11 C9          2.2816    1.3450   -0.0125 C.2       1 <0>         0.3251
     12 N2          1.1351    1.9958    0.0019 N.2       1 <0>        -0.5176
     13 C10        -0.0163    1.3520    0.0095 C.2       1 <0>         0.1136
     14 C11         0.0021   -0.0041    0.0020 C.2       1 <0>        -0.2428
     15 S1          1.7621   -0.3119   -0.0164 S.3       1 <0>         0.1073
     16 Br1        -1.4374   -1.2304    0.0092 Br        1 <0>         0.0551
     17 H1          4.9861    9.0885    0.0034 H         1 <0>         0.1229
     18 H2          5.0499    7.8469    2.1288 H         1 <0>         0.1235
     19 H3          5.1369    5.3862    2.1151 H         1 <0>         0.1202
     20 H4          5.1078    5.4089   -2.1497 H         1 <0>         0.1203
     21 H5          5.0102    7.8694   -2.1359 H         1 <0>         0.1235
     22 H6          5.6992    3.3970   -0.9313 H         1 <0>         0.1124
     23 H7          5.7157    3.3876    0.8649 H         1 <0>         0.1124
     24 H8          4.4360    1.1702   -0.0332 H         1 <0>         0.4566
     25 H9         -0.9515    1.8921    0.0169 H         1 <0>         0.1796
@<TRIPOS>BOND
     1    1    6 ar
     2    1    2 ar
     3    1   17 1
     4    2    3 ar
     5    2   18 1
     6    3    4 ar
     7    3   19 1
     8    4    5 ar
     9    4    7 1
    10    5    6 ar
    11    5   20 1
    12    6   21 1
    13    7    8 1
    14    7   22 1
    15    7   23 1
    16    8    9 2
    17    8   10 am
    18   10   11 1
    19   10   24 1
    20   11   15 1
    21   11   12 2
    22   12   13 1
    23   13   14 2
    24   13   25 1
    25   14   15 1
    26   14   16 1
@<TRIPOS>MOLECULE
ZINC28397515
   35    37     0     0     0
SMALL
USER_CHARGES

@<TRIPOS>ATOM
      1 C1         -0.0167    1.3781    0.0096 C.ar      1 <0>        -0.1153
      2 C2          1.1709    2.0855    0.0021 C.ar      1 <0>        -0.1187
      3 C3          2.3773    1.4107   -0.0130 C.ar      1 <0>        -0.1028
      4 C4          2.3960    0.0285   -0.0201 C.ar      1 <0>        -0.0766
      5 C5          1.2084   -0.6789   -0.0117 C.ar      1 <0>        -0.1028
      6 C6          0.0021   -0.0041    0.0020 C.ar      1 <0>        -0.1187
      7 C7          3.7112   -0.7071   -0.0376 C.3       1 <0>        -0.0939
      8 C8          4.1644   -0.9594    1.3773 C.2       1 <0>         0.5058
      9 O1          3.4863   -0.5793    2.3082 O.2       1 <0>        -0.4540
     10 N1          5.3234   -1.6075    1.6082 N.am      1 <0>        -0.6244
     11 C9          5.7410   -1.8399    2.9117 C.2       1 <0>         0.2671
     12 N2          5.1374   -1.5080    4.0340 N.2       1 <0>        -0.5164
     13 C10         5.6625   -1.7997    5.2050 C.2       1 <0>         0.0807
     14 C11         6.8617   -2.4622    5.1943 C.2       1 <0>        -0.1811
     15 S1          7.1365   -2.6201    3.4370 S.3       1 <0>         0.1329
     16 C12         7.6948   -2.9234    6.3246 C.ar      1 <0>         0.0071
     17 C13         7.2787   -2.7014    7.6385 C.ar      1 <0>        -0.1021
     18 C14         8.0610   -3.1345    8.6889 C.ar      1 <0>        -0.1112
     19 C15         9.2557   -3.7877    8.4425 C.ar      1 <0>        -0.1171
     20 C16         9.6741   -4.0105    7.1426 C.ar      1 <0>        -0.1117
     21 C17         8.8983   -3.5881    6.0830 C.ar      1 <0>        -0.1126
     22 H1         -0.9591    1.9053    0.0259 H         1 <0>         0.1228
     23 H2          1.1563    3.1654    0.0076 H         1 <0>         0.1234
     24 H3          3.3051    1.9634   -0.0196 H         1 <0>         0.1202
     25 H4          1.2231   -1.7588   -0.0176 H         1 <0>         0.1202
     26 H5         -0.9258   -0.5567    0.0082 H         1 <0>         0.1234
     27 H6          3.5884   -1.6586   -0.5549 H         1 <0>         0.1104
     28 H7          4.4573   -0.1052   -0.5563 H         1 <0>         0.1104
     29 H8          5.8657   -1.9115    0.8637 H         1 <0>         0.4265
     30 H9          5.1725   -1.5298    6.1288 H         1 <0>         0.1774
     31 H10         6.3466   -2.1914    7.8322 H         1 <0>         0.1273
     32 H11         7.7405   -2.9631    9.7059 H         1 <0>         0.1286
     33 H12         9.8644   -4.1247    9.2684 H         1 <0>         0.1257
     34 H13        10.6078   -4.5206    6.9571 H         1 <0>         0.1274
     35 H14         9.2237   -3.7669    5.0688 H         1 <0>         0.1221
@<TRIPOS>BOND
     1    1    6 ar
     2    1    2 ar
     3    1   22 1
     4    2    3 ar
     5    2   23 1
     6    3    4 ar
     7    3   24 1
     8    4    5 ar
     9    4    7 1
    10    5    6 ar
    11    5   25 1
    12    6   26 1
    13    7    8 1
    14    7   27 1
    15    7   28 1
    16    8    9 2
    17    8   10 am
    18   10   11 1
    19   10   29 1
    20   11   15 1
    21   11   12 2
    22   12   13 1
    23   13   14 2
    24   13   30 1
    25   14   15 1
    26   14   16 1
    27   16   21 ar
    28   16   17 ar
    29   17   18 ar
    30   17   31 1
    31   18   19 ar
    32   18   32 1
    33   19   20 ar
    34   19   33 1
    35   20   21 ar
    36   20   34 1
    37   21   35 1
@<TRIPOS>MOLECULE
ZINC03938688
   39    41     0     0     0
SMALL
USER_CHARGES

@<TRIPOS>ATOM
      1 C1         -0.0095    1.3826    0.0704 C.ar      1 <0>        -0.0343
      2 C2          0.5587    1.0580   -1.1482 C.ar      1 <0>        -0.1609
      3 C3          1.7655    0.3862   -1.1955 C.ar      1 <0>         0.1753
      4 C4          2.4129    0.0342   -0.0053 C.ar      1 <0>        -0.1954
      5 C5          1.8304    0.3669    1.2233 C.ar      1 <0>         0.1741
      6 C6          0.6231    1.0388    1.2514 C.ar      1 <0>        -0.1610
      7 F1          2.4463    0.0317    2.3781 F         1 <0>        -0.1212
      8 C7          3.6999   -0.6827   -0.0456 C.2       1 <0>         0.6210
      9 O1          4.7383   -0.0615   -0.1600 O.2       1 <0>        -0.4669
     10 N1          3.7255   -2.0272    0.0446 N.am      1 <0>        -0.3962
     11 C8          4.8314   -2.8210    0.1249 C.2       1 <0>         0.5948
     12 N2          4.4249   -4.0694    0.1979 N.2       1 <0>        -0.5873
     13 C9          3.0869   -4.1118    0.1675 C.2       1 <0>         0.5191
     14 N3          2.6183   -2.8904    0.0808 N.2       1 <0>        -0.3480
     15 N4          2.3148   -5.2702    0.2247 N.pl3     1 <0>        -0.6226
     16 C10         2.9267   -6.5079    0.4407 C.ar      1 <0>         0.2365
     17 C11         4.1432   -6.5760    1.1080 C.ar      1 <0>        -0.1584
     18 C12         4.7450   -7.8008    1.3202 C.ar      1 <0>         0.0098
     19 C13         4.1379   -8.9586    0.8692 C.ar      1 <0>        -0.7033
     20 C14         2.9269   -8.8944    0.2046 C.ar      1 <0>         0.0112
     21 C15         2.3170   -7.6734   -0.0063 C.ar      1 <0>        -0.1777
     22 S1          4.9094  -10.5191    1.1415 S.o2      1 <0>         2.7034
     23 O2          4.4084  -11.3993    0.1448 O.2       1 <0>        -0.9656
     24 O3          6.2977  -10.2630    1.3036 O.2       1 <0>        -0.9650
     25 N5          4.3605  -11.0895    2.5960 N.pl3     1 <0>        -1.2510
     26 N6          6.1422   -2.3912    0.1281 N.pl3     1 <0>        -0.7911
     27 F2          2.3185    0.0697   -2.3868 F         1 <0>        -0.1201
     28 H1         -0.9506    1.9116    0.0998 H         1 <0>         0.1546
     29 H2          0.0576    1.3300   -2.0654 H         1 <0>         0.1549
     30 H3          0.1721    1.2963    2.1984 H         1 <0>         0.1546
     31 H4          1.3525   -5.2176    0.1147 H         1 <0>         0.4325
     32 H5          4.6180   -5.6722    1.4601 H         1 <0>         0.1556
     33 H6          5.6909   -7.8544    1.8385 H         1 <0>         0.1456
     34 H7          2.4556   -9.8005   -0.1466 H         1 <0>         0.1475
     35 H8          1.3691   -7.6243   -0.5215 H         1 <0>         0.1387
     36 H9          3.7284  -10.5673    3.1145 H         1 <0>         0.4165
     37 H10         4.6709  -11.9458    2.9296 H         1 <0>         0.4206
     38 H11         6.3422   -1.4439    0.0694 H         1 <0>         0.4292
     39 H12         6.8640   -3.0364    0.1890 H         1 <0>         0.4303
@<TRIPOS>BOND
     1    1    6 ar
     2    1    2 ar
     3    1   28 1
     4    2    3 ar
     5    2   29 1
     6    3    4 ar
     7    3   27 1
     8    4    5 ar
     9    4    8 1
    10    5    6 ar
    11    5    7 1
    12    6   30 1
    13    8    9 2
    14    8   10 am
    15   10   14 1
    16   10   11 1
    17   11   12 2
    18   11   26 1
    19   12   13 1
    20   13   14 2
    21   13   15 1
    22   15   16 1
    23   15   31 1
    24   16   21 ar
    25   16   17 ar
    26   17   18 ar
    27   17   32 1
    28   18   19 ar
    29   18   33 1
    30   19   20 ar
    31   19   22 1
    32   20   21 ar
    33   20   34 1
    34   21   35 1
    35   22   23 2
    36   22   24 2
    37   22   25 1
    38   25   36 1
    39   25   37 1
    40   26   38 1
    41   26   39 1
@<TRIPOS>MOLECULE
ZINC16052718
   27    29     0     0     0
SMALL
USER_CHARGES
2-(4-pyridyl)-1,5,6,7-tetrahydropyrrolo[3,2-c]pyridin-4-one
@<TRIPOS>ATOM
      1 C1         -1.2211    1.7394    0.0173 C.ar      1 <0>        -0.1847
      2 C2         -0.0126    1.0758    0.0080 C.ar      1 <0>         0.1111
      3 N1          1.1266    1.7422    0.0007 N.ar      1 <0>        -0.4905
      4 C3          1.1665    3.0614    0.0069 C.ar      1 <0>         0.1119
      5 C4          0.0054    3.8049    0.0215 C.ar      1 <0>        -0.1618
      6 C5         -1.2265    3.1395    0.0297 C.ar      1 <0>         0.0379
      7 C6         -2.4974    3.8941    0.0449 C.2       1 <0>         0.0152
      8 C7         -2.6168    5.2527    0.0519 C.2       1 <0>        -0.0780
      9 C8         -3.9881    5.5373    0.0657 C.2       1 <0>        -0.2330
     10 C9         -4.6662    4.3225    0.0683 C.2       1 <0>         0.0775
     11 N2         -3.7609    3.3429    0.0484 N.pl3     1 <0>        -0.5119
     12 H1         -3.9600    2.3935    0.0405 H         1 <0>         0.4194
     13 C10        -6.1725    4.2736    0.0855 C.3       1 <0>        -0.0706
     14 C11        -6.6980    5.5192    0.7998 C.3       1 <0>         0.1242
     15 N3         -6.0502    6.7447    0.3531 N.am      1 <0>        -0.7362
     16 C12        -4.7270    6.8120    0.0741 C.2       1 <0>         0.5975
     17 O1         -4.1760    7.8712   -0.1574 O.2       1 <0>        -0.5324
     18 H2         -2.1495    1.1876    0.0191 H         1 <0>         0.1271
     19 H3          0.0021   -0.0041    0.0020 H         1 <0>         0.1582
     20 H4          2.1216    3.5654    0.0002 H         1 <0>         0.1618
     21 H5          0.0456    4.8841    0.0262 H         1 <0>         0.1422
     22 H6         -1.8098    5.9704    0.0479 H         1 <0>         0.1542
     23 H7         -6.5491    4.2527   -0.9371 H         1 <0>         0.0964
     24 H8         -6.5030    3.3798    0.6148 H         1 <0>         0.0985
     25 H9         -7.7696    5.6022    0.6183 H         1 <0>         0.0948
     26 H10        -6.5315    5.4063    1.8710 H         1 <0>         0.0675
     27 H11        -6.5885    7.5452    0.2514 H         1 <0>         0.4040
@<TRIPOS>BOND
     1    1    6 ar
     2    1    2 ar
     3    1   18 1
     4    2    3 ar
     5    2   19 1
     6    3    4 ar
     7    4    5 ar
     8    4   20 1
     9    5    6 ar
    10    5   21 1
    11    6    7 1
    12    7   11 1
    13    7    8 2
    14    8    9 1
    15    8   22 1
    16    9   16 1
    17    9   10 2
    18   10   11 1
    19   10   13 1
    20   11   12 1
    21   13   14 1
    22   13   23 1
    23   13   24 1
    24   14   15 1
    25   14   25 1
    26   14   26 1
    27   15   16 am
    28   15   27 1
    29   16   17 2
@<TRIPOS>MOLECULE
ZINC00582590
   54    56     0     0     0
SMALL
USER_CHARGES

@<TRIPOS>ATOM
      1 C1          0.3210   -0.2542   -0.2950 C.3       1 <0>        -0.1471
      2 C2         -0.6989    0.1485    0.7720 C.3       1 <0>        -0.0980
      3 C3         -0.9526    1.6552    0.6922 C.3       1 <0>        -0.1473
      4 C4         -2.0102   -0.6029    0.5335 C.3       1 <0>         0.1711
      5 H1         -2.4152   -0.3269   -0.4401 H         1 <0>         0.1082
      6 C5         -3.0151   -0.2346    1.6269 C.3       1 <0>         0.0616
      7 O1         -2.4404   -0.4943    2.9092 O.3       1 <0>        -0.5710
      8 N1         -1.7592   -2.0458    0.5668 N.pl3     1 <0>        -0.6786
      9 C6         -2.6062   -2.9119   -0.1051 C.ar      1 <0>         0.6293
     10 N2         -3.6349   -2.4098   -0.7763 N.ar      1 <0>        -0.6062
     11 C7         -4.4751   -3.1988   -1.4363 C.ar      1 <0>         0.5376
     12 C8         -4.2539   -4.5867   -1.4114 C.ar      1 <0>        -0.1535
     13 C9         -3.1523   -5.0726   -0.6878 C.ar      1 <0>         0.3509
     14 N3         -2.3585   -4.2107   -0.0601 N.ar      1 <0>        -0.6161
     15 N4         -3.1762   -6.4368   -0.8324 N.pl3     1 <0>        -0.4727
     16 C10        -4.2520   -6.7464   -1.6124 C.2       1 <0>         0.2292
     17 N5         -4.8825   -5.6599   -1.9508 N.2       1 <0>        -0.4526
     18 C11        -2.2219   -7.3866   -0.2551 C.3       1 <0>         0.1354
     19 C12        -2.9632   -8.3593    0.6643 C.3       1 <0>        -0.1619
     20 C13        -1.5372   -8.1679   -1.3784 C.3       1 <0>        -0.1618
     21 N6         -5.5464   -2.6655   -2.1337 N.pl3     1 <0>        -0.6280
     22 C14        -5.6825   -1.2864   -2.2512 C.ar      1 <0>         0.1488
     23 C15        -4.5525   -0.4885   -2.4166 C.ar      1 <0>        -0.1220
     24 C16        -4.6779    0.8657   -2.5326 C.ar      1 <0>        -0.0594
     25 C17        -5.9451    1.4590   -2.4857 C.ar      1 <0>        -0.1364
     26 C18        -7.0831    0.6589   -2.3195 C.ar      1 <0>         0.0117
     27 C19        -6.9477   -0.7079   -2.2089 C.ar      1 <0>        -0.1557
     28 Cl1        -8.6583    1.3861   -2.2597 Cl        1 <0>        -0.0441
     29 C20        -6.0813    2.9182   -2.6102 C.2       1 <0>         0.5168
     30 O2         -5.0862    3.6154   -2.7549 O.co2     1 <0>        -0.6900
     31 O3         -7.1896    3.4349   -2.5690 O.co2     1 <0>        -0.6630
     32 H2          1.2552    0.2811   -0.1251 H         1 <0>         0.0549
     33 H3          0.5018   -1.3276   -0.2382 H         1 <0>         0.0529
     34 H4         -0.0674   -0.0030   -1.2820 H         1 <0>         0.0568
     35 H5         -0.3105   -0.1028    1.7590 H         1 <0>         0.0821
     36 H6         -1.3236    1.9090   -0.3008 H         1 <0>         0.0629
     37 H7         -1.6929    1.9391    1.4402 H         1 <0>         0.0595
     38 H8         -0.0222    2.1908    0.8803 H         1 <0>         0.0576
     39 H9         -3.2659    0.8232    1.5485 H         1 <0>         0.0601
     40 H10        -3.9187   -0.8321    1.5060 H         1 <0>         0.0503
     41 H11        -3.0232   -0.2835    3.6514 H         1 <0>         0.3749
     42 H12        -0.9999   -2.3948    1.0594 H         1 <0>         0.4127
     43 H13        -4.5374   -7.7457   -1.9061 H         1 <0>         0.2129
     44 H14        -1.4715   -6.8438    0.3196 H         1 <0>         0.1056
     45 H15        -3.7136   -8.9021    0.0895 H         1 <0>         0.0647
     46 H16        -2.2531   -9.0660    1.0938 H         1 <0>         0.0772
     47 H17        -3.4510   -7.8027    1.4645 H         1 <0>         0.0630
     48 H18        -1.0091   -7.4750   -2.0333 H         1 <0>         0.0633
     49 H19        -0.8272   -8.8746   -0.9489 H         1 <0>         0.0771
     50 H20        -2.2876   -8.7108   -1.9531 H         1 <0>         0.0647
     51 H21        -6.2018   -3.2539   -2.5402 H         1 <0>         0.4250
     52 H22        -3.5736   -0.9432   -2.4528 H         1 <0>         0.1261
     53 H23        -3.7989    1.4800   -2.6603 H         1 <0>         0.1350
     54 H24        -7.8223   -1.3294   -2.0853 H         1 <0>         0.1255
@<TRIPOS>BOND
     1    1    2 1
     2    1   32 1
     3    1   33 1
     4    1   34 1
     5    2    3 1
     6    2    4 1
     7    2   35 1
     8    3   36 1
     9    3   37 1
    10    3   38 1
    11    4    5 1
    12    4    6 1
    13    4    8 1
    14    6    7 1
    15    6   39 1
    16    6   40 1
    17    7   41 1
    18    8    9 1
    19    8   42 1
    20    9   14 ar
    21    9   10 ar
    22   10   11 ar
    23   11   12 ar
    24   11   21 1
    25   12   17 1
    26   12   13 ar
    27   13   14 ar
    28   13   15 1
    29   15   16 1
    30   15   18 1
    31   16   17 2
    32   16   43 1
    33   18   19 1
    34   18   20 1
    35   18   44 1
    36   19   45 1
    37   19   46 1
    38   19   47 1
    39   20   48 1
    40   20   49 1
    41   20   50 1
    42   21   22 1
    43   21   51 1
    44   22   27 ar
    45   22   23 ar
    46   23   24 ar
    47   23   52 1
    48   24   25 ar
    49   24   53 1
    50   25   26 ar
    51   25   29 1
    52   26   27 ar
    53   26   28 1
    54   27   54 1
    55   29   30 2
    56   29   31 1
@<TRIPOS>MOLECULE
ZINC00582575
   52    54     0     0     0
SMALL
USER_CHARGES

@<TRIPOS>ATOM
      1 C1          0.4280   -0.4909    1.8513 C.3       1 <0>        -0.1353
      2 C2         -0.1373    0.3043    0.6728 C.3       1 <0>        -0.0998
      3 C3          0.1219    1.7960    0.8928 C.3       1 <0>        -0.1438
      4 C4          0.5445   -0.1465   -0.6206 C.3       1 <0>         0.1707
      5 H1          1.6116    0.0682   -0.5626 H         1 <0>         0.1020
      6 C5         -0.0633    0.6053   -1.8064 C.3       1 <0>         0.0638
      7 O1         -1.4784    0.4070   -1.8214 O.3       1 <0>        -0.5678
      8 N1          0.3453   -1.5866   -0.8014 N.pl3     1 <0>        -0.6843
      9 C6          1.2038   -2.4865   -0.1915 C.ar      1 <0>         0.6278
     10 N2          2.1960   -2.0197    0.5559 N.ar      1 <0>        -0.6013
     11 C7          3.0454   -2.8423    1.1611 C.ar      1 <0>         0.5297
     12 C8          2.8737   -4.2277    0.9949 C.ar      1 <0>        -0.1465
     13 C9          1.8096   -4.6754    0.1948 C.ar      1 <0>         0.3495
     14 N3          1.0032   -3.7820   -0.3699 N.ar      1 <0>        -0.6072
     15 N4          1.8776   -6.0456    0.2064 N.pl3     1 <0>        -0.4700
     16 C10         2.9424   -6.3955    0.9844 C.2       1 <0>         0.2415
     17 N5          3.5251   -5.3277    1.4458 N.2       1 <0>        -0.4572
     18 C11         0.9729   -6.9645   -0.4890 C.3       1 <0>         0.1340
     19 C12         1.7722   -7.8175   -1.4761 C.3       1 <0>        -0.1629
     20 C13         0.2864   -7.8742    0.5318 C.3       1 <0>        -0.1632
     21 N6          4.0779   -2.3459    1.9386 N.pl3     1 <0>        -0.6355
     22 C14         4.2903   -0.9669    2.0207 C.ar      1 <0>         0.1742
     23 C15         4.0436   -0.1577    0.9185 C.ar      1 <0>        -0.1100
     24 C16         4.2538    1.2045    1.0024 C.ar      1 <0>        -0.0884
     25 C17         4.7100    1.7642    2.1819 C.ar      1 <0>        -0.1271
     26 C18         4.9569    0.9617    3.2819 C.ar      1 <0>        -0.0129
     27 C19         4.7429   -0.4020    3.2058 C.ar      1 <0>        -0.1416
     28 Cl1         5.5294    1.6687    4.7604 Cl        1 <0>        -0.0669
     29 H2          0.2433   -1.5536    1.6946 H         1 <0>         0.0430
     30 H3          1.5012   -0.3158    1.9263 H         1 <0>         0.0707
     31 H4         -0.0578   -0.1697    2.7727 H         1 <0>         0.0403
     32 H5         -1.2106    0.1292    0.5978 H         1 <0>         0.0766
     33 H6          1.1945    1.9872    0.8596 H         1 <0>         0.0559
     34 H7         -0.3739    2.3703    0.1101 H         1 <0>         0.0538
     35 H8         -0.2703    2.0934    1.8654 H         1 <0>         0.0560
     36 H9          0.1535    1.6693   -1.7118 H         1 <0>         0.0658
     37 H10         0.3663    0.2281   -2.7345 H         1 <0>         0.0519
     38 H11        -1.9308    0.8561   -2.5484 H         1 <0>         0.3823
     39 H12        -0.3878   -1.9099   -1.3481 H         1 <0>         0.4179
     40 H13         3.2553   -7.4091    1.1873 H         1 <0>         0.2164
     41 H14         0.2195   -6.3923   -1.0303 H         1 <0>         0.1069
     42 H15         2.5256   -8.3897   -0.9348 H         1 <0>         0.0660
     43 H16         1.0991   -8.5011   -1.9935 H         1 <0>         0.0802
     44 H17         2.2613   -7.1693   -2.2033 H         1 <0>         0.0632
     45 H18        -0.2830   -7.2665    1.2351 H         1 <0>         0.0634
     46 H19        -0.3867   -8.5579    0.0144 H         1 <0>         0.0803
     47 H20         1.0399   -8.4464    1.0731 H         1 <0>         0.0660
     48 H21         4.6539   -2.9553    2.4263 H         1 <0>         0.4297
     49 H22         3.6881   -0.5939   -0.0033 H         1 <0>         0.1411
     50 H23         4.0621    1.8335    0.1457 H         1 <0>         0.1337
     51 H24         4.8742    2.8298    2.2445 H         1 <0>         0.1331
     52 H25         4.9317   -1.0277    4.0656 H         1 <0>         0.1347
@<TRIPOS>BOND
     1    1    2 1
     2    1   29 1
     3    1   30 1
     4    1   31 1
     5    2    3 1
     6    2    4 1
     7    2   32 1
     8    3   33 1
     9    3   34 1
    10    3   35 1
    11    4    5 1
    12    4    6 1
    13    4    8 1
    14    6    7 1
    15    6   36 1
    16    6   37 1
    17    7   38 1
    18    8    9 1
    19    8   39 1
    20    9   14 ar
    21    9   10 ar
    22   10   11 ar
    23   11   12 ar
    24   11   21 1
    25   12   17 1
    26   12   13 ar
    27   13   14 ar
    28   13   15 1
    29   15   16 1
    30   15   18 1
    31   16   17 2
    32   16   40 1
    33   18   19 1
    34   18   20 1
    35   18   41 1
    36   19   42 1
    37   19   43 1
    38   19   44 1
    39   20   45 1
    40   20   46 1
    41   20   47 1
    42   21   22 1
    43   21   48 1
    44   22   27 ar
    45   22   23 ar
    46   23   24 ar
    47   23   49 1
    48   24   25 ar
    49   24   50 1
    50   25   26 ar
    51   25   51 1
    52   26   27 ar
    53   26   28 1
    54   27   52 1
@<TRIPOS>MOLECULE
ZINC14806879
   29    31     0     0     0
SMALL
USER_CHARGES

@<TRIPOS>ATOM
      1 C1         -0.0173    1.4248    0.0099 C.3       1 <0>         0.0271
      2 O1          0.0021   -0.0041    0.0020 O.3       1 <0>        -0.3168
      3 C2         -1.2010   -0.6378    0.0101 C.ar      1 <0>         0.1024
      4 C3         -2.3765    0.1026    0.0196 C.ar      1 <0>        -0.1700
      5 C4         -3.6033   -0.5286    0.0283 C.ar      1 <0>        -0.1033
      6 C5         -3.6754   -1.9173    0.0273 C.ar      1 <0>         0.1187
      7 C6         -2.4893   -2.6625    0.0173 C.ar      1 <0>        -0.0676
      8 C7         -1.2551   -2.0214    0.0032 C.ar      1 <0>        -0.0969
      9 C8         -2.8914   -4.0876    0.0188 C.2       1 <0>        -0.1578
     10 C9         -2.0671   -5.1903    0.0116 C.2       1 <0>         0.0629
     11 C10        -2.6439   -6.5349    0.0144 C.2       1 <0>        -0.0242
     12 C11        -1.9450   -7.7254    0.0136 C.2       1 <0>        -0.0035
     13 N1         -2.8729   -8.7189    0.0171 N.pl3     1 <0>        -0.5670
     14 H1         -2.6907   -9.6716    0.0177 H         1 <0>         0.4219
     15 C12        -4.1014   -8.1382    0.0200 C.2       1 <0>         0.1702
     16 N2         -3.9675   -6.8441    0.0243 N.2       1 <0>        -0.4045
     17 C13        -4.3615   -4.0702    0.0302 C.2       1 <0>         0.5403
     18 O2         -5.0890   -5.0470    0.0353 O.2       1 <0>        -0.4371
     19 N3         -4.7617   -2.7874    0.0347 N.am      1 <0>        -0.6638
     20 H2          1.0053    1.8021    0.0021 H         1 <0>         0.1005
     21 H3         -0.5445    1.7859   -0.8732 H         1 <0>         0.0556
     22 H4         -0.5275    1.7763    0.9067 H         1 <0>         0.0557
     23 H5         -2.3296    1.1815    0.0204 H         1 <0>         0.1351
     24 H6         -4.5103    0.0577    0.0364 H         1 <0>         0.1299
     25 H7         -0.3432   -2.6000   -0.0090 H         1 <0>         0.1360
     26 H8         -0.9947   -5.0627    0.0038 H         1 <0>         0.1494
     27 H9         -0.8715   -7.8442    0.0104 H         1 <0>         0.1860
     28 H10        -5.0423   -8.6684    0.0231 H         1 <0>         0.2076
     29 H11        -5.6893   -2.5039    0.0425 H         1 <0>         0.4133
@<TRIPOS>BOND
     1    1    2 1
     2    1   20 1
     3    1   21 1
     4    1   22 1
     5    2    3 1
     6    3    8 ar
     7    3    4 ar
     8    4    5 ar
     9    4   23 1
    10    5    6 ar
    11    5   24 1
    12    6   19 1
    13    6    7 ar
    14    7    8 ar
    15    7    9 1
    16    8   25 1
    17    9   10 2
    18    9   17 1
    19   10   11 1
    20   10   26 1
    21   11   16 1
    22   11   12 2
    23   12   13 1
    24   12   27 1
    25   13   14 1
    26   13   15 1
    27   15   16 2
    28   15   28 1
    29   17   18 2
    30   17   19 am
    31   19   29 1
@<TRIPOS>MOLECULE
ZINC01641925
   40    42     0     0     0
SMALL
USER_CHARGES

@<TRIPOS>ATOM
      1 C1         -0.0178    1.4608    0.0101 C.3       1 <0>         0.0831
      2 N1          0.0021   -0.0041    0.0020 N.pl3     1 <0>        -0.4808
      3 C2          0.0085   -0.8054   -1.1023 C.2       1 <0>         0.2308
      4 N2          0.0274   -2.0557   -0.7436 N.2       1 <0>        -0.4545
      5 C3          0.0343   -2.1368    0.6098 C.ar      1 <0>        -0.1554
      6 C4          0.0236   -0.8217    1.1034 C.ar      1 <0>         0.3460
      7 N3          0.0327   -0.6231    2.4177 N.ar      1 <0>        -0.6159
      8 C5          0.0544   -1.6488    3.2534 C.ar      1 <0>         0.6298
      9 N4          0.0680   -2.9065    2.8307 N.ar      1 <0>        -0.6237
     10 C6          0.0525   -3.1954    1.5342 C.ar      1 <0>         0.5415
     11 N5          0.0685   -4.5100    1.1029 N.pl3     1 <0>        -0.6890
     12 C7          0.0874   -5.6013    2.0801 C.3       1 <0>         0.1707
     13 C8          0.1022   -6.9232    1.3567 C.ar      1 <0>        -0.1135
     14 C9         -1.0881   -7.5430    1.0249 C.ar      1 <0>        -0.0983
     15 C10        -1.0745   -8.7555    0.3613 C.ar      1 <0>        -0.1220
     16 C11         0.1294   -9.3482    0.0290 C.ar      1 <0>        -0.1103
     17 C12         1.3196   -8.7280    0.3600 C.ar      1 <0>        -0.1222
     18 C13         1.3060   -7.5133    1.0198 C.ar      1 <0>        -0.0984
     19 N6          0.0637   -1.4010    4.6162 N.pl3     1 <0>        -0.6906
     20 C14         0.0877   -2.5182    5.5636 C.3       1 <0>         0.1417
     21 C15         0.0936   -1.9741    6.9936 C.3       1 <0>         0.0611
     22 O1         -1.1346   -1.2892    7.2477 O.3       1 <0>        -0.5709
     23 H1          1.0048    1.8381    0.0023 H         1 <0>         0.0748
     24 H2         -0.5450    1.8219   -0.8730 H         1 <0>         0.0893
     25 H3         -0.5280    1.8123    0.9069 H         1 <0>         0.0882
     26 H4         -0.0013   -0.4536   -2.1234 H         1 <0>         0.2190
     27 H5          0.0672   -4.7091    0.1536 H         1 <0>         0.4197
     28 H6          0.9790   -5.5172    2.7015 H         1 <0>         0.0778
     29 H7         -0.8008   -5.5413    2.7091 H         1 <0>         0.0779
     30 H8         -2.0286   -7.0800    1.2846 H         1 <0>         0.1238
     31 H9         -2.0044   -9.2401    0.1028 H         1 <0>         0.1245
     32 H10         0.1400  -10.2958   -0.4888 H         1 <0>         0.1237
     33 H11         2.2602   -9.1911    0.1006 H         1 <0>         0.1244
     34 H12         2.2359   -7.0270    1.2750 H         1 <0>         0.1237
     35 H13         0.0543   -0.4879    4.9432 H         1 <0>         0.4161
     36 H14        -0.7954   -3.1397    5.4150 H         1 <0>         0.0745
     37 H15         0.9844   -3.1155    5.3984 H         1 <0>         0.0812
     38 H16         0.2009   -2.8004    7.6963 H         1 <0>         0.0659
     39 H17         0.9273   -1.2826    7.1158 H         1 <0>         0.0536
     40 H18        -1.2006   -0.9172    8.1379 H         1 <0>         0.3829
@<TRIPOS>BOND
     1    1    2 1
     2    1   23 1
     3    1   24 1
     4    1   25 1
     5    2    6 1
     6    2    3 1
     7    3    4 2
     8    3   26 1
     9    4    5 1
    10    5   10 ar
    11    5    6 ar
    12    6    7 ar
    13    7    8 ar
    14    8    9 ar
    15    8   19 1
    16    9   10 ar
    17   10   11 1
    18   11   12 1
    19   11   27 1
    20   12   13 1
    21   12   28 1
    22   12   29 1
    23   13   18 ar
    24   13   14 ar
    25   14   15 ar
    26   14   30 1
    27   15   16 ar
    28   15   31 1
    29   16   17 ar
    30   16   32 1
    31   17   18 ar
    32   17   33 1
    33   18   34 1
    34   19   20 1
    35   19   35 1
    36   20   21 1
    37   20   36 1
    38   20   37 1
    39   21   22 1
    40   21   38 1
    41   21   39 1
    42   22   40 1
@<TRIPOS>MOLECULE
ZINC03816409
   50    52     0     0     0
SMALL
USER_CHARGES
N-[5-[(5-tert-butyloxazol-2-yl)methylsulfanyl]thiazol-2-yl]piperidine-4-carboxamide
@<TRIPOS>ATOM
      1 C1         -0.0127    1.0858    0.0080 C.3       1 <0>        -0.1425
      2 C2         -0.7288    1.5792    1.2668 C.3       1 <0>         0.0153
      3 C3          0.0111    1.0724    2.5063 C.3       1 <0>        -0.1429
      4 C4         -0.7496    3.1091    1.2752 C.3       1 <0>        -0.1470
      5 C5         -2.1426    1.0576    1.2775 C.2       1 <0>        -0.0059
      6 C6         -2.5173   -0.2324    1.2742 C.2       1 <0>        -0.0384
      7 N1         -3.8616   -0.2670    1.2868 N.2       1 <0>        -0.4461
      8 C7         -4.3108    0.9556    1.2976 C.2       1 <0>         0.1754
      9 O1         -3.2687    1.7975    1.2981 O.3       1 <0>        -0.1872
     10 C8         -5.7633    1.3568    1.3132 C.3       1 <0>        -0.0274
     11 S1         -6.3302    1.5091    3.0296 S.3       1 <0>         0.0531
     12 C9         -8.0223    1.9770    2.8797 C.2       1 <0>        -0.2079
     13 C10        -8.9445    2.2293    3.8504 C.2       1 <0>         0.0730
     14 N2        -10.1733    2.5704    3.5096 N.2       1 <0>        -0.4781
     15 C11       -10.5307    2.6731    2.2430 C.2       1 <0>         0.3098
     16 S2         -9.0031    2.2599    1.4114 S.3       1 <0>         0.0397
     17 N3        -11.7659    3.0158    1.7000 N.am      1 <0>        -0.6146
     18 C12       -12.8034    3.3002    2.5119 C.2       1 <0>         0.5107
     19 O2        -12.6609    3.2576    3.7157 O.2       1 <0>        -0.4551
     20 C13       -14.1405    3.6713    1.9241 C.3       1 <0>        -0.1149
     21 C14       -13.9915    4.9332    1.0698 C.3       1 <0>        -0.1461
     22 C15       -15.3628    5.3397    0.5255 C.3       1 <0>         0.0009
     23 C16       -16.4761    4.3789    2.4515 C.3       1 <0>        -0.0009
     24 C17       -15.1380    3.9438    3.0534 C.3       1 <0>        -0.1323
     25 H1          0.0021   -0.0041    0.0020 H         1 <0>         0.0648
     26 H2          1.0099    1.4631    0.0003 H         1 <0>         0.0750
     27 H3         -0.5399    1.4469   -0.8751 H         1 <0>         0.0608
     28 H4          1.0337    1.4497    2.4986 H         1 <0>         0.0751
     29 H5         -0.4990    1.4239    3.4031 H         1 <0>         0.0616
     30 H6          0.0259   -0.0175    2.5003 H         1 <0>         0.0649
     31 H7         -1.2768    3.4701    0.3922 H         1 <0>         0.0605
     32 H8         -1.2598    3.4606    2.1720 H         1 <0>         0.0616
     33 H9          0.2730    3.4864    1.2675 H         1 <0>         0.0706
     34 H10        -1.8578   -1.0876    1.2633 H         1 <0>         0.1891
     35 H11        -5.8813    2.3140    0.8053 H         1 <0>         0.1204
     36 H12        -6.3553    0.5983    0.8010 H         1 <0>         0.1329
     37 H13        -8.6718    2.1504    4.8925 H         1 <0>         0.1794
     38 H14       -11.8799    3.0499    0.7373 H         1 <0>         0.4267
     39 H15       -14.5061    2.8521    1.3049 H         1 <0>         0.1234
     40 H16       -13.5885    5.7409    1.6809 H         1 <0>         0.0995
     41 H17       -13.3151    4.7324    0.2390 H         1 <0>         0.1172
     42 H18       -15.7590    4.5372   -0.0967 H         1 <0>         0.1349
     43 H19       -15.2623    6.2461   -0.0715 H         1 <0>         0.1387
     44 H20       -16.8671    3.5809    1.8204 H         1 <0>         0.1334
     45 H21       -17.1842    4.5877    3.2534 H         1 <0>         0.1392
     46 H22       -15.2808    3.0361    3.6398 H         1 <0>         0.1229
     47 H23       -14.7528    4.7354    3.6961 H         1 <0>         0.1008
     48 N4        -16.2857    5.6006    1.6466 N.4       1 <0>        -0.5187
     49 H24       -17.1928    5.9050    1.2741 H         1 <0>         0.4395
     50 H25       -15.8944    6.3401    2.2417 H         1 <0>         0.4347
@<TRIPOS>BOND
     1    1    2 1
     2    1   25 1
     3    1   26 1
     4    1   27 1
     5    2    3 1
     6    2    4 1
     7    2    5 1
     8    3   28 1
     9    3   29 1
    10    3   30 1
    11    4   31 1
    12    4   32 1
    13    4   33 1
    14    5    9 1
    15    5    6 2
    16    6    7 1
    17    6   34 1
    18    7    8 2
    19    8    9 1
    20    8   10 1
    21   10   11 1
    22   10   35 1
    23   10   36 1
    24   11   12 1
    25   12   16 1
    26   12   13 2
    27   13   14 1
    28   13   37 1
    29   14   15 2
    30   15   16 1
    31   15   17 1
    32   17   18 am
    33   17   38 1
    34   18   19 2
    35   18   20 1
    36   20   24 1
    37   20   21 1
    38   20   39 1
    39   21   22 1
    40   21   40 1
    41   21   41 1
    42   22   42 1
    43   22   43 1
    44   22   48 1
    45   23   24 1
    46   23   44 1
    47   23   45 1
    48   23   48 1
    49   24   46 1
    50   24   47 1
    51   48   49 1
    52   48   50 1
@<TRIPOS>MOLECULE
ZINC01047455
   40    42     0     0     0
SMALL
USER_CHARGES

@<TRIPOS>ATOM
      1 C1         10.2571    0.5356    2.2250 C.ar      1 <0>        -0.0905
      2 C2          9.3710    1.0707    1.3091 C.ar      1 <0>        -0.1078
      3 C3          8.0517    1.2852    1.6663 C.ar      1 <0>        -0.0187
      4 C4          7.6193    0.9635    2.9404 C.ar      1 <0>        -0.0742
      5 C5          8.5065    0.4275    3.8564 C.ar      1 <0>        -0.0123
      6 C6          9.8257    0.2140    3.4982 C.ar      1 <0>        -0.1089
      7 Cl1         7.9650    0.0239    5.4557 Cl        1 <0>        -0.0245
      8 C7          6.1826    1.1973    3.3303 C.3       1 <0>         0.0011
      9 C8          5.3705   -0.0329    3.0169 C.2       1 <0>         0.0808
     10 N1          5.1230   -1.0622    3.7889 N.2       1 <0>        -0.4811
     11 C9          4.3867   -2.0746    3.3685 C.2       1 <0>         0.3250
     12 C10         3.9006   -1.9943    2.0982 C.2       1 <0>        -0.2920
     13 S1          4.5567   -0.4123    1.5935 S.3       1 <0>         0.1321
     14 N2          4.1180   -3.1818    4.1914 N.am      1 <0>        -0.6468
     15 C11         4.6973   -3.2760    5.4047 C.2       1 <0>         0.7216
     16 O1          5.3787   -2.3611    5.8258 O.2       1 <0>        -0.5226
     17 N3          4.5212   -4.3841    6.1513 N.am      1 <0>        -0.5902
     18 N4          3.7557   -5.4118    5.6783 N.3       1 <0>        -0.3076
     19 C12         2.5696   -5.6171    6.5224 C.3       1 <0>        -0.0042
     20 C13         1.7115   -6.7351    5.9243 C.3       1 <0>         0.0665
     21 O2          2.5008   -7.9214    5.8020 O.3       1 <0>        -0.3808
     22 C14         3.6638   -7.7575    4.9859 C.3       1 <0>         0.0666
     23 C15         4.5417   -6.6498    5.5745 C.3       1 <0>        -0.0019
     24 Cl2         6.9392    1.9584    0.5162 Cl        1 <0>        -0.0501
     25 H1         11.2859    0.3645    1.9443 H         1 <0>         0.1434
     26 H2          9.7087    1.3219    0.3144 H         1 <0>         0.1425
     27 H3         10.5185   -0.2045    4.2133 H         1 <0>         0.1410
     28 H4          6.1256    1.4079    4.3982 H         1 <0>         0.1179
     29 H5          5.7877    2.0455    2.7711 H         1 <0>         0.1095
     30 H6          3.2852   -2.6923    1.5500 H         1 <0>         0.1956
     31 H7          3.5156   -3.8781    3.8862 H         1 <0>         0.4226
     32 H8          4.9381   -4.4519    7.0245 H         1 <0>         0.4000
     33 H9          2.8827   -5.8971    7.5282 H         1 <0>         0.0566
     34 H10         1.9890   -4.6956    6.5646 H         1 <0>         0.0952
     35 H11         0.8607   -6.9297    6.5772 H         1 <0>         0.1068
     36 H12         1.3541   -6.4326    4.9400 H         1 <0>         0.0652
     37 H13         4.2250   -8.6916    4.9601 H         1 <0>         0.1069
     38 H14         3.3632   -7.4847    3.9743 H         1 <0>         0.0654
     39 H15         5.4006   -6.4822    4.9247 H         1 <0>         0.0955
     40 H16         4.8863   -6.9463    6.5652 H         1 <0>         0.0566
@<TRIPOS>BOND
     1    1    6 ar
     2    1    2 ar
     3    1   25 1
     4    2    3 ar
     5    2   26 1
     6    3    4 ar
     7    3   24 1
     8    4    5 ar
     9    4    8 1
    10    5    6 ar
    11    5    7 1
    12    6   27 1
    13    8    9 1
    14    8   28 1
    15    8   29 1
    16    9   13 1
    17    9   10 2
    18   10   11 1
    19   11   12 2
    20   11   14 1
    21   12   13 1
    22   12   30 1
    23   14   15 am
    24   14   31 1
    25   15   16 2
    26   15   17 am
    27   17   18 1
    28   17   32 1
    29   18   23 1
    30   18   19 1
    31   19   20 1
    32   19   33 1
    33   19   34 1
    34   20   21 1
    35   20   35 1
    36   20   36 1
    37   21   22 1
    38   22   23 1
    39   22   37 1
    40   22   38 1
    41   23   39 1
    42   23   40 1
@<TRIPOS>MOLECULE
ZINC18128386
   32    35     0     0     0
SMALL
USER_CHARGES

@<TRIPOS>ATOM
      1 C1         -0.0144    1.3783   -0.0475 C.ar      1 <0>        -0.1490
      2 C2          1.1682    2.0823    0.1064 C.ar      1 <0>        -0.0585
      3 C3          2.3772    1.4201    0.1626 C.ar      1 <0>        -0.1423
      4 C4          2.4194    0.0322    0.0651 C.ar      1 <0>         0.1621
      5 C5          1.2216   -0.6755   -0.0898 C.ar      1 <0>        -0.1630
      6 C6          0.0078    0.0017   -0.1459 C.ar      1 <0>        -0.0258
      7 C7          1.5784   -2.1123   -0.1637 C.2       1 <0>         0.1819
      8 N1          0.7676   -3.1257   -0.3075 N.2       1 <0>        -0.2626
      9 O1         -0.6275   -2.9070   -0.4115 O.3       1 <0>        -0.3801
     10 C8          3.0517   -2.1495   -0.0391 C.2       1 <0>         0.3100
     11 C9          3.8485   -3.2860   -0.0531 C.2       1 <0>        -0.2149
     12 C10         3.4076   -4.6942    0.0396 C.ar      1 <0>        -0.0612
     13 C11         2.1590   -5.2973    0.1613 C.ar      1 <0>        -0.0785
     14 C12         2.0668   -6.6724    0.2256 C.ar      1 <0>        -0.1110
     15 C13         3.2134   -7.4494    0.1697 C.ar      1 <0>        -0.0614
     16 C14         4.4568   -6.8607    0.0495 C.ar      1 <0>        -0.1104
     17 C15         4.5697   -5.4766   -0.0178 C.ar      1 <0>         0.1440
     18 N2          5.6744   -4.6429   -0.1379 N.am      1 <0>        -0.6463
     19 C16         5.3102   -3.3497   -0.1695 C.2       1 <0>         0.5708
     20 O2          6.0621   -2.3968   -0.2739 O.2       1 <0>        -0.5192
     21 Br1         3.0736   -9.3331    0.2595 Br        1 <0>        -0.0419
     22 N3          3.4858   -0.8573    0.0925 N.pl3     1 <0>        -0.6148
     23 H1         -0.9555    1.9067   -0.0861 H         1 <0>         0.1365
     24 H2          1.1438    3.1593    0.1827 H         1 <0>         0.1384
     25 H3          3.2931    1.9799    0.2821 H         1 <0>         0.1351
     26 H4         -0.9142   -0.5478   -0.2655 H         1 <0>         0.1392
     27 H5         -1.1459   -3.7167   -0.5153 H         1 <0>         0.4144
     28 H6          1.2662   -4.6913    0.2055 H         1 <0>         0.1720
     29 H7          1.0998   -7.1441    0.3200 H         1 <0>         0.1383
     30 H8          5.3430   -7.4765    0.0076 H         1 <0>         0.1374
     31 H9          6.5912   -4.9545   -0.1959 H         1 <0>         0.4211
     32 H10         4.4151   -0.5976    0.1913 H         1 <0>         0.4398
@<TRIPOS>BOND
     1    1    6 ar
     2    1    2 ar
     3    1   23 1
     4    2    3 ar
     5    2   24 1
     6    3    4 ar
     7    3   25 1
     8    4   22 1
     9    4    5 ar
    10    5    6 ar
    11    5    7 1
    12    6   26 1
    13    7    8 2
    14    7   10 1
    15    8    9 1
    16    9   27 1
    17   10   11 2
    18   10   22 1
    19   11   19 1
    20   11   12 1
    21   12   17 ar
    22   12   13 ar
    23   13   14 ar
    24   13   28 1
    25   14   15 ar
    26   14   29 1
    27   15   16 ar
    28   15   21 1
    29   16   17 ar
    30   16   30 1
    31   17   18 1
    32   18   19 am
    33   18   31 1
    34   19   20 2
    35   22   32 1
@<TRIPOS>MOLECULE
ZINC13827492
   34    35     0     0     0
SMALL
USER_CHARGES

@<TRIPOS>ATOM
      1 C1         -0.0187    1.5258    0.0104 C.3       1 <0>        -0.1484
      2 C2          0.0021   -0.0041    0.0020 C.3       1 <0>        -0.0021
      3 C3         -1.4333   -0.5336    0.0129 C.3       1 <0>        -0.1485
      4 C4          0.7074   -0.4901   -1.2379 C.2       1 <0>        -0.2009
      5 C5          1.8175   -1.2594   -1.3558 C.2       1 <0>         0.0591
      6 N1          2.2260   -1.5396   -2.5795 N.2       1 <0>        -0.5177
      7 C6          1.5791   -1.0885   -3.6323 C.2       1 <0>         0.2658
      8 S1          0.3072   -0.2179   -2.9564 S.3       1 <0>         0.1086
      9 N2          1.8718   -1.2872   -4.9765 N.am      1 <0>        -0.6260
     10 C7          2.9409   -2.0273   -5.3312 C.2       1 <0>         0.5059
     11 O1          3.6476   -2.5199   -4.4774 O.2       1 <0>        -0.4563
     12 C8          3.2582   -2.2428   -6.7885 C.3       1 <0>        -0.0943
     13 C9          4.4926   -3.0982   -6.9128 C.ar      1 <0>        -0.0760
     14 C10         5.7412   -2.5069   -6.9610 C.ar      1 <0>        -0.1028
     15 C11         6.8736   -3.2916   -7.0750 C.ar      1 <0>        -0.1188
     16 C12         6.7574   -4.6675   -7.1402 C.ar      1 <0>        -0.1155
     17 C13         5.5088   -5.2588   -7.0910 C.ar      1 <0>        -0.1188
     18 C14         4.3767   -4.4744   -6.9728 C.ar      1 <0>        -0.1029
     19 H1          1.0039    1.9031    0.0027 H         1 <0>         0.0598
     20 H2         -0.5459    1.8868   -0.8726 H         1 <0>         0.0569
     21 H3         -0.5289    1.8773    0.9072 H         1 <0>         0.0659
     22 H4          0.5293   -0.3651    0.8851 H         1 <0>         0.0968
     23 H5         -1.9605   -0.1726   -0.8702 H         1 <0>         0.0568
     24 H6         -1.4185   -1.6235    0.0069 H         1 <0>         0.0598
     25 H7         -1.9435   -0.1821    0.9097 H         1 <0>         0.0660
     26 H8          2.3443   -1.6264   -0.4874 H         1 <0>         0.1732
     27 H9          1.3065   -0.8933   -5.6593 H         1 <0>         0.4255
     28 H10         2.4194   -2.7427   -7.2729 H         1 <0>         0.1098
     29 H11         3.4335   -1.2799   -7.2684 H         1 <0>         0.1099
     30 H12         5.8320   -1.4320   -6.9101 H         1 <0>         0.1201
     31 H13         7.8490   -2.8296   -7.1134 H         1 <0>         0.1233
     32 H14         7.6420   -5.2805   -7.2299 H         1 <0>         0.1227
     33 H15         5.4180   -6.3337   -7.1423 H         1 <0>         0.1233
     34 H16         3.4015   -4.9365   -6.9306 H         1 <0>         0.1201
@<TRIPOS>BOND
     1    1    2 1
     2    1   19 1
     3    1   20 1
     4    1   21 1
     5    2    3 1
     6    2    4 1
     7    2   22 1
     8    3   23 1
     9    3   24 1
    10    3   25 1
    11    4    8 1
    12    4    5 2
    13    5    6 1
    14    5   26 1
    15    6    7 2
    16    7    8 1
    17    7    9 1
    18    9   10 am
    19    9   27 1
    20   10   11 2
    21   10   12 1
    22   12   13 1
    23   12   28 1
    24   12   29 1
    25   13   18 ar
    26   13   14 ar
    27   14   15 ar
    28   14   30 1
    29   15   16 ar
    30   15   31 1
    31   16   17 ar
    32   16   32 1
    33   17   18 ar
    34   17   33 1
    35   18   34 1
@<TRIPOS>MOLECULE
ZINC21288966
   49    52     0     0     0
SMALL
USER_CHARGES
2-(2-chlorophenyl)-5,7-dihydroxy-8-[(3S,4R)-3-hydroxy-1-methyl-4-piperidyl]chromen-4-one
@<TRIPOS>ATOM
      1 C1          6.0895   -0.0238    5.9621 C.3       1 <0>        -0.0460
      2 N1          6.1756    1.0472    4.9603 N.4       1 <0>        -0.3934
      3 C2          5.9739    0.5180    3.6055 C.3       1 <0>        -0.0028
      4 C3          6.2126    1.6289    2.5802 C.3       1 <0>        -0.1464
      5 C4          5.2418    2.7821    2.8491 C.3       1 <0>        -0.0180
      6 H1          4.2050    2.4431    2.7074 H         1 <0>         0.1039
      7 C5          5.4391    3.2830    4.2825 C.3       1 <0>         0.1015
      8 H2          4.7709    4.1271    4.5084 H         1 <0>         0.0941
      9 C6          5.2218    2.1236    5.2574 C.3       1 <0>        -0.0361
     10 O1          6.7669    3.7898    4.4323 O.3       1 <0>        -0.5639
     11 C7          5.5132    3.9050    1.8814 C.ar      1 <0>        -0.2158
     12 C8          6.8017    4.3949    1.7322 C.ar      1 <0>         0.2946
     13 C9          7.0678    5.4304    0.8434 C.ar      1 <0>        -0.3049
     14 C10         6.0448    5.9841    0.0956 C.ar      1 <0>         0.3111
     15 C11         4.7411    5.4942    0.2412 C.ar      1 <0>        -0.3649
     16 C12         4.4748    4.4470    1.1407 C.ar      1 <0>         0.2362
     17 O2          3.2147    3.9814    1.2730 O.3       1 <0>        -0.2171
     18 C13         2.1871    4.4838    0.5705 C.2       1 <0>         0.1982
     19 C14         2.3394    5.4926   -0.3277 C.2       1 <0>        -0.2780
     20 C15         3.6225    6.0546   -0.5353 C.2       1 <0>         0.4382
     21 O3          3.7953    6.9641   -1.3304 O.2       1 <0>        -0.4786
     22 C16         0.8407    3.9147    0.7769 C.ar      1 <0>        -0.0680
     23 C17         0.6478    2.5322    0.7263 C.ar      1 <0>        -0.0708
     24 C18        -0.6124    2.0073    0.9205 C.ar      1 <0>        -0.1159
     25 C19        -1.6867    2.8467    1.1599 C.ar      1 <0>        -0.0780
     26 C20        -1.5036    4.2164    1.2169 C.ar      1 <0>        -0.1066
     27 C21        -0.2472    4.7566    1.0243 C.ar      1 <0>        -0.0057
     28 Cl1        -0.0199    6.4765    1.0889 Cl        1 <0>        -0.0424
     29 O4          6.3024    6.9947   -0.7728 O.3       1 <0>        -0.4999
     30 O5          7.8133    3.8585    2.4614 O.3       1 <0>        -0.4665
     31 H3          6.8128   -0.8151    5.7159 H         1 <0>         0.1242
     32 H4          5.0728   -0.4438    5.9634 H         1 <0>         0.1169
     33 H5          6.3184    0.3856    6.9571 H         1 <0>         0.1225
     34 H6          6.6809   -0.3050    3.4243 H         1 <0>         0.1308
     35 H7          4.9438    0.1448    3.5072 H         1 <0>         0.1211
     36 H8          7.2477    1.9910    2.6662 H         1 <0>         0.1216
     37 H9          6.0450    1.2349    1.5669 H         1 <0>         0.1057
     38 H10         4.1951    1.7434    5.1512 H         1 <0>         0.1298
     39 H11         5.3771    2.4772    6.2874 H         1 <0>         0.1312
     40 H12         7.0946    4.1958    5.4007 H         1 <0>         0.4106
     41 H13         8.0758    5.8030    0.7365 H         1 <0>         0.1471
     42 H14         1.4871    5.8659   -0.8759 H         1 <0>         0.1670
     43 H15         1.4839    1.8757    0.5352 H         1 <0>         0.1384
     44 H16        -0.7625    0.9385    0.8812 H         1 <0>         0.1407
     45 H17        -2.6721    2.4298    1.3071 H         1 <0>         0.1438
     46 H18        -2.3456    4.8651    1.4082 H         1 <0>         0.1476
     47 H19         5.4855    7.4321   -1.3656 H         1 <0>         0.4556
     48 H20         8.8375    4.2431    2.3473 H         1 <0>         0.4397
     49 H21         7.1882    1.4744    5.0059 H         1 <0>         0.4481
@<TRIPOS>BOND
     1    1    2 1
     2    1   31 1
     3    1   32 1
     4    1   33 1
     5    2    9 1
     6    2    3 1
     7    2   49 1
     8    3    4 1
     9    3   34 1
    10    3   35 1
    11    4    5 1
    12    4   36 1
    13    4   37 1
    14    5    6 1
    15    5    7 1
    16    5   11 1
    17    7    8 1
    18    7    9 1
    19    7   10 1
    20    9   38 1
    21    9   39 1
    22   10   40 1
    23   11   16 ar
    24   11   12 ar
    25   12   13 ar
    26   12   30 1
    27   13   14 ar
    28   13   41 1
    29   14   15 ar
    30   14   29 1
    31   15   20 1
    32   15   16 ar
    33   16   17 1
    34   17   18 1
    35   18   19 2
    36   18   22 1
    37   19   20 1
    38   19   42 1
    39   20   21 2
    40   22   27 ar
    41   22   23 ar
    42   23   24 ar
    43   23   43 1
    44   24   25 ar
    45   24   44 1
    46   25   26 ar
    47   25   45 1
    48   26   27 ar
    49   26   46 1
    50   27   28 1
    51   29   47 1
    52   30   48 1
@<TRIPOS>MOLECULE
ZINC34285231
   52    54     0     0     0
SMALL
USER_CHARGES

@<TRIPOS>ATOM
      1 C1         -0.0187    1.5258    0.0104 C.3       1 <0>        -0.1545
      2 C2          0.0021   -0.0041    0.0020 C.3       1 <0>        -0.1280
      3 C3         -1.4333   -0.5336    0.0129 C.3       1 <0>         0.1630
      4 H1         -1.9701   -0.1109    0.8621 H         1 <0>         0.1040
      5 C4         -1.4133   -2.0590    0.1302 C.3       1 <0>         0.0627
      6 O1         -0.6117   -2.6069   -0.9183 O.3       1 <0>        -0.5682
      7 N1         -2.1054   -0.1483   -1.2305 N.pl3     1 <0>        -0.6685
      8 C5         -3.4818   -0.0368   -1.2657 C.2       1 <0>         0.6288
      9 N2         -4.0765    0.3062   -2.3943 N.2       1 <0>        -0.6023
     10 C6         -5.4147    0.4181   -2.4417 C.2       1 <0>         0.3487
     11 C7         -6.3090    0.7497   -3.4432 C.2       1 <0>        -0.2518
     12 C8         -7.5879    0.7004   -2.8982 C.2       1 <0>         0.1207
     13 N3         -7.4995    0.3591   -1.6342 N.2       1 <0>        -0.3263
     14 N4         -6.1527    0.1732   -1.3098 N.pl3     1 <0>        -0.3982
     15 C9         -5.5043   -0.1797   -0.1574 C.2       1 <0>         0.6978
     16 N5         -4.1895   -0.2832   -0.1581 N.2       1 <0>        -0.6304
     17 N6         -6.2162   -0.4298    0.9868 N.pl3     1 <0>        -0.6761
     18 C10        -5.5163   -0.8071    2.2173 C.3       1 <0>         0.1775
     19 C11        -6.5204   -1.0246    3.3198 C.ar      1 <0>        -0.1209
     20 C12        -6.8998    0.0313    4.1273 C.ar      1 <0>        -0.0954
     21 C13        -7.8208   -0.1682    5.1387 C.ar      1 <0>        -0.1214
     22 C14        -8.3628   -1.4235    5.3422 C.ar      1 <0>        -0.1051
     23 C15        -7.9841   -2.4792    4.5341 C.ar      1 <0>        -0.1215
     24 C16        -7.0663   -2.2787    3.5200 C.ar      1 <0>        -0.0957
     25 C17        -5.9610    1.1008   -4.8669 C.3       1 <0>        -0.0041
     26 C18        -6.6326    0.1063   -5.8161 C.3       1 <0>        -0.1409
     27 C19        -6.4537    2.5154   -5.1783 C.3       1 <0>        -0.1408
     28 H2          1.0039    1.9031    0.0027 H         1 <0>         0.0585
     29 H3         -0.5459    1.8868   -0.8726 H         1 <0>         0.0558
     30 H4         -0.5289    1.8773    0.9072 H         1 <0>         0.0538
     31 H5          0.5123   -0.3556   -0.8948 H         1 <0>         0.0791
     32 H6          0.5293   -0.3651    0.8851 H         1 <0>         0.0797
     33 H7         -0.9936   -2.3437    1.0951 H         1 <0>         0.0554
     34 H8         -2.4301   -2.4431    0.0488 H         1 <0>         0.0493
     35 H9         -0.5540   -3.5721   -0.9058 H         1 <0>         0.3796
     36 H10        -1.5839    0.0285   -2.0291 H         1 <0>         0.4204
     37 H11        -8.5048    0.9094   -3.4292 H         1 <0>         0.1935
     38 H12        -7.1835   -0.3569    0.9819 H         1 <0>         0.4251
     39 H13        -4.9563   -1.7270    2.0492 H         1 <0>         0.0857
     40 H14        -4.8294   -0.0107    2.5033 H         1 <0>         0.0865
     41 H15        -6.4763    1.0120    3.9683 H         1 <0>         0.1249
     42 H16        -8.1166    0.6566    5.7700 H         1 <0>         0.1265
     43 H17        -9.0818   -1.5795    6.1328 H         1 <0>         0.1258
     44 H18        -8.4073   -3.4599    4.6933 H         1 <0>         0.1264
     45 H19        -6.7732   -3.1027    2.8863 H         1 <0>         0.1244
     46 H20        -4.8799    1.0553   -4.9985 H         1 <0>         0.0793
     47 H21        -7.7137    0.1518   -5.6845 H         1 <0>         0.0525
     48 H22        -6.3809    0.3603   -6.8458 H         1 <0>         0.0551
     49 H23        -6.2816   -0.9015   -5.5942 H         1 <0>         0.0509
     50 H24        -7.5347    2.5609   -5.0467 H         1 <0>         0.0525
     51 H25        -5.9752    3.2238   -4.5021 H         1 <0>         0.0510
     52 H26        -6.2020    2.7693   -6.2080 H         1 <0>         0.0551
@<TRIPOS>BOND
     1    1    2 1
     2    1   28 1
     3    1   29 1
     4    1   30 1
     5    2    3 1
     6    2   31 1
     7    2   32 1
     8    3    4 1
     9    3    5 1
    10    3    7 1
    11    5    6 1
    12    5   33 1
    13    5   34 1
    14    6   35 1
    15    7    8 1
    16    7   36 1
    17    8   16 1
    18    8    9 2
    19    9   10 1
    20   10   14 1
    21   10   11 2
    22   11   12 1
    23   11   25 1
    24   12   13 2
    25   12   37 1
    26   13   14 1
    27   14   15 1
    28   15   16 2
    29   15   17 1
    30   17   18 1
    31   17   38 1
    32   18   19 1
    33   18   39 1
    34   18   40 1
    35   19   24 ar
    36   19   20 ar
    37   20   21 ar
    38   20   41 1
    39   21   22 ar
    40   21   42 1
    41   22   23 ar
    42   22   43 1
    43   23   24 ar
    44   23   44 1
    45   24   45 1
    46   25   26 1
    47   25   27 1
    48   25   46 1
    49   26   47 1
    50   26   48 1
    51   26   49 1
    52   27   50 1
    53   27   51 1
    54   27   52 1
@<TRIPOS>MOLECULE
ZINC34285231
   53    55     0     0     0
SMALL
USER_CHARGES

@<TRIPOS>ATOM
      1 C1         -0.0187    1.5258    0.0104 C.3       1 <0>        -0.1599
      2 C2          0.0021   -0.0041    0.0020 C.3       1 <0>        -0.1329
      3 C3          0.7182   -0.4975   -1.2568 C.3       1 <0>         0.1492
      4 H1          0.2444   -0.0644   -2.1377 H         1 <0>         0.1233
      5 C4          0.6303   -2.0233   -1.3286 C.3       1 <0>         0.0599
      6 O1          1.1463   -2.5875   -0.1213 O.3       1 <0>        -0.5719
      7 N1          2.1249   -0.0911   -1.2094 N.pl3     1 <0>        -0.6393
      8 C5          2.8415    0.0551   -2.3812 C.cat     1 <0>         0.6985
      9 N2          4.1107    0.4168   -2.3250 N.pl3     1 <0>        -0.5861
     10 C6          4.8187    0.5629   -3.4577 C.2       1 <0>         0.2789
     11 C7          6.1276    0.9208   -3.7247 C.2       1 <0>        -0.1688
     12 C8          6.2954    0.9020   -5.1055 C.2       1 <0>         0.1389
     13 N3          5.1619    0.5540   -5.6677 N.2       1 <0>        -0.2512
     14 N4          4.2110    0.3327   -4.6675 N.pl3     1 <0>        -0.3824
     15 C9          2.8945   -0.0408   -4.6893 C.2       1 <0>         0.7284
     16 N5          2.2397   -0.1773   -3.5527 N.2       1 <0>        -0.5902
     17 N6          2.2633   -0.2770   -5.8828 N.pl3     1 <0>        -0.6254
     18 C10         0.8539   -0.6766   -5.8995 C.3       1 <0>         0.1617
     19 C11         0.4042   -0.8726   -7.3244 C.ar      1 <0>        -0.1405
     20 C12        -0.1224    0.1896   -8.0353 C.ar      1 <0>        -0.0920
     21 C13        -0.5350    0.0099   -9.3423 C.ar      1 <0>        -0.1186
     22 C14        -0.4205   -1.2320   -9.9386 C.ar      1 <0>        -0.0926
     23 C15         0.1070   -2.2940   -9.2281 C.ar      1 <0>        -0.1188
     24 C16         0.5235   -2.1131   -7.9224 C.ar      1 <0>        -0.0923
     25 C17         7.1811    1.2682   -2.7047 C.3       1 <0>        -0.0224
     26 C18         8.3546    0.2947   -2.8317 C.3       1 <0>        -0.1502
     27 C19         7.6745    2.6961   -2.9470 C.3       1 <0>        -0.1502
     28 H2          1.0039    1.9031    0.0027 H         1 <0>         0.0492
     29 H3         -0.5459    1.8868   -0.8726 H         1 <0>         0.0602
     30 H4         -0.5289    1.8773    0.9072 H         1 <0>         0.0702
     31 H5          0.5293   -0.3651    0.8851 H         1 <0>         0.0869
     32 H6         -1.0205   -0.3814    0.0098 H         1 <0>         0.0973
     33 H7         -0.4106   -2.3218   -1.4533 H         1 <0>         0.0744
     34 H8          1.2150   -2.3814   -2.1759 H         1 <0>         0.0536
     35 H9          1.1218   -3.5538   -0.0969 H         1 <0>         0.3922
     36 H10         2.5531    0.0754   -0.3551 H         1 <0>         0.4320
     37 H11         7.2101    1.1363   -5.6298 H         1 <0>         0.2224
     38 H12         2.7497   -0.1796   -6.7163 H         1 <0>         0.4391
     39 H13         0.7343   -1.6098   -5.3491 H         1 <0>         0.1029
     40 H14         0.2502    0.1011   -5.4316 H         1 <0>         0.1038
     41 H15        -0.2119    1.1598   -7.5693 H         1 <0>         0.1263
     42 H16        -0.9471    0.8396   -9.8975 H         1 <0>         0.1316
     43 H17        -0.7434   -1.3726  -10.9596 H         1 <0>         0.1316
     44 H18         0.1961   -3.2643   -9.6939 H         1 <0>         0.1314
     45 H19         0.9390   -2.9419   -7.3685 H         1 <0>         0.1259
     46 H20         6.7557    1.1958   -1.7038 H         1 <0>         0.0766
     47 H21         8.7801    0.3671   -3.8326 H         1 <0>         0.0657
     48 H22         9.1166    0.5460   -2.0939 H         1 <0>         0.0725
     49 H23         8.0032   -0.7225   -2.6590 H         1 <0>         0.0574
     50 H24         6.8385    3.3896   -2.8566 H         1 <0>         0.0574
     51 H25         8.4365    2.9473   -2.2093 H         1 <0>         0.0725
     52 H26         8.1000    2.7685   -3.9480 H         1 <0>         0.0657
     53 H27         4.5317    0.5774   -1.4660 H         1 <0>         0.4483
@<TRIPOS>BOND
     1    1    2 1
     2    1   28 1
     3    1   29 1
     4    1   30 1
     5    2    3 1
     6    2   31 1
     7    2   32 1
     8    3    4 1
     9    3    5 1
    10    3    7 1
    11    5    6 1
    12    5   33 1
    13    5   34 1
    14    6   35 1
    15    7    8 1
    16    7   36 1
    17    8   16 1
    18    8    9 2
    19    9   10 1
    20    9   53 1
    21   10   14 1
    22   10   11 2
    23   11   12 1
    24   11   25 1
    25   12   13 2
    26   12   37 1
    27   13   14 1
    28   14   15 1
    29   15   16 2
    30   15   17 1
    31   17   18 1
    32   17   38 1
    33   18   19 1
    34   18   39 1
    35   18   40 1
    36   19   24 ar
    37   19   20 ar
    38   20   21 ar
    39   20   41 1
    40   21   22 ar
    41   21   42 1
    42   22   23 ar
    43   22   43 1
    44   23   24 ar
    45   23   44 1
    46   24   45 1
    47   25   26 1
    48   25   27 1
    49   25   46 1
    50   26   47 1
    51   26   48 1
    52   26   49 1
    53   27   50 1
    54   27   51 1
    55   27   52 1
@<TRIPOS>MOLECULE
ZINC00023894
   33    36     0     0     0
SMALL
USER_CHARGES
nitroBLAHone
@<TRIPOS>ATOM
      1 C1         -1.2168    1.7447    0.0173 C.ar      1 <0>        -0.1248
      2 C2         -1.2362    3.1290    0.0291 C.ar      1 <0>        -0.0796
      3 C3         -0.0570    3.8412    0.0349 C.ar      1 <0>        -0.1394
      4 C4          1.1753    3.1829    0.0363 C.ar      1 <0>         0.1820
      5 C5          1.1918    1.7883    0.0003 C.ar      1 <0>        -0.0640
      6 C6         -0.0126    1.0758    0.0080 C.ar      1 <0>        -0.0830
      7 C7          2.4518    1.0187   -0.0940 C.2       1 <0>         0.1319
      8 C8          3.5437    1.4059   -0.7982 C.2       1 <0>        -0.1369
      9 C9          4.5324    0.3579   -0.6653 C.ar      1 <0>        -0.1059
     10 C10         5.8232    0.2044   -1.1840 C.ar      1 <0>         0.0160
     11 C11         6.4967   -0.9417   -0.8407 C.ar      1 <0>        -0.0663
     12 C12         5.9354   -1.9076   -0.0213 C.ar      1 <0>        -0.0488
     13 C13         4.6603   -1.7825    0.5038 C.ar      1 <0>        -0.1164
     14 C14         3.9515   -0.6298    0.1728 C.ar      1 <0>         0.1476
     15 N1          2.6996   -0.1992    0.5082 N.pl3     1 <0>        -0.5707
     16 H1          2.0793   -0.6764    1.0813 H         1 <0>         0.4266
     17 N2          7.8658   -1.1521   -1.3626 N.pl3     1 <0>         0.0308
     18 O1          8.4805   -2.1621   -1.0701 O.2       1 <0>        -0.1636
     19 O2          8.3776   -0.3152   -2.0845 O.3       1 <0>        -0.1642
     20 C15         3.6673    2.7036   -1.5570 C.3       1 <0>        -0.0670
     21 C16         3.4550    3.8281   -0.5735 C.2       1 <0>         0.5304
     22 O3          4.3481    4.6279   -0.3895 O.2       1 <0>        -0.5186
     23 N3          2.3137    3.9655    0.0979 N.am      1 <0>        -0.6643
     24 H2         -2.1437    1.1904    0.0200 H         1 <0>         0.1349
     25 H3         -2.1805    3.6531    0.0288 H         1 <0>         0.1361
     26 H4         -0.0854    4.9208    0.0381 H         1 <0>         0.1372
     27 H5          0.0021   -0.0041    0.0020 H         1 <0>         0.1282
     28 H6          6.2683    0.9519   -1.8238 H         1 <0>         0.1643
     29 H7          6.5127   -2.7888    0.2165 H         1 <0>         0.1559
     30 H8          4.2346   -2.5439    1.1405 H         1 <0>         0.1550
     31 H9          2.9096    2.7484   -2.3393 H         1 <0>         0.1101
     32 H10         4.6609    2.7808   -1.9984 H         1 <0>         0.1188
     33 H11         2.2756    4.7147    0.7128 H         1 <0>         0.4079
@<TRIPOS>BOND
     1    1    6 ar
     2    1    2 ar
     3    1   24 1
     4    2    3 ar
     5    2   25 1
     6    3    4 ar
     7    3   26 1
     8    4   23 1
     9    4    5 ar
    10    5    6 ar
    11    5    7 1
    12    6   27 1
    13    7   15 1
    14    7    8 2
    15    8    9 1
    16    8   20 1
    17    9   14 ar
    18    9   10 ar
    19   10   11 ar
    20   10   28 1
    21   11   12 ar
    22   11   17 1
    23   12   13 ar
    24   12   29 1
    25   13   14 ar
    26   13   30 1
    27   14   15 1
    28   15   16 1
    29   17   18 2
    30   17   19 1
    31   20   21 1
    32   20   31 1
    33   20   32 1
    34   21   22 2
    35   21   23 am
    36   23   33 1
@<TRIPOS>MOLECULE
ZINC00602192
   52    54     0     0     0
SMALL
USER_CHARGES

@<TRIPOS>ATOM
      1 C1         -0.0187    1.5258    0.0104 C.3       1 <0>        -0.1531
      2 C2          0.0021   -0.0041    0.0020 C.3       1 <0>        -0.1278
      3 C3         -1.4333   -0.5336    0.0129 C.3       1 <0>         0.1690
      4 H1         -1.9862   -0.1019   -0.8214 H         1 <0>         0.1028
      5 C4         -1.4157   -2.0577   -0.1212 C.3       1 <0>         0.0625
      6 O1         -0.5943   -2.6167    0.9058 O.3       1 <0>        -0.5692
      7 N1         -2.0815   -0.1618    1.2729 N.pl3     1 <0>        -0.6816
      8 C5         -3.4608   -0.0505    1.3358 C.ar      1 <0>         0.6305
      9 N2         -4.1736   -0.2909    0.2424 N.ar      1 <0>        -0.6255
     10 C6         -5.4983   -0.1974    0.2522 C.ar      1 <0>         0.5407
     11 C7         -6.1381    0.1638    1.4509 C.ar      1 <0>        -0.1560
     12 C8         -5.3431    0.4087    2.5823 C.ar      1 <0>         0.3484
     13 N3         -4.0227    0.2867    2.4850 N.ar      1 <0>        -0.6160
     14 N4         -6.2120    0.7357    3.5923 N.pl3     1 <0>        -0.4703
     15 C9         -7.4746    0.6860    3.0775 C.2       1 <0>         0.2319
     16 N5         -7.4289    0.3504    1.8214 N.2       1 <0>        -0.4548
     17 C10        -5.8507    1.0750    4.9709 C.3       1 <0>         0.1343
     18 C11        -6.3389    2.4888    5.2929 C.3       1 <0>        -0.1626
     19 C12        -6.5055    0.0786    5.9298 C.3       1 <0>        -0.1626
     20 N6         -6.2330   -0.4496   -0.8927 N.pl3     1 <0>        -0.6898
     21 C13        -5.5502   -0.8244   -2.1335 C.3       1 <0>         0.1717
     22 C14        -6.5696   -1.0420   -3.2219 C.ar      1 <0>        -0.1135
     23 C15        -7.1206   -2.2954   -3.4122 C.ar      1 <0>        -0.0986
     24 C16        -8.0557   -2.4951   -4.4105 C.ar      1 <0>        -0.1221
     25 C17        -8.4401   -1.4412   -5.2182 C.ar      1 <0>        -0.1101
     26 C18        -7.8898   -0.1876   -5.0274 C.ar      1 <0>        -0.1219
     27 C19        -6.9579    0.0130   -4.0262 C.ar      1 <0>        -0.0982
     28 H2          1.0039    1.9031    0.0027 H         1 <0>         0.0563
     29 H3         -0.5459    1.8868   -0.8726 H         1 <0>         0.0537
     30 H4         -0.5289    1.8773    0.9072 H         1 <0>         0.0553
     31 H5          0.5123   -0.3556   -0.8948 H         1 <0>         0.0774
     32 H6          0.5293   -0.3651    0.8851 H         1 <0>         0.0768
     33 H7         -2.4308   -2.4427   -0.0245 H         1 <0>         0.0505
     34 H8         -1.0145   -2.3319   -1.0969 H         1 <0>         0.0523
     35 H9         -0.5369   -3.5817    0.8819 H         1 <0>         0.3776
     36 H10        -1.5448    0.0065    2.0632 H         1 <0>         0.4145
     37 H11        -8.3784    0.8940    3.6310 H         1 <0>         0.2138
     38 H12        -4.7675    1.0301    5.0842 H         1 <0>         0.1061
     39 H13        -7.4221    2.5338    5.1796 H         1 <0>         0.0654
     40 H14        -6.0701    2.7413    6.3186 H         1 <0>         0.0793
     41 H15        -5.8724    3.1986    4.6098 H         1 <0>         0.0629
     42 H16        -6.1577   -0.9286    5.7004 H         1 <0>         0.0629
     43 H17        -6.2367    0.3311    6.9555 H         1 <0>         0.0793
     44 H18        -7.5887    0.1236    5.8165 H         1 <0>         0.0654
     45 H19        -7.2002   -0.3782   -0.8739 H         1 <0>         0.4195
     46 H20        -4.8686   -0.0265   -2.4284 H         1 <0>         0.0773
     47 H21        -4.9865   -1.7436   -1.9746 H         1 <0>         0.0763
     48 H22        -6.8203   -3.1188   -2.7811 H         1 <0>         0.1232
     49 H23        -8.4856   -3.4746   -4.5596 H         1 <0>         0.1244
     50 H24        -9.1701   -1.5974   -5.9987 H         1 <0>         0.1237
     51 H25        -8.1899    0.6357   -5.6587 H         1 <0>         0.1245
     52 H26        -6.5307    0.9933   -3.8747 H         1 <0>         0.1237
@<TRIPOS>BOND
     1    1    2 1
     2    1   28 1
     3    1   29 1
     4    1   30 1
     5    2    3 1
     6    2   31 1
     7    2   32 1
     8    3    4 1
     9    3    5 1
    10    3    7 1
    11    5    6 1
    12    5   33 1
    13    5   34 1
    14    6   35 1
    15    7    8 1
    16    7   36 1
    17    8   13 ar
    18    8    9 ar
    19    9   10 ar
    20   10   11 ar
    21   10   20 1
    22   11   16 1
    23   11   12 ar
    24   12   13 ar
    25   12   14 1
    26   14   15 1
    27   14   17 1
    28   15   16 2
    29   15   37 1
    30   17   18 1
    31   17   19 1
    32   17   38 1
    33   18   39 1
    34   18   40 1
    35   18   41 1
    36   19   42 1
    37   19   43 1
    38   19   44 1
    39   20   21 1
    40   20   45 1
    41   21   22 1
    42   21   46 1
    43   21   47 1
    44   22   27 ar
    45   22   23 ar
    46   23   24 ar
    47   23   48 1
    48   24   25 ar
    49   24   49 1
    50   25   26 ar
    51   25   50 1
    52   26   27 ar
    53   26   51 1
    54   27   52 1
@<TRIPOS>MOLECULE
ZINC23247639
   69    72     0     0     0
SMALL
USER_CHARGES
1-[4-[(4-ethylpiperazin-1-yl)methyl]-3-(trifluoromethyl)phenyl]-3-[4-(6-methylaminopyrimidin-4-yl)oxyphenyl]urea
@<TRIPOS>ATOM
      1 C1          8.9417    3.3719    8.2172 C.3       1 <0>        -0.1901
      2 C2         10.1498    2.9102    7.3997 C.3       1 <0>        -0.0070
      3 N1          9.9972    3.3533    6.0075 N.4       1 <0>        -0.4011
      4 C3         11.2367    3.1387    5.2477 C.3       1 <0>         0.0016
      5 C4         11.0629    3.6845    3.8284 C.3       1 <0>         0.0271
      6 N2          9.9288    3.0094    3.1822 N.3       1 <0>        -0.5300
      7 C5          8.6893    3.2240    3.9420 C.3       1 <0>         0.0232
      8 C6          8.8631    2.6781    5.3612 C.3       1 <0>        -0.0016
      9 C7          9.7762    3.4524    1.7899 C.3       1 <0>         0.0786
     10 C8          8.7879    2.5601    1.0842 C.ar      1 <0>        -0.0666
     11 C9          7.5022    3.0092    0.8434 C.ar      1 <0>        -0.0932
     12 C10         6.5958    2.1959    0.1923 C.ar      1 <0>        -0.0888
     13 C11         6.9731    0.9214   -0.2106 C.ar      1 <0>         0.1880
     14 C12         8.2646    0.4735    0.0326 C.ar      1 <0>        -0.1043
     15 C13         9.1683    1.2940    0.6793 C.ar      1 <0>        -0.1369
     16 C14        10.5702    0.8086    0.9441 C.3       1 <0>         0.5111
     17 F1         10.7250   -0.4786    0.4184 F         1 <0>        -0.1776
     18 F2         11.4860    1.6739    0.3362 F         1 <0>        -0.1774
     19 F3         10.8008    0.7797    2.3237 F         1 <0>        -0.1628
     20 N3          6.0552    0.0926   -0.8655 N.am      1 <0>        -0.6979
     21 C15         4.7513    0.1311   -0.5266 C.2       1 <0>         0.7117
     22 O1          4.3858    0.8194    0.4067 O.2       1 <0>        -0.5623
     23 N4          3.8526   -0.5934   -1.2222 N.am      1 <0>        -0.6900
     24 C16         2.4863   -0.4790   -0.9335 C.ar      1 <0>         0.1635
     25 C17         1.5516   -0.5518   -1.9576 C.ar      1 <0>        -0.1265
     26 C18         0.2052   -0.4394   -1.6724 C.ar      1 <0>        -0.0923
     27 C19        -0.2137   -0.2543   -0.3628 C.ar      1 <0>         0.0841
     28 C20         0.7198   -0.1815    0.6609 C.ar      1 <0>        -0.0957
     29 C21         2.0665   -0.2932    0.3769 C.ar      1 <0>        -0.1058
     30 O2         -1.5393   -0.1385   -0.0833 O.3       1 <0>        -0.2424
     31 C22        -2.3129   -1.2454   -0.1983 C.ar      1 <0>         0.3836
     32 C23        -3.6894   -1.1637   -0.0277 C.ar      1 <0>        -0.3134
     33 C24        -4.4409   -2.3284   -0.1601 C.ar      1 <0>         0.4631
     34 N5         -3.8165   -3.4721   -0.4341 N.ar      1 <0>        -0.5936
     35 C25        -2.5082   -3.5081   -0.5840 C.ar      1 <0>         0.3760
     36 N6         -1.7644   -2.4263   -0.4707 N.ar      1 <0>        -0.6039
     37 N7         -5.8178   -2.2988   -0.0034 N.pl3     1 <0>        -0.7218
     38 C26        -6.4937   -1.0344    0.2979 C.3       1 <0>         0.0891
     39 H1          9.0560    3.0401    9.2597 H         1 <0>         0.1066
     40 H2          8.0243    2.9380    7.7928 H         1 <0>         0.0798
     41 H3          8.8763    4.4695    8.1868 H         1 <0>         0.0803
     42 H4         11.0672    3.3441    7.8241 H         1 <0>         0.1306
     43 H5         10.2153    1.8126    7.4301 H         1 <0>         0.1269
     44 H6         12.0665    3.6630    5.7442 H         1 <0>         0.1361
     45 H7         11.4577    2.0621    5.2031 H         1 <0>         0.1357
     46 H8         10.8699    4.7665    3.8728 H         1 <0>         0.0625
     47 H9         11.9796    3.4990    3.2494 H         1 <0>         0.1239
     48 H10         8.4684    4.3007    3.9867 H         1 <0>         0.0621
     49 H11         7.8594    2.6998    3.4455 H         1 <0>         0.1239
     50 H12         9.0569    1.5962    5.3178 H         1 <0>         0.1351
     51 H13         7.9470    2.8635    5.9412 H         1 <0>         0.1359
     52 H14         9.4106    4.4897    1.7732 H         1 <0>         0.0663
     53 H15        10.7489    3.3982    1.2791 H         1 <0>         0.1073
     54 H16         7.2082    3.9988    1.1607 H         1 <0>         0.1358
     55 H17         5.5933    2.5489    0.0003 H         1 <0>         0.1466
     56 H18         8.5625   -0.5152   -0.2838 H         1 <0>         0.1447
     57 H19         6.3979   -0.5903   -1.6569 H         1 <0>         0.4387
     58 H20         4.1917   -1.2745   -2.0166 H         1 <0>         0.4355
     59 H21         1.8775   -0.6959   -2.9771 H         1 <0>         0.1334
     60 H22        -0.5220   -0.4960   -2.4689 H         1 <0>         0.1303
     61 H23         0.3932   -0.0371    1.6801 H         1 <0>         0.1327
     62 H24         2.7931   -0.2369    1.1740 H         1 <0>         0.1442
     63 H25        -4.1646   -0.2205    0.1982 H         1 <0>         0.1466
     64 H26        -2.0315   -4.4515   -0.8058 H         1 <0>         0.2000
     65 H27        -6.4030   -3.2246   -0.1053 H         1 <0>         0.4376
     66 H28        -7.5762   -1.2091    0.3856 H         1 <0>         0.0864
     67 H29        -6.3028   -0.3146   -0.5117 H         1 <0>         0.0603
     68 H30        -6.1096   -0.6302    1.2461 H         1 <0>         0.0599
     69 H31         9.7882    4.4332    6.0188 H         1 <0>         0.4364
@<TRIPOS>BOND
     1    1    2 1
     2    1   39 1
     3    1   40 1
     4    1   41 1
     5    2    3 1
     6    2   42 1
     7    2   43 1
     8    3    8 1
     9    3    4 1
    10    3   69 1
    11    4    5 1
    12    4   44 1
    13    4   45 1
    14    5    6 1
    15    5   46 1
    16    5   47 1
    17    6    7 1
    18    6    9 1
    19    7    8 1
    20    7   48 1
    21    7   49 1
    22    8   50 1
    23    8   51 1
    24    9   10 1
    25    9   52 1
    26    9   53 1
    27   10   15 ar
    28   10   11 ar
    29   11   12 ar
    30   11   54 1
    31   12   13 ar
    32   12   55 1
    33   13   14 ar
    34   13   20 1
    35   14   15 ar
    36   14   56 1
    37   15   16 1
    38   16   17 1
    39   16   18 1
    40   16   19 1
    41   20   21 am
    42   20   57 1
    43   21   22 2
    44   21   23 am
    45   23   24 1
    46   23   58 1
    47   24   29 ar
    48   24   25 ar
    49   25   26 ar
    50   25   59 1
    51   26   27 ar
    52   26   60 1
    53   27   28 ar
    54   27   30 1
    55   28   29 ar
    56   28   61 1
    57   29   62 1
    58   30   31 1
    59   31   36 ar
    60   31   32 ar
    61   32   33 ar
    62   32   63 1
    63   33   34 ar
    64   33   37 1
    65   34   35 ar
    66   35   36 ar
    67   35   64 1
    68   37   38 1
    69   37   65 1
    70   38   66 1
    71   38   67 1
    72   38   68 1
@<TRIPOS>MOLECULE
ZINC23247639
   69    72     0     0     0
SMALL
USER_CHARGES
1-[4-[(4-ethylpiperazin-1-yl)methyl]-3-(trifluoromethyl)phenyl]-3-[4-(6-methylaminopyrimidin-4-yl)oxyphenyl]urea
@<TRIPOS>ATOM
      1 C1          8.9417    3.3719    8.2172 C.3       1 <0>        -0.1569
      2 C2         10.1498    2.9102    7.3997 C.3       1 <0>         0.0486
      3 N1          9.9972    3.3533    6.0075 N.3       1 <0>        -0.5379
      4 C3         11.2367    3.1387    5.2477 C.3       1 <0>         0.0250
      5 C4         11.0629    3.6845    3.8284 C.3       1 <0>         0.0004
      6 N2          9.9288    3.0094    3.1822 N.4       1 <0>        -0.4202
      7 C5          8.6893    3.2240    3.9420 C.3       1 <0>        -0.0009
      8 C6          8.8631    2.6781    5.3612 C.3       1 <0>         0.0222
      9 C7          9.7762    3.4524    1.7899 C.3       1 <0>         0.0266
     10 C8          8.7879    2.5601    1.0842 C.ar      1 <0>        -0.1272
     11 C9          7.5022    3.0092    0.8434 C.ar      1 <0>        -0.0630
     12 C10         6.5958    2.1959    0.1923 C.ar      1 <0>        -0.0846
     13 C11         6.9731    0.9214   -0.2106 C.ar      1 <0>         0.2154
     14 C12         8.2646    0.4735    0.0326 C.ar      1 <0>        -0.0955
     15 C13         9.1683    1.2940    0.6793 C.ar      1 <0>        -0.1507
     16 C14        10.5702    0.8086    0.9441 C.3       1 <0>         0.5109
     17 F1         10.7250   -0.4786    0.4184 F         1 <0>        -0.1491
     18 F2         11.4860    1.6739    0.3362 F         1 <0>        -0.1584
     19 F3         10.8008    0.7797    2.3237 F         1 <0>        -0.1724
     20 N3          6.0552    0.0926   -0.8655 N.am      1 <0>        -0.6988
     21 C15         4.7513    0.1311   -0.5266 C.2       1 <0>         0.7114
     22 O1          4.3858    0.8194    0.4067 O.2       1 <0>        -0.5584
     23 N4          3.8526   -0.5934   -1.2222 N.am      1 <0>        -0.6858
     24 C16         2.4863   -0.4790   -0.9335 C.ar      1 <0>         0.1577
     25 C17         1.5516   -0.5518   -1.9576 C.ar      1 <0>        -0.1240
     26 C18         0.2052   -0.4394   -1.6724 C.ar      1 <0>        -0.0926
     27 C19        -0.2137   -0.2543   -0.3628 C.ar      1 <0>         0.0883
     28 C20         0.7198   -0.1815    0.6609 C.ar      1 <0>        -0.0957
     29 C21         2.0665   -0.2932    0.3769 C.ar      1 <0>        -0.1046
     30 O2         -1.5393   -0.1385   -0.0833 O.3       1 <0>        -0.2426
     31 C22        -2.3129   -1.2454   -0.1983 C.ar      1 <0>         0.3832
     32 C23        -3.6894   -1.1637   -0.0277 C.ar      1 <0>        -0.3126
     33 C24        -4.4409   -2.3284   -0.1601 C.ar      1 <0>         0.4635
     34 N5         -3.8165   -3.4721   -0.4341 N.ar      1 <0>        -0.5931
     35 C25        -2.5082   -3.5081   -0.5840 C.ar      1 <0>         0.3762
     36 N6         -1.7644   -2.4263   -0.4707 N.ar      1 <0>        -0.6049
     37 N7         -5.8178   -2.2988   -0.0034 N.pl3     1 <0>        -0.7212
     38 C26        -6.4937   -1.0344    0.2979 C.3       1 <0>         0.0887
     39 H1          9.0560    3.0401    9.2597 H         1 <0>         0.0714
     40 H2          8.0243    2.9380    7.7928 H         1 <0>         0.0562
     41 H3          8.8763    4.4695    8.1868 H         1 <0>         0.0696
     42 H4         11.0672    3.3441    7.8241 H         1 <0>         0.0895
     43 H5         10.2153    1.8126    7.4301 H         1 <0>         0.0455
     44 H6         12.0665    3.6630    5.7442 H         1 <0>         0.1253
     45 H7         11.4577    2.0621    5.2031 H         1 <0>         0.0582
     46 H8         10.8699    4.7665    3.8728 H         1 <0>         0.1369
     47 H9         11.9796    3.4990    3.2494 H         1 <0>         0.1329
     48 H10         8.4684    4.3007    3.9867 H         1 <0>         0.1355
     49 H11         7.8594    2.6998    3.4455 H         1 <0>         0.1312
     50 H12         9.0569    1.5962    5.3178 H         1 <0>         0.0572
     51 H13         7.9470    2.8635    5.9412 H         1 <0>         0.1266
     52 H14         9.4106    4.4897    1.7732 H         1 <0>         0.1472
     53 H15        10.7489    3.3982    1.2791 H         1 <0>         0.1420
     54 H16         7.2082    3.9988    1.1607 H         1 <0>         0.1512
     55 H17         5.5933    2.5489    0.0003 H         1 <0>         0.1583
     56 H18         8.5625   -0.5152   -0.2838 H         1 <0>         0.1556
     57 H19         6.3979   -0.5903   -1.6569 H         1 <0>         0.4440
     58 H20         4.1917   -1.2745   -2.0166 H         1 <0>         0.4371
     59 H21         1.8775   -0.6959   -2.9771 H         1 <0>         0.1338
     60 H22        -0.5220   -0.4960   -2.4689 H         1 <0>         0.1313
     61 H23         0.3932   -0.0371    1.6801 H         1 <0>         0.1341
     62 H24         2.7931   -0.2369    1.1740 H         1 <0>         0.1440
     63 H25        -4.1646   -0.2205    0.1982 H         1 <0>         0.1470
     64 H26        -2.0315   -4.4515   -0.8058 H         1 <0>         0.2001
     65 H27        -6.4030   -3.2246   -0.1053 H         1 <0>         0.4380
     66 H28        -7.5762   -1.2091    0.3856 H         1 <0>         0.0868
     67 H29        -6.3028   -0.3146   -0.5117 H         1 <0>         0.0604
     68 H30        -6.1096   -0.6302    1.2461 H         1 <0>         0.0603
     69 H31        10.1379    1.9295    3.1711 H         1 <0>         0.4253
@<TRIPOS>BOND
     1    1    2 1
     2    1   39 1
     3    1   40 1
     4    1   41 1
     5    2    3 1
     6    2   42 1
     7    2   43 1
     8    3    8 1
     9    3    4 1
    10    4    5 1
    11    4   44 1
    12    4   45 1
    13    5    6 1
    14    5   46 1
    15    5   47 1
    16    6    7 1
    17    6    9 1
    18    6   69 1
    19    7    8 1
    20    7   48 1
    21    7   49 1
    22    8   50 1
    23    8   51 1
    24    9   10 1
    25    9   52 1
    26    9   53 1
    27   10   15 ar
    28   10   11 ar
    29   11   12 ar
    30   11   54 1
    31   12   13 ar
    32   12   55 1
    33   13   14 ar
    34   13   20 1
    35   14   15 ar
    36   14   56 1
    37   15   16 1
    38   16   17 1
    39   16   18 1
    40   16   19 1
    41   20   21 am
    42   20   57 1
    43   21   22 2
    44   21   23 am
    45   23   24 1
    46   23   58 1
    47   24   29 ar
    48   24   25 ar
    49   25   26 ar
    50   25   59 1
    51   26   27 ar
    52   26   60 1
    53   27   28 ar
    54   27   30 1
    55   28   29 ar
    56   28   61 1
    57   29   62 1
    58   30   31 1
    59   31   36 ar
    60   31   32 ar
    61   32   33 ar
    62   32   63 1
    63   33   34 ar
    64   33   37 1
    65   34   35 ar
    66   35   36 ar
    67   35   64 1
    68   37   38 1
    69   37   65 1
    70   38   66 1
    71   38   67 1
    72   38   68 1
@<TRIPOS>MOLECULE
ZINC23247639
   68    71     0     0     0
SMALL
USER_CHARGES
1-[4-[(4-ethylpiperazin-1-yl)methyl]-3-(trifluoromethyl)phenyl]-3-[4-(6-methylaminopyrimidin-4-yl)oxyphenyl]urea
@<TRIPOS>ATOM
      1 C1          8.9417    3.3719    8.2172 C.3       1 <0>        -0.1510
      2 C2         10.1498    2.9102    7.3997 C.3       1 <0>         0.0499
      3 N1          9.9972    3.3533    6.0075 N.3       1 <0>        -0.5402
      4 C3         11.2367    3.1387    5.2477 C.3       1 <0>         0.0569
      5 C4         11.0629    3.6845    3.8284 C.3       1 <0>         0.0590
      6 N2          9.9288    3.0094    3.1822 N.3       1 <0>        -0.5268
      7 C5          8.6893    3.2240    3.9420 C.3       1 <0>         0.0561
      8 C6          8.8631    2.6781    5.3612 C.3       1 <0>         0.0550
      9 C7          9.7762    3.4524    1.7899 C.3       1 <0>         0.0729
     10 C8          8.7879    2.5601    1.0842 C.ar      1 <0>        -0.0447
     11 C9          7.5022    3.0092    0.8434 C.ar      1 <0>        -0.0942
     12 C10         6.5958    2.1959    0.1923 C.ar      1 <0>        -0.0884
     13 C11         6.9731    0.9214   -0.2106 C.ar      1 <0>         0.1720
     14 C12         8.2646    0.4735    0.0326 C.ar      1 <0>        -0.1038
     15 C13         9.1683    1.2940    0.6793 C.ar      1 <0>        -0.1404
     16 C14        10.5702    0.8086    0.9441 C.3       1 <0>         0.5095
     17 F1         10.7250   -0.4786    0.4184 F         1 <0>        -0.1841
     18 F2         11.4860    1.6739    0.3362 F         1 <0>        -0.1795
     19 F3         10.8008    0.7797    2.3237 F         1 <0>        -0.1519
     20 N3          6.0552    0.0926   -0.8655 N.am      1 <0>        -0.6948
     21 C15         4.7513    0.1311   -0.5266 C.2       1 <0>         0.7096
     22 O1          4.3858    0.8194    0.4067 O.2       1 <0>        -0.5587
     23 N4          3.8526   -0.5934   -1.2222 N.am      1 <0>        -0.6930
     24 C16         2.4863   -0.4790   -0.9335 C.ar      1 <0>         0.1697
     25 C17         1.5516   -0.5518   -1.9576 C.ar      1 <0>        -0.1297
     26 C18         0.2052   -0.4394   -1.6724 C.ar      1 <0>        -0.0930
     27 C19        -0.2137   -0.2543   -0.3628 C.ar      1 <0>         0.0783
     28 C20         0.7198   -0.1815    0.6609 C.ar      1 <0>        -0.0936
     29 C21         2.0665   -0.2932    0.3769 C.ar      1 <0>        -0.1059
     30 O2         -1.5393   -0.1385   -0.0833 O.3       1 <0>        -0.2412
     31 C22        -2.3129   -1.2454   -0.1983 C.ar      1 <0>         0.3851
     32 C23        -3.6894   -1.1637   -0.0277 C.ar      1 <0>        -0.3141
     33 C24        -4.4409   -2.3284   -0.1601 C.ar      1 <0>         0.4620
     34 N5         -3.8165   -3.4721   -0.4341 N.ar      1 <0>        -0.5954
     35 C25        -2.5082   -3.5081   -0.5840 C.ar      1 <0>         0.3753
     36 N6         -1.7644   -2.4263   -0.4707 N.ar      1 <0>        -0.6017
     37 N7         -5.8178   -2.2988   -0.0034 N.pl3     1 <0>        -0.7231
     38 C26        -6.4937   -1.0344    0.2979 C.3       1 <0>         0.0898
     39 H1          9.0560    3.0401    9.2597 H         1 <0>         0.0595
     40 H2          8.0243    2.9380    7.7928 H         1 <0>         0.0547
     41 H3          8.8763    4.4695    8.1868 H         1 <0>         0.0631
     42 H4         11.0672    3.3441    7.8241 H         1 <0>         0.0746
     43 H5         10.2153    1.8126    7.4301 H         1 <0>         0.0335
     44 H6         12.0665    3.6630    5.7442 H         1 <0>         0.0800
     45 H7         11.4577    2.0621    5.2031 H         1 <0>         0.0441
     46 H8         10.8699    4.7665    3.8728 H         1 <0>         0.0445
     47 H9         11.9796    3.4990    3.2494 H         1 <0>         0.0809
     48 H10         8.4684    4.3007    3.9867 H         1 <0>         0.0435
     49 H11         7.8594    2.6998    3.4455 H         1 <0>         0.0808
     50 H12         9.0569    1.5962    5.3178 H         1 <0>         0.0425
     51 H13         7.9470    2.8635    5.9412 H         1 <0>         0.0819
     52 H14         9.4106    4.4897    1.7732 H         1 <0>         0.0550
     53 H15        10.7489    3.3982    1.2791 H         1 <0>         0.0962
     54 H16         7.2082    3.9988    1.1607 H         1 <0>         0.1355
     55 H17         5.5933    2.5489    0.0003 H         1 <0>         0.1427
     56 H18         8.5625   -0.5152   -0.2838 H         1 <0>         0.1409
     57 H19         6.3979   -0.5903   -1.6569 H         1 <0>         0.4343
     58 H20         4.1917   -1.2745   -2.0166 H         1 <0>         0.4332
     59 H21         1.8775   -0.6959   -2.9771 H         1 <0>         0.1323
     60 H22        -0.5220   -0.4960   -2.4689 H         1 <0>         0.1282
     61 H23         0.3932   -0.0371    1.6801 H         1 <0>         0.1328
     62 H24         2.7931   -0.2369    1.1740 H         1 <0>         0.1466
     63 H25        -4.1646   -0.2205    0.1982 H         1 <0>         0.1463
     64 H26        -2.0315   -4.4515   -0.8058 H         1 <0>         0.1996
     65 H27        -6.4030   -3.2246   -0.1053 H         1 <0>         0.4362
     66 H28        -7.5762   -1.2091    0.3856 H         1 <0>         0.0851
     67 H29        -6.3028   -0.3146   -0.5117 H         1 <0>         0.0598
     68 H30        -6.1096   -0.6302    1.2461 H         1 <0>         0.0599
@<TRIPOS>BOND
     1    1    2 1
     2    1   39 1
     3    1   40 1
     4    1   41 1
     5    2    3 1
     6    2   42 1
     7    2   43 1
     8    3    8 1
     9    3    4 1
    10    4    5 1
    11    4   44 1
    12    4   45 1
    13    5    6 1
    14    5   46 1
    15    5   47 1
    16    6    7 1
    17    6    9 1
    18    7    8 1
    19    7   48 1
    20    7   49 1
    21    8   50 1
    22    8   51 1
    23    9   10 1
    24    9   52 1
    25    9   53 1
    26   10   15 ar
    27   10   11 ar
    28   11   12 ar
    29   11   54 1
    30   12   13 ar
    31   12   55 1
    32   13   14 ar
    33   13   20 1
    34   14   15 ar
    35   14   56 1
    36   15   16 1
    37   16   17 1
    38   16   18 1
    39   16   19 1
    40   20   21 am
    41   20   57 1
    42   21   22 2
    43   21   23 am
    44   23   24 1
    45   23   58 1
    46   24   29 ar
    47   24   25 ar
    48   25   26 ar
    49   25   59 1
    50   26   27 ar
    51   26   60 1
    52   27   28 ar
    53   27   30 1
    54   28   29 ar
    55   28   61 1
    56   29   62 1
    57   30   31 1
    58   31   36 ar
    59   31   32 ar
    60   32   33 ar
    61   32   63 1
    62   33   34 ar
    63   33   37 1
    64   34   35 ar
    65   35   36 ar
    66   35   64 1
    67   37   38 1
    68   37   65 1
    69   38   66 1
    70   38   67 1
    71   38   68 1
@<TRIPOS>MOLECULE
ZINC02540737
   37    39     0     0     0
SMALL
USER_CHARGES

@<TRIPOS>ATOM
      1 C1          1.8081   -4.6616   -0.1863 C.3       1 <0>        -0.1532
      2 C2          0.9947   -3.3694   -0.0888 C.3       1 <0>        -0.1238
      3 C3         -0.4979   -3.7054   -0.0851 C.3       1 <0>        -0.1108
      4 C4         -1.3114   -2.4133    0.0123 C.3       1 <0>        -0.0498
      5 C5         -2.7792   -2.7336   -0.1052 C.2       1 <0>        -0.1230
      6 C6         -3.6798   -2.9315    0.9703 C.ar      1 <0>         0.0614
      7 C7         -4.9420   -3.2065    0.4005 C.ar      1 <0>         0.2369
      8 N1         -4.7889   -3.1715   -0.9660 N.pl3     1 <0>        -0.5623
      9 H1         -5.4920   -3.3243   -1.6165 H         1 <0>         0.4248
     10 C8         -3.4763   -2.8785   -1.2598 C.2       1 <0>         0.1482
     11 C9         -2.9137   -2.7464   -2.6203 C.ar      1 <0>        -0.0487
     12 C10        -2.1113   -1.6503   -2.9425 C.ar      1 <0>        -0.0701
     13 C11        -1.5883   -1.5309   -4.2122 C.ar      1 <0>        -0.1417
     14 C12        -1.8588   -2.4990   -5.1705 C.ar      1 <0>         0.1212
     15 C13        -2.6570   -3.5907   -4.8541 C.ar      1 <0>        -0.1426
     16 C14        -3.1787   -3.7204   -3.5849 C.ar      1 <0>        -0.0837
     17 O1         -1.3418   -2.3776   -6.4209 O.3       1 <0>        -0.4984
     18 N2         -5.9810   -3.4342    1.1913 N.ar      1 <0>        -0.4505
     19 C15        -5.8299   -3.4027    2.5029 C.ar      1 <0>         0.0851
     20 C16        -4.5912   -3.1329    3.0645 C.ar      1 <0>         0.0409
     21 N3         -3.5445   -2.9034    2.2954 N.ar      1 <0>        -0.4011
     22 H2          2.8715   -4.4222   -0.1889 H         1 <0>         0.0536
     23 H3          1.5814   -5.2990    0.6683 H         1 <0>         0.0533
     24 H4          1.5511   -5.1841   -1.1077 H         1 <0>         0.0520
     25 H5          1.2518   -2.8468    0.8325 H         1 <0>         0.0628
     26 H6          1.2215   -2.7320   -0.9435 H         1 <0>         0.0607
     27 H7         -0.7550   -4.2280   -1.0065 H         1 <0>         0.0595
     28 H8         -0.7247   -4.3429    0.7695 H         1 <0>         0.0621
     29 H9         -1.1197   -1.9348    0.9728 H         1 <0>         0.0793
     30 H10        -1.0209   -1.7394   -0.7936 H         1 <0>         0.0738
     31 H11        -1.9010   -0.8967   -2.1981 H         1 <0>         0.1370
     32 H12        -0.9674   -0.6833   -4.4622 H         1 <0>         0.1370
     33 H13        -2.8654   -4.3412   -5.6021 H         1 <0>         0.1349
     34 H14        -3.7953   -4.5721   -3.3382 H         1 <0>         0.1284
     35 H15        -0.4754   -2.7929   -6.5303 H         1 <0>         0.3956
     36 H16        -6.6791   -3.5885    3.1439 H         1 <0>         0.1767
     37 H17        -4.4828   -3.1100    4.1388 H         1 <0>         0.1746
@<TRIPOS>BOND
     1    1    2 1
     2    1   22 1
     3    1   23 1
     4    1   24 1
     5    2    3 1
     6    2   25 1
     7    2   26 1
     8    3    4 1
     9    3   27 1
    10    3   28 1
    11    4    5 1
    12    4   29 1
    13    4   30 1
    14    5   10 2
    15    5    6 1
    16    6   21 ar
    17    6    7 ar
    18    7    8 1
    19    7   18 ar
    20    8    9 1
    21    8   10 1
    22   10   11 1
    23   11   16 ar
    24   11   12 ar
    25   12   13 ar
    26   12   31 1
    27   13   14 ar
    28   13   32 1
    29   14   15 ar
    30   14   17 1
    31   15   16 ar
    32   15   33 1
    33   16   34 1
    34   17   35 1
    35   18   19 ar
    36   19   20 ar
    37   19   36 1
    38   20   21 ar
    39   20   37 1
