@<TRIPOS>MOLECULE
ZINC01493715
   67    71     0     0     0
SMALL
USER_CHARGES

@<TRIPOS>ATOM
      1 C1         -0.4817    1.4806   -0.2307 C.3       1 <0>        -0.1724
      2 C2         -0.2504   -0.0285   -0.1296 C.3       1 <0>         0.1052
      3 N1          0.4083   -0.5043   -1.3486 N.pl3     1 <0>        -0.6681
      4 C3          0.7217   -1.8474   -1.4880 C.ar      1 <0>         0.5287
      5 N2          1.3251   -2.2884   -2.5896 N.ar      1 <0>        -0.5770
      6 C4          1.6278   -3.5700   -2.7304 C.ar      1 <0>         0.6703
      7 N3          1.3454   -4.4598   -1.7905 N.ar      1 <0>        -0.6029
      8 C5          0.7423   -4.0917   -0.6626 C.ar      1 <0>         0.5099
      9 C6          0.4147   -2.7517   -0.4758 C.ar      1 <0>        -0.3630
     10 N4          0.4495   -5.0292    0.3156 N.pl3     1 <0>        -0.6912
     11 C7         -0.2145   -4.6134    1.5534 C.3       1 <0>         0.1458
     12 H1          0.1312   -3.6186    1.8347 H         1 <0>         0.0984
     13 C8         -1.7286   -4.5844    1.3351 C.3       1 <0>        -0.1330
     14 C9         -2.4220   -4.1501    2.6279 C.3       1 <0>        -0.1113
     15 C10        -2.0867   -5.1411    3.7443 C.3       1 <0>         0.0982
     16 H2         -2.5807   -4.8317    4.6653 H         1 <0>         0.0649
     17 C11        -0.5726   -5.1701    3.9626 C.3       1 <0>        -0.1502
     18 C12         0.1209   -5.6044    2.6698 C.3       1 <0>        -0.1245
     19 O1         -2.5398   -6.4452    3.3756 O.3       1 <0>        -0.5648
     20 N5          2.2554   -3.9911   -3.8907 N.pl3     1 <0>        -0.6121
     21 C13         2.6691   -3.0516   -4.8437 C.ar      1 <0>         0.0914
     22 C14         3.1103   -1.8061   -4.4368 C.ar      1 <0>        -0.0449
     23 C15         3.5216   -0.8746   -5.3919 C.ar      1 <0>        -0.0935
     24 C16         3.4856   -1.2057   -6.7585 C.ar      1 <0>         0.1065
     25 N6          3.9431   -0.1064   -7.4546 N.pl3     1 <0>        -0.4733
     26 C17         4.2631    0.8965   -6.5809 C.2       1 <0>         0.0672
     27 C18         4.0317    0.4969   -5.3204 C.2       1 <0>        -0.2036
     28 C19         4.0678   -0.0249   -8.9120 C.3       1 <0>         0.1486
     29 C20         2.7450    0.3837   -9.5073 C.ar      1 <0>        -0.1209
     30 C21         1.8215   -0.5801   -9.8664 C.ar      1 <0>        -0.0999
     31 C22         0.6081   -0.2053  -10.4124 C.ar      1 <0>        -0.1195
     32 C23         0.3182    1.1334  -10.5990 C.ar      1 <0>        -0.1074
     33 C24         1.2414    2.0972  -10.2390 C.ar      1 <0>        -0.1185
     34 C25         2.4530    1.7226   -9.6890 C.ar      1 <0>        -0.0988
     35 C26         3.0385   -2.4637   -7.1481 C.ar      1 <0>        -0.1022
     36 C27         2.6400   -3.3776   -6.1985 C.ar      1 <0>        -0.1072
     37 H3          0.4759    1.9879   -0.3480 H         1 <0>         0.0704
     38 H4         -1.1140    1.6943   -1.0925 H         1 <0>         0.0701
     39 H5         -0.9718    1.8346    0.6762 H         1 <0>         0.0884
     40 H6          0.3819   -0.2422    0.7321 H         1 <0>         0.0824
     41 H7         -1.2080   -0.5358   -0.0124 H         1 <0>         0.0825
     42 H8          0.6252    0.1205   -2.0582 H         1 <0>         0.4232
     43 H9         -0.0707   -2.4226    0.4311 H         1 <0>         0.1738
     44 H10         0.6843   -5.9606    0.1804 H         1 <0>         0.4170
     45 H11        -1.9675   -3.8784    0.5398 H         1 <0>         0.0695
     46 H12        -2.0742   -5.5791    1.0539 H         1 <0>         0.0838
     47 H13        -2.0764   -3.1553    2.9092 H         1 <0>         0.0807
     48 H14        -3.5007   -4.1294    2.4724 H         1 <0>         0.0819
     49 H15        -0.2269   -4.1754    4.2439 H         1 <0>         0.0795
     50 H16        -0.3337   -5.8761    4.7580 H         1 <0>         0.0799
     51 H17        -0.2248   -6.5991    2.3886 H         1 <0>         0.0825
     52 H18         1.1995   -5.6251    2.8254 H         1 <0>         0.0750
     53 H19        -2.3601   -7.1260    4.0384 H         1 <0>         0.3825
     54 H20         2.4086   -4.9367   -4.0435 H         1 <0>         0.4301
     55 H21         3.1362   -1.5553   -3.3867 H         1 <0>         0.1355
     56 H22         4.6450    1.8663   -6.8635 H         1 <0>         0.1716
     57 H23         4.1914    1.0767   -4.4233 H         1 <0>         0.1490
     58 H24         4.8265    0.7136   -9.1710 H         1 <0>         0.1040
     59 H25         4.3587   -0.9984   -9.3068 H         1 <0>         0.0972
     60 H26         2.0480   -1.6260   -9.7207 H         1 <0>         0.1199
     61 H27        -0.1132   -0.9583  -10.6937 H         1 <0>         0.1255
     62 H28        -0.6295    1.4262  -11.0262 H         1 <0>         0.1261
     63 H29         1.0149    3.1431  -10.3850 H         1 <0>         0.1268
     64 H30         3.1728    2.4758   -9.4043 H         1 <0>         0.1229
     65 H31         3.0077   -2.7253   -8.1955 H         1 <0>         0.1282
     66 H32         2.2980   -4.3546   -6.5065 H         1 <0>         0.1320
     67 H33         1.5807   -5.3910   -1.9261 H         1 <0>         0.4332
@<TRIPOS>BOND
     1    1    2 1
     2    1   37 1
     3    1   38 1
     4    1   39 1
     5    2    3 1
     6    2   40 1
     7    2   41 1
     8    3    4 1
     9    3   42 1
    10    4    9 ar
    11    4    5 ar
    12    5    6 ar
    13    6    7 ar
    14    6   20 1
    15    7    8 ar
    16    7   67 1
    17    8    9 ar
    18    8   10 1
    19    9   43 1
    20   10   11 1
    21   10   44 1
    22   11   12 1
    23   11   18 1
    24   11   13 1
    25   13   14 1
    26   13   45 1
    27   13   46 1
    28   14   15 1
    29   14   47 1
    30   14   48 1
    31   15   16 1
    32   15   17 1
    33   15   19 1
    34   17   18 1
    35   17   49 1
    36   17   50 1
    37   18   51 1
    38   18   52 1
    39   19   53 1
    40   20   21 1
    41   20   54 1
    42   21   36 ar
    43   21   22 ar
    44   22   23 ar
    45   22   55 1
    46   23   27 1
    47   23   24 ar
    48   24   25 1
    49   24   35 ar
    50   25   26 1
    51   25   28 1
    52   26   27 2
    53   26   56 1
    54   27   57 1
    55   28   29 1
    56   28   58 1
    57   28   59 1
    58   29   34 ar
    59   29   30 ar
    60   30   31 ar
    61   30   60 1
    62   31   32 ar
    63   31   61 1
    64   32   33 ar
    65   32   62 1
    66   33   34 ar
    67   33   63 1
    68   34   64 1
    69   35   36 ar
    70   35   65 1
    71   36   66 1
@<TRIPOS>MOLECULE
ZINC03814434
   62    69     0     0     0
SMALL
USER_CHARGES

@<TRIPOS>ATOM
      1 C1         -0.1295    1.5952   -0.2973 C.3       1 <0>        -0.1687
      2 C2         -0.0862    0.0696   -0.1900 C.3       1 <0>         0.3342
      3 C3          0.5692   -0.4501   -1.4637 C.3       1 <0>         0.0405
      4 H1          1.4796    0.1159   -1.6612 H         1 <0>         0.1372
      5 C4          0.9167   -1.9328   -1.2889 C.3       1 <0>        -0.0061
      6 H2          1.3963   -2.3075   -2.1932 H         1 <0>         0.1555
      7 C5          1.8785   -2.0596   -0.1021 C.3       1 <0>        -0.1827
      8 C6          1.2061   -1.5198    1.1541 C.3       1 <0>         0.2999
      9 H3          1.9797   -1.4243    1.9161 H         1 <0>         0.1550
     10 O1          0.6555   -0.2442    0.9666 O.3       1 <0>        -0.3234
     11 N1          0.2189   -2.4746    1.6600 N.pl3     1 <0>        -0.5366
     12 C7          0.4705   -3.5508    2.4739 C.ar      1 <0>         0.1469
     13 C8          1.6649   -4.0152    3.0240 C.ar      1 <0>        -0.1522
     14 C9          1.5948   -5.1456    3.8201 C.ar      1 <0>        -0.0582
     15 C10         0.4006   -5.7997    4.0696 C.ar      1 <0>        -0.1457
     16 C11        -0.7984   -5.3597    3.5358 C.ar      1 <0>        -0.0280
     17 C12        -0.7487   -4.2198    2.7307 C.ar      1 <0>        -0.1131
     18 C13        -1.7893   -3.4830    2.0197 C.ar      1 <0>         0.0276
     19 C14        -1.1442   -2.4197    1.3841 C.ar      1 <0>         0.0376
     20 C15        -1.8806   -1.5095    0.6175 C.ar      1 <0>         0.0894
     21 N2         -1.4718   -0.3951   -0.1095 N.pl3     1 <0>        -0.5183
     22 C16        -2.5611    0.1913   -0.7090 C.ar      1 <0>         0.1618
     23 C17        -2.6521    1.3277   -1.5118 C.ar      1 <0>        -0.1305
     24 C18        -3.9109    1.6745   -1.9733 C.ar      1 <0>        -0.0737
     25 C19        -5.0393    0.9368   -1.6616 C.ar      1 <0>        -0.1358
     26 C20        -4.9745   -0.1955   -0.8662 C.ar      1 <0>        -0.0503
     27 C21        -3.7147   -0.5596   -0.3919 C.ar      1 <0>        -0.1042
     28 C22        -3.2693   -1.6660    0.4845 C.ar      1 <0>        -0.0360
     29 C23        -3.9084   -2.7313    1.1102 C.ar      1 <0>        -0.0288
     30 C24        -3.1873   -3.6421    1.8754 C.ar      1 <0>        -0.1255
     31 C25        -4.1221   -4.6480    2.4030 C.2       1 <0>         0.5632
     32 O2         -3.8062   -5.5851    3.1110 O.2       1 <0>        -0.5106
     33 N3         -5.3744   -4.3851    1.9926 N.am      1 <0>        -0.7162
     34 C26        -5.3495   -3.1771    1.1601 C.3       1 <0>         0.1358
     35 N4         -0.3067   -2.7008   -1.0216 N.4       1 <0>        -0.5252
     36 C27         0.0145   -4.1336   -0.9773 C.3       1 <0>        -0.0497
     37 O3         -0.3340   -0.2979   -2.5607 O.3       1 <0>        -0.3614
     38 C28         0.3101   -0.0933   -3.8198 C.3       1 <0>         0.0162
     39 H4          0.8261    2.0094    0.0240 H         1 <0>         0.0984
     40 H5         -0.3202    1.8814   -1.3317 H         1 <0>         0.1036
     41 H6         -0.9255    1.9818    0.3392 H         1 <0>         0.0921
     42 H7          2.1370   -3.1081    0.0458 H         1 <0>         0.1233
     43 H8          2.7835   -1.4869   -0.3048 H         1 <0>         0.1455
     44 H9          2.6036   -3.5149    2.8368 H         1 <0>         0.1365
     45 H10         2.5026   -5.5304    4.2610 H         1 <0>         0.1359
     46 H11         0.4045   -6.6780    4.6980 H         1 <0>         0.1352
     47 H12        -1.7278   -5.8736    3.7323 H         1 <0>         0.1600
     48 H13        -1.7792    1.9122   -1.7624 H         1 <0>         0.1440
     49 H14        -4.0153    2.5500   -2.5970 H         1 <0>         0.1336
     50 H15        -5.9967    1.2527   -2.0488 H         1 <0>         0.1332
     51 H16        -5.8575   -0.7687   -0.6249 H         1 <0>         0.1415
     52 H17        -6.1628   -4.9065    2.2103 H         1 <0>         0.4348
     53 H18        -5.9671   -2.3994    1.6094 H         1 <0>         0.1115
     54 H19        -5.7060   -3.4063    0.1559 H         1 <0>         0.1103
     55 H20        -0.6958   -2.4158   -0.1353 H         1 <0>         0.4186
     56 H21         0.4349   -4.4415   -1.9347 H         1 <0>         0.1256
     57 H22         0.7403   -4.3189   -0.1854 H         1 <0>         0.1191
     58 H23        -0.8932   -4.7035   -0.7789 H         1 <0>         0.1256
     59 H24         0.9168    0.8112   -3.7748 H         1 <0>         0.0633
     60 H25         0.9482   -0.9479   -4.0446 H         1 <0>         0.0514
     61 H26        -0.4433    0.0130   -4.6003 H         1 <0>         0.1100
     62 H27        -0.9785   -2.5293   -1.7546 H         1 <0>         0.4274
@<TRIPOS>BOND
     1    1    2 1
     2    1   39 1
     3    1   40 1
     4    1   41 1
     5    2   10 1
     6    2   21 1
     7    2    3 1
     8    3    4 1
     9    3    5 1
    10    3   37 1
    11    5    6 1
    12    5    7 1
    13    5   35 1
    14    7    8 1
    15    7   42 1
    16    7   43 1
    17    8    9 1
    18    8   10 1
    19    8   11 1
    20   11   19 1
    21   11   12 1
    22   12   17 ar
    23   12   13 ar
    24   13   14 ar
    25   13   44 1
    26   14   15 ar
    27   14   45 1
    28   15   16 ar
    29   15   46 1
    30   16   17 ar
    31   16   47 1
    32   17   18 1
    33   18   30 ar
    34   18   19 ar
    35   19   20 ar
    36   20   28 ar
    37   20   21 1
    38   21   22 1
    39   22   27 ar
    40   22   23 ar
    41   23   24 ar
    42   23   48 1
    43   24   25 ar
    44   24   49 1
    45   25   26 ar
    46   25   50 1
    47   26   27 ar
    48   26   51 1
    49   27   28 1
    50   28   29 ar
    51   29   34 1
    52   29   30 ar
    53   30   31 1
    54   31   32 2
    55   31   33 am
    56   33   34 1
    57   33   52 1
    58   34   53 1
    59   34   54 1
    60   35   36 1
    61   35   55 1
    62   35   62 1
    63   36   56 1
    64   36   57 1
    65   36   58 1
    66   37   38 1
    67   38   59 1
    68   38   60 1
    69   38   61 1
@<TRIPOS>MOLECULE
ZINC21288966
   49    52     0     0     0
SMALL
USER_CHARGES
2-(2-chlorophenyl)-5,7-dihydroxy-8-[(3S,4R)-3-hydroxy-1-methyl-4-piperidyl]chromen-4-one
@<TRIPOS>ATOM
      1 C1          6.0895   -0.0238    5.9621 C.3       1 <0>        -0.0460
      2 N1          6.1756    1.0472    4.9603 N.4       1 <0>        -0.3934
      3 C2          5.9739    0.5180    3.6055 C.3       1 <0>        -0.0028
      4 C3          6.2126    1.6289    2.5802 C.3       1 <0>        -0.1464
      5 C4          5.2418    2.7821    2.8491 C.3       1 <0>        -0.0180
      6 H1          4.2050    2.4431    2.7074 H         1 <0>         0.1039
      7 C5          5.4391    3.2830    4.2825 C.3       1 <0>         0.1015
      8 H2          4.7709    4.1271    4.5084 H         1 <0>         0.0941
      9 C6          5.2218    2.1236    5.2574 C.3       1 <0>        -0.0361
     10 O1          6.7669    3.7898    4.4323 O.3       1 <0>        -0.5639
     11 C7          5.5132    3.9050    1.8814 C.ar      1 <0>        -0.2158
     12 C8          6.8017    4.3949    1.7322 C.ar      1 <0>         0.2946
     13 C9          7.0678    5.4304    0.8434 C.ar      1 <0>        -0.3049
     14 C10         6.0448    5.9841    0.0956 C.ar      1 <0>         0.3111
     15 C11         4.7411    5.4942    0.2412 C.ar      1 <0>        -0.3649
     16 C12         4.4748    4.4470    1.1407 C.ar      1 <0>         0.2362
     17 O2          3.2147    3.9814    1.2730 O.3       1 <0>        -0.2171
     18 C13         2.1871    4.4838    0.5705 C.2       1 <0>         0.1982
     19 C14         2.3394    5.4926   -0.3277 C.2       1 <0>        -0.2780
     20 C15         3.6225    6.0546   -0.5353 C.2       1 <0>         0.4382
     21 O3          3.7953    6.9641   -1.3304 O.2       1 <0>        -0.4786
     22 C16         0.8407    3.9147    0.7769 C.ar      1 <0>        -0.0680
     23 C17         0.6478    2.5322    0.7263 C.ar      1 <0>        -0.0708
     24 C18        -0.6124    2.0073    0.9205 C.ar      1 <0>        -0.1159
     25 C19        -1.6867    2.8467    1.1599 C.ar      1 <0>        -0.0780
     26 C20        -1.5036    4.2164    1.2169 C.ar      1 <0>        -0.1066
     27 C21        -0.2472    4.7566    1.0243 C.ar      1 <0>        -0.0057
     28 Cl1        -0.0199    6.4765    1.0889 Cl        1 <0>        -0.0424
     29 O4          6.3024    6.9947   -0.7728 O.3       1 <0>        -0.4999
     30 O5          7.8133    3.8585    2.4614 O.3       1 <0>        -0.4665
     31 H3          6.8128   -0.8151    5.7159 H         1 <0>         0.1242
     32 H4          5.0728   -0.4438    5.9634 H         1 <0>         0.1169
     33 H5          6.3184    0.3856    6.9571 H         1 <0>         0.1225
     34 H6          6.6809   -0.3050    3.4243 H         1 <0>         0.1308
     35 H7          4.9438    0.1448    3.5072 H         1 <0>         0.1211
     36 H8          7.2477    1.9910    2.6662 H         1 <0>         0.1216
     37 H9          6.0450    1.2349    1.5669 H         1 <0>         0.1057
     38 H10         4.1951    1.7434    5.1512 H         1 <0>         0.1298
     39 H11         5.3771    2.4772    6.2874 H         1 <0>         0.1312
     40 H12         7.0946    4.1958    5.4007 H         1 <0>         0.4106
     41 H13         8.0758    5.8030    0.7365 H         1 <0>         0.1471
     42 H14         1.4871    5.8659   -0.8759 H         1 <0>         0.1670
     43 H15         1.4839    1.8757    0.5352 H         1 <0>         0.1384
     44 H16        -0.7625    0.9385    0.8812 H         1 <0>         0.1407
     45 H17        -2.6721    2.4298    1.3071 H         1 <0>         0.1438
     46 H18        -2.3456    4.8651    1.4082 H         1 <0>         0.1476
     47 H19         5.4855    7.4321   -1.3656 H         1 <0>         0.4556
     48 H20         8.8375    4.2431    2.3473 H         1 <0>         0.4397
     49 H21         7.1882    1.4744    5.0059 H         1 <0>         0.4481
@<TRIPOS>BOND
     1    1    2 1
     2    1   31 1
     3    1   32 1
     4    1   33 1
     5    2    9 1
     6    2    3 1
     7    2   49 1
     8    3    4 1
     9    3   34 1
    10    3   35 1
    11    4    5 1
    12    4   36 1
    13    4   37 1
    14    5    6 1
    15    5    7 1
    16    5   11 1
    17    7    8 1
    18    7    9 1
    19    7   10 1
    20    9   38 1
    21    9   39 1
    22   10   40 1
    23   11   16 ar
    24   11   12 ar
    25   12   13 ar
    26   12   30 1
    27   13   14 ar
    28   13   41 1
    29   14   15 ar
    30   14   29 1
    31   15   20 1
    32   15   16 ar
    33   16   17 1
    34   17   18 1
    35   18   19 2
    36   18   22 1
    37   19   20 1
    38   19   42 1
    39   20   21 2
    40   22   27 ar
    41   22   23 ar
    42   23   24 ar
    43   23   43 1
    44   24   25 ar
    45   24   44 1
    46   25   26 ar
    47   25   45 1
    48   26   27 ar
    49   26   46 1
    50   27   28 1
    51   29   47 1
    52   30   48 1
@<TRIPOS>MOLECULE
ZINC03871576
   30    32     0     0     0
SMALL
USER_CHARGES

@<TRIPOS>ATOM
      1 C1         -0.0169    1.3935    0.0097 C.ar      1 <0>        -0.0604
      2 C2          1.1676    2.0963    0.0022 C.ar      1 <0>        -0.1497
      3 C3          2.3803    1.4179   -0.0135 C.ar      1 <0>         0.1360
      4 C4          2.4038    0.0284   -0.0212 C.ar      1 <0>        -0.1474
      5 C5          1.2241   -0.6823   -0.0133 C.ar      1 <0>        -0.0612
      6 C6          0.0021   -0.0041    0.0020 C.ar      1 <0>        -0.0853
      7 C7         -1.2639   -0.7610    0.0105 C.2       1 <0>         0.2092
      8 C8         -1.2134   -2.1203    0.0083 C.2       1 <0>        -0.3116
      9 C9         -2.4177   -2.8631    0.0169 C.2       1 <0>         0.4226
     10 O1         -2.4099   -4.0836    0.0156 O.2       1 <0>        -0.4538
     11 C10        -3.6809   -2.1061    0.0279 C.ar      1 <0>        -0.2659
     12 C11        -4.9199   -2.7591    0.0374 C.ar      1 <0>         0.2192
     13 C12        -6.0832   -2.0121    0.0480 C.ar      1 <0>        -0.2049
     14 C13        -6.0212   -0.6227    0.0493 C.ar      1 <0>         0.1922
     15 C14        -4.7984    0.0300    0.0400 C.ar      1 <0>        -0.1830
     16 C15        -3.6212   -0.7020    0.0293 C.ar      1 <0>         0.1830
     17 O2         -2.4220   -0.0821    0.0257 O.3       1 <0>        -0.2182
     18 O3         -7.1695    0.1013    0.0593 O.3       1 <0>        -0.4872
     19 O4         -4.9782   -4.1150    0.0356 O.3       1 <0>        -0.4722
     20 O5          3.5455    2.1145   -0.0218 O.3       1 <0>        -0.4965
     21 H1         -0.9589    1.9215    0.0260 H         1 <0>         0.1404
     22 H2          1.1538    3.1762    0.0081 H         1 <0>         0.1393
     23 H3          3.3485   -0.4949   -0.0338 H         1 <0>         0.1414
     24 H4          1.2432   -1.7622   -0.0196 H         1 <0>         0.1415
     25 H5         -0.2608   -2.6290   -0.0002 H         1 <0>         0.1637
     26 H6         -7.0423   -2.5086    0.0550 H         1 <0>         0.1502
     27 H7         -4.7627    1.1094    0.0411 H         1 <0>         0.1534
     28 H8         -7.4952    0.3100    0.9456 H         1 <0>         0.4037
     29 H9         -4.9875   -4.5094    0.9185 H         1 <0>         0.4031
     30 H10         3.8920    2.3119    0.8591 H         1 <0>         0.3984
@<TRIPOS>BOND
     1    1    6 ar
     2    1    2 ar
     3    1   21 1
     4    2    3 ar
     5    2   22 1
     6    3    4 ar
     7    3   20 1
     8    4    5 ar
     9    4   23 1
    10    5    6 ar
    11    5   24 1
    12    6    7 1
    13    7   17 1
    14    7    8 2
    15    8    9 1
    16    8   25 1
    17    9   10 2
    18    9   11 1
    19   11   16 ar
    20   11   12 ar
    21   12   13 ar
    22   12   19 1
    23   13   14 ar
    24   13   26 1
    25   14   15 ar
    26   14   18 1
    27   15   16 ar
    28   15   27 1
    29   16   17 1
    30   18   28 1
    31   19   29 1
    32   20   30 1
@<TRIPOS>MOLECULE
ZINC03871576
   29    31     0     0     0
SMALL
USER_CHARGES

@<TRIPOS>ATOM
      1 C1         -0.0169    1.3945    0.0097 C.ar      1 <0>        -0.0666
      2 C2          1.1672    2.0969    0.0022 C.ar      1 <0>        -0.1480
      3 C3          2.3804    1.4183   -0.0135 C.ar      1 <0>         0.1175
      4 C4          2.4042    0.0284   -0.0212 C.ar      1 <0>        -0.1471
      5 C5          1.2251   -0.6825   -0.0138 C.ar      1 <0>        -0.0696
      6 C6          0.0021   -0.0041    0.0020 C.ar      1 <0>        -0.0607
      7 C7         -1.2623   -0.7603    0.0105 C.2       1 <0>         0.1733
      8 C8         -1.2238   -2.1392    0.0085 C.2       1 <0>        -0.2675
      9 C9         -2.4161   -2.8666    0.0170 C.2       1 <0>         0.3649
     10 C10        -3.6370   -2.1554    0.0275 C.2       1 <0>        -0.3407
     11 C11        -4.8707   -2.8387    0.0369 C.2       1 <0>         0.2653
     12 C12        -6.0384   -2.1317    0.0475 C.2       1 <0>        -0.3780
     13 C13        -6.0158   -0.7277    0.0485 C.2       1 <0>         0.3615
     14 O1         -7.1627   -0.0461    0.0589 O.2       1 <0>        -0.6669
     15 C14        -4.7977   -0.0391    0.0393 C.2       1 <0>        -0.3147
     16 C15        -3.6098   -0.7430    0.0291 C.2       1 <0>         0.2111
     17 O2         -2.4272   -0.0920    0.0257 O.3       1 <0>        -0.2196
     18 O3         -4.8969   -4.1953    0.0351 O.3       1 <0>        -0.4477
     19 O4         -2.4024   -4.2178    0.0147 O.3       1 <0>        -0.5784
     20 O5          3.5452    2.1149   -0.0218 O.3       1 <0>        -0.4988
     21 H1         -0.9589    1.9225    0.0260 H         1 <0>         0.1416
     22 H2          1.1536    3.1768    0.0081 H         1 <0>         0.1349
     23 H3          3.3490   -0.4946   -0.0334 H         1 <0>         0.1360
     24 H4          1.2446   -1.7623   -0.0201 H         1 <0>         0.1407
     25 H5         -0.2747   -2.6546   -0.0001 H         1 <0>         0.1464
     26 H6         -6.9835   -2.6543    0.0547 H         1 <0>         0.1160
     27 H7         -4.7867    1.0408    0.0398 H         1 <0>         0.1203
     28 H8         -5.7877   -4.5715    0.0420 H         1 <0>         0.3828
     29 H9          3.8917    2.3124    0.8591 H         1 <0>         0.3921
@<TRIPOS>BOND
     1    1    6 ar
     2    1    2 ar
     3    1   21 1
     4    2    3 ar
     5    2   22 1
     6    3    4 ar
     7    3   20 1
     8    4    5 ar
     9    4   23 1
    10    5    6 ar
    11    5   24 1
    12    6    7 1
    13    7   17 1
    14    7    8 2
    15    8    9 1
    16    8   25 1
    17    9   10 2
    18    9   19 1
    19   10   16 1
    20   10   11 1
    21   11   12 2
    22   11   18 1
    23   12   13 1
    24   12   26 1
    25   13   14 2
    26   13   15 1
    27   15   16 2
    28   15   27 1
    29   16   17 1
    30   18   28 1
    31   20   29 1
@<TRIPOS>MOLECULE
ZINC03872070
   29    31     0     0     0
SMALL
USER_CHARGES

@<TRIPOS>ATOM
      1 C1         -0.0167    1.3795    0.0096 C.ar      1 <0>        -0.0927
      2 C2          1.1683    2.0940    0.0021 C.ar      1 <0>        -0.1229
      3 C3          2.3774    1.4303   -0.0130 C.ar      1 <0>        -0.0794
      4 C4          2.4038    0.0341   -0.0208 C.ar      1 <0>        -0.0750
      5 C5          1.2040   -0.6806   -0.0131 C.ar      1 <0>        -0.0800
      6 C6          0.0021   -0.0041    0.0020 C.ar      1 <0>        -0.1206
      7 C7          3.6945   -0.6834   -0.0374 C.2       1 <0>         0.2076
      8 C8          3.6865   -2.0422   -0.0503 C.2       1 <0>        -0.3115
      9 C9          4.9147   -2.7475   -0.0669 C.2       1 <0>         0.4227
     10 O1          4.9453   -3.9673   -0.0791 O.2       1 <0>        -0.4538
     11 C10         6.1531   -1.9509   -0.0693 C.ar      1 <0>        -0.2663
     12 C11         7.4124   -2.5640   -0.0858 C.ar      1 <0>         0.2193
     13 C12         8.5511   -1.7802   -0.0879 C.ar      1 <0>        -0.2051
     14 C13         8.4449   -0.3935   -0.0739 C.ar      1 <0>         0.1922
     15 C14         7.2019    0.2199   -0.0571 C.ar      1 <0>        -0.1832
     16 C15         6.0486   -0.5493   -0.0551 C.ar      1 <0>         0.1831
     17 O2          4.8303    0.0319   -0.0449 O.3       1 <0>        -0.2180
     18 O3          9.5695    0.3668   -0.0761 O.3       1 <0>        -0.4872
     19 O4          7.5139   -3.9173   -0.0990 O.3       1 <0>        -0.4722
     20 H1         -0.9606    1.9042    0.0260 H         1 <0>         0.1309
     21 H2          1.1464    3.1738    0.0078 H         1 <0>         0.1326
     22 H3          3.3016    1.9892   -0.0192 H         1 <0>         0.1349
     23 H4          1.2173   -1.7605   -0.0194 H         1 <0>         0.1361
     24 H5         -0.9265   -0.5555    0.0079 H         1 <0>         0.1347
     25 H6          2.7503   -2.5805   -0.0475 H         1 <0>         0.1636
     26 H7          9.5256   -2.2457   -0.1002 H         1 <0>         0.1502
     27 H8          7.1320    1.2975   -0.0459 H         1 <0>         0.1533
     28 H9          9.8879    0.5955   -0.9601 H         1 <0>         0.4037
     29 H10         7.5357   -4.3014   -0.9862 H         1 <0>         0.4030
@<TRIPOS>BOND
     1    1    6 ar
     2    1    2 ar
     3    1   20 1
     4    2    3 ar
     5    2   21 1
     6    3    4 ar
     7    3   22 1
     8    4    5 ar
     9    4    7 1
    10    5    6 ar
    11    5   23 1
    12    6   24 1
    13    7   17 1
    14    7    8 2
    15    8    9 1
    16    8   25 1
    17    9   10 2
    18    9   11 1
    19   11   16 ar
    20   11   12 ar
    21   12   13 ar
    22   12   19 1
    23   13   14 ar
    24   13   26 1
    25   14   15 ar
    26   14   18 1
    27   15   16 ar
    28   15   27 1
    29   16   17 1
    30   18   28 1
    31   19   29 1
@<TRIPOS>MOLECULE
ZINC03872070
   28    30     0     0     0
SMALL
USER_CHARGES

@<TRIPOS>ATOM
      1 C1         -0.0167    1.3797    0.0096 C.ar      1 <0>        -0.1070
      2 C2          1.1682    2.0946    0.0022 C.ar      1 <0>        -0.1239
      3 C3          2.3774    1.4315   -0.0129 C.ar      1 <0>        -0.0844
      4 C4          2.4042    0.0344   -0.0206 C.ar      1 <0>        -0.0523
      5 C5          1.2037   -0.6807   -0.0130 C.ar      1 <0>        -0.0872
      6 C6          0.0021   -0.0041    0.0020 C.ar      1 <0>        -0.1230
      7 C7          3.6938   -0.6822   -0.0372 C.2       1 <0>         0.1725
      8 C8          3.6987   -2.0599   -0.0503 C.2       1 <0>        -0.2684
      9 C9          4.9147   -2.7500   -0.0661 C.2       1 <0>         0.3652
     10 C10         6.1116   -2.0009   -0.0682 C.2       1 <0>        -0.3412
     11 C11         7.3668   -2.6443   -0.0844 C.2       1 <0>         0.2654
     12 C12         8.5111   -1.9002   -0.0865 C.2       1 <0>        -0.3783
     13 C13         8.4435   -0.4975   -0.0722 C.2       1 <0>         0.3617
     14 O1          9.5678    0.2204   -0.0740 O.2       1 <0>        -0.6670
     15 C14         7.2040    0.1518   -0.0566 C.2       1 <0>        -0.3151
     16 C15         6.0392   -0.5896   -0.0543 C.2       1 <0>         0.2114
     17 O2          4.8365    0.0229   -0.0448 O.3       1 <0>        -0.2195
     18 O3          7.4365   -3.9993   -0.0974 O.3       1 <0>        -0.4477
     19 O4          4.9436   -4.1007   -0.0786 O.3       1 <0>        -0.5790
     20 H1         -0.9606    1.9042    0.0260 H         1 <0>         0.1247
     21 H2          1.1460    3.1743    0.0078 H         1 <0>         0.1280
     22 H3          3.3014    1.9906   -0.0191 H         1 <0>         0.1359
     23 H4          1.2169   -1.7606   -0.0192 H         1 <0>         0.1351
     24 H5         -0.9266   -0.5554    0.0079 H         1 <0>         0.1291
     25 H6          2.7663   -2.6050   -0.0479 H         1 <0>         0.1462
     26 H7          9.4725   -2.3921   -0.0990 H         1 <0>         0.1160
     27 H8          7.1585    1.2308   -0.0456 H         1 <0>         0.1202
     28 H9          8.3389   -4.3466   -0.1079 H         1 <0>         0.3827
@<TRIPOS>BOND
     1    1    6 ar
     2    1    2 ar
     3    1   20 1
     4    2    3 ar
     5    2   21 1
     6    3    4 ar
     7    3   22 1
     8    4    5 ar
     9    4    7 1
    10    5    6 ar
    11    5   23 1
    12    6   24 1
    13    7   17 1
    14    7    8 2
    15    8    9 1
    16    8   25 1
    17    9   10 2
    18    9   19 1
    19   10   16 1
    20   10   11 1
    21   11   12 2
    22   11   18 1
    23   12   13 1
    24   12   26 1
    25   13   14 2
    26   13   15 1
    27   15   16 2
    28   15   27 1
    29   16   17 1
    30   18   28 1
@<TRIPOS>MOLECULE
ZINC03938686
   63    67     0     0     0
SMALL
USER_CHARGES
9-acetyl-7-cyclopentyl-10-methyl-4-[(5-piperazin-1-yl-2-pyridyl)amino]-3,5,7-triazabicyclo[4.4.0]deca-2,4,9,11-tetraen-8-one
@<TRIPOS>ATOM
      1 C1         -2.3844   -0.3411    0.0474 C.3       1 <0>        -0.1409
      2 C2         -2.5671    1.1541    0.0026 C.2       1 <0>         0.1157
      3 C3         -1.4510    2.0113   -0.0422 C.ar      1 <0>        -0.2826
      4 C4         -0.1412    1.4997   -0.0469 C.ar      1 <0>         0.2613
      5 N1          0.8670    2.3479   -0.0954 N.ar      1 <0>        -0.5182
      6 C5          0.6607    3.6609   -0.1337 C.ar      1 <0>         0.6031
      7 N2         -0.5531    4.1905   -0.1255 N.ar      1 <0>        -0.5932
      8 C6         -1.6292    3.4134   -0.0780 C.ar      1 <0>         0.4749
      9 N3         -2.8875    3.9578   -0.0698 N.am      1 <0>        -0.4977
     10 C7         -3.9812    3.1727   -0.0386 C.2       1 <0>         0.5604
     11 O1         -5.0896    3.6763   -0.0364 O.2       1 <0>        -0.4885
     12 C8         -3.8413    1.7120    0.0053 C.2       1 <0>        -0.2966
     13 C9         -5.0259    0.8547    0.0508 C.2       1 <0>         0.4148
     14 O2         -4.9015   -0.3459    0.1765 O.2       1 <0>        -0.4617
     15 C10        -6.4005    1.4626   -0.0585 C.3       1 <0>        -0.1968
     16 C11        -3.0448    5.4137   -0.1137 C.3       1 <0>         0.1243
     17 C12        -3.8418    5.8964    1.1158 C.3       1 <0>        -0.1313
     18 C13        -4.7226    7.0478    0.5684 C.3       1 <0>        -0.1171
     19 C14        -5.1254    6.5332   -0.8359 C.3       1 <0>        -0.1176
     20 C15        -3.8602    5.8187   -1.3542 C.3       1 <0>        -0.1250
     21 N4          1.7523    4.5033   -0.1832 N.pl3     1 <0>        -0.6102
     22 C16         3.0418    3.9804   -0.0865 C.ar      1 <0>         0.3681
     23 C17         4.1310    4.8432   -0.0314 C.ar      1 <0>        -0.1772
     24 C18         5.4050    4.3149    0.0697 C.ar      1 <0>        -0.0499
     25 C19         5.5482    2.9285    0.1016 C.ar      1 <0>        -0.0032
     26 C20         4.4160    2.1302    0.0367 C.ar      1 <0>         0.1024
     27 N5          3.2149    2.6690   -0.0538 N.ar      1 <0>        -0.4385
     28 N6          6.8190    2.3494    0.1975 N.pl3     1 <0>        -0.4780
     29 C21         7.5351    2.8441    1.3815 C.3       1 <0>         0.0225
     30 C22         8.9453    2.2498    1.4067 C.3       1 <0>         0.0012
     31 C23         8.1396    0.2884    0.2394 C.3       1 <0>         0.0020
     32 C24         6.7294    0.8827    0.2142 C.3       1 <0>         0.0159
     33 H1         -2.4234   -0.6810    1.0823 H         1 <0>         0.0997
     34 H2         -3.1793   -0.8215   -0.5230 H         1 <0>         0.1126
     35 H3         -1.4184   -0.6022   -0.3847 H         1 <0>         0.0723
     36 H4          0.0350    0.4346   -0.0161 H         1 <0>         0.1893
     37 H5         -6.6334    1.5888   -1.0228 H         1 <0>         0.0842
     38 H6         -7.1292    0.7993    0.4075 H         1 <0>         0.0792
     39 H7         -6.4122    2.4280    0.4474 H         1 <0>         0.1146
     40 H8         -2.0666    5.8941   -0.1367 H         1 <0>         0.1179
     41 H9         -4.4652    5.0919    1.5062 H         1 <0>         0.0830
     42 H10        -3.1663    6.2655    1.8875 H         1 <0>         0.0681
     43 H11        -4.1472    7.9704    0.4913 H         1 <0>         0.0676
     44 H12        -5.6033    7.1918    1.1943 H         1 <0>         0.0730
     45 H13        -5.3865    7.3671   -1.4874 H         1 <0>         0.0659
     46 H14        -5.9562    5.8316   -0.7613 H         1 <0>         0.0805
     47 H15        -3.2781    6.4963   -1.9787 H         1 <0>         0.0721
     48 H16        -4.1382    4.9321   -1.9240 H         1 <0>         0.0687
     49 H17         1.6230    5.4592   -0.2853 H         1 <0>         0.4378
     50 H18         3.9835    5.9126   -0.0627 H         1 <0>         0.1468
     51 H19         6.2690    4.9610    0.1183 H         1 <0>         0.1448
     52 H20         4.5185    1.0553    0.0608 H         1 <0>         0.1601
     53 H21         7.5994    3.9314    1.3398 H         1 <0>         0.1266
     54 H22         6.9986    2.5455    2.2821 H         1 <0>         0.0696
     55 H23         9.4685    2.5924    2.2994 H         1 <0>         0.1410
     56 H24         9.4910    2.5707    0.5193 H         1 <0>         0.1409
     57 H25         8.0754   -0.7989    0.2811 H         1 <0>         0.1425
     58 H26         8.6760    0.5867   -0.6614 H         1 <0>         0.1410
     59 H27         6.1837    0.5618    1.1016 H         1 <0>         0.0733
     60 H28         6.2059    0.5401   -0.6783 H         1 <0>         0.1313
     61 N7          8.8595    0.7773    1.4306 N.4       1 <0>        -0.5194
     62 H29         8.3573    0.4807    2.2756 H         1 <0>         0.4317
     63 H30         9.8074    0.3827    1.4396 H         1 <0>         0.4407
@<TRIPOS>BOND
     1    1    2 1
     2    1   33 1
     3    1   34 1
     4    1   35 1
     5    2   12 2
     6    2    3 1
     7    3    8 ar
     8    3    4 ar
     9    4    5 ar
    10    4   36 1
    11    5    6 ar
    12    6    7 ar
    13    6   21 1
    14    7    8 ar
    15    8    9 1
    16    9   10 am
    17    9   16 1
    18   10   11 2
    19   10   12 1
    20   12   13 1
    21   13   14 2
    22   13   15 1
    23   15   37 1
    24   15   38 1
    25   15   39 1
    26   16   20 1
    27   16   17 1
    28   16   40 1
    29   17   18 1
    30   17   41 1
    31   17   42 1
    32   18   19 1
    33   18   43 1
    34   18   44 1
    35   19   20 1
    36   19   45 1
    37   19   46 1
    38   20   47 1
    39   20   48 1
    40   21   22 1
    41   21   49 1
    42   22   27 ar
    43   22   23 ar
    44   23   24 ar
    45   23   50 1
    46   24   25 ar
    47   24   51 1
    48   25   26 ar
    49   25   28 1
    50   26   27 ar
    51   26   52 1
    52   28   32 1
    53   28   29 1
    54   29   30 1
    55   29   53 1
    56   29   54 1
    57   30   55 1
    58   30   56 1
    59   30   61 1
    60   31   32 1
    61   31   57 1
    62   31   58 1
    63   31   61 1
    64   32   59 1
    65   32   60 1
    66   61   62 1
    67   61   63 1
@<TRIPOS>MOLECULE
ZINC29056064
   54    57     0     0     0
SMALL
USER_CHARGES
1-(2,6-dichlorophenyl)-6-[[4-(2-hydroxyethoxy)phenyl]methyl]-3-isopropyl-5H-pyrazolo[3,4-d]pyrimidin-4-one
@<TRIPOS>ATOM
      1 C1          2.3572    8.4917    1.4942 C.3       1 <0>        -0.1430
      2 C2          1.5734    8.5299    0.1807 C.3       1 <0>        -0.0242
      3 C3          2.5502    8.5120   -0.9967 C.3       1 <0>        -0.1426
      4 C4          0.6681    7.3278    0.1008 C.2       1 <0>         0.1688
      5 C5         -0.7348    7.3590   -0.0077 C.2       1 <0>        -0.3390
      6 C6         -1.7365    8.4226   -0.0767 C.2       1 <0>         0.5817
      7 O1         -1.4146    9.5972   -0.0426 O.2       1 <0>        -0.5166
      8 N1         -3.0347    8.0531   -0.1803 N.am      1 <0>        -0.6609
      9 H1         -3.8220    8.8194   -0.2351 H         1 <0>         0.4506
     10 C7         -3.3711    6.7390   -0.2170 C.2       1 <0>         0.4368
     11 N2         -2.4939    5.7801   -0.1572 N.2       1 <0>        -0.5073
     12 C8         -1.1793    6.0279   -0.0529 C.2       1 <0>         0.3607
     13 N3         -0.0688    5.2451    0.0268 N.pl3     1 <0>        -0.3137
     14 N4          1.0510    6.0805    0.1260 N.2       1 <0>        -0.2484
     15 C9         -0.0497    3.8439    0.0174 C.ar      1 <0>         0.1627
     16 C10        -0.7963    3.1310    0.9473 C.ar      1 <0>        -0.0096
     17 C11        -0.7746    1.7489    0.9353 C.ar      1 <0>        -0.0953
     18 C12        -0.0111    1.0759   -0.0007 C.ar      1 <0>        -0.0850
     19 C13         0.7377    1.7821   -0.9240 C.ar      1 <0>        -0.0998
     20 C14         0.7164    3.1643   -0.9216 C.ar      1 <0>        -0.0144
     21 Cl1         1.6508    4.0499   -2.0863 Cl        1 <0>        -0.0314
     22 Cl2        -1.7557    3.9749    2.1224 Cl        1 <0>        -0.0279
     23 C15        -4.8284    6.3733   -0.3330 C.3       1 <0>        -0.0338
     24 C16        -4.9808    4.8776   -0.2304 C.ar      1 <0>        -0.1032
     25 C17        -4.9382    4.0996   -1.3726 C.ar      1 <0>        -0.0545
     26 C18        -5.0719    2.7277   -1.2807 C.ar      1 <0>        -0.2083
     27 C19        -5.2600    2.1317   -0.0421 C.ar      1 <0>         0.1366
     28 C20        -5.3080    2.9151    1.1019 C.ar      1 <0>        -0.1465
     29 C21        -5.1685    4.2861    1.0052 C.ar      1 <0>        -0.0571
     30 O2         -5.3973    0.7828    0.0504 O.3       1 <0>        -0.3063
     31 C22        -5.3375    0.0395   -1.1686 C.3       1 <0>         0.0581
     32 C23        -5.5106   -1.4503   -0.8665 C.3       1 <0>         0.0868
     33 O3         -6.8213   -1.6818   -0.3465 O.3       1 <0>        -0.5962
     34 H2          1.6549    8.5046    2.3407 H         1 <0>         0.0553
     35 H3          3.0179    9.3692    1.5525 H         1 <0>         0.0669
     36 H4          2.9622    7.5739    1.5336 H         1 <0>         0.0624
     37 H5          0.9554    9.4390    0.1401 H         1 <0>         0.1059
     38 H6          1.9867    8.5395   -1.9410 H         1 <0>         0.0548
     39 H7          3.1552    7.5942   -0.9573 H         1 <0>         0.0623
     40 H8          3.2109    9.3895   -0.9383 H         1 <0>         0.0669
     41 H9         -1.3550    1.1941    1.6576 H         1 <0>         0.1493
     42 H10         0.0040   -0.0040   -0.0077 H         1 <0>         0.1497
     43 H11         1.3367    1.2532   -1.6506 H         1 <0>         0.1497
     44 H12        -5.3932    6.8559    0.4782 H         1 <0>         0.1138
     45 H13        -5.2162    6.7156   -1.3038 H         1 <0>         0.1153
     46 H14        -4.7962    4.5644   -2.3371 H         1 <0>         0.1199
     47 H15        -5.0338    2.1199   -2.1726 H         1 <0>         0.1236
     48 H16        -5.4546    2.4535    2.0672 H         1 <0>         0.1272
     49 H17        -5.2059    4.8963    1.8954 H         1 <0>         0.1219
     50 H18        -6.1414    0.3731   -1.8412 H         1 <0>         0.0695
     51 H19        -4.3631    0.2049   -1.6515 H         1 <0>         0.0769
     52 H20        -5.3754   -2.0301   -1.7915 H         1 <0>         0.0645
     53 H21        -4.7612   -1.7635   -0.1246 H         1 <0>         0.0539
     54 H22        -7.1311   -2.7003   -0.0694 H         1 <0>         0.4127
@<TRIPOS>BOND
     1    1    2 1
     2    1   34 1
     3    1   35 1
     4    1   36 1
     5    2    3 1
     6    2    4 1
     7    2   37 1
     8    3   38 1
     9    3   39 1
    10    3   40 1
    11    4   14 2
    12    4    5 1
    13    5   12 2
    14    5    6 1
    15    6    7 2
    16    6    8 am
    17    8    9 1
    18    8   10 1
    19   10   11 2
    20   10   23 1
    21   11   12 1
    22   12   13 1
    23   13   14 1
    24   13   15 1
    25   15   20 ar
    26   15   16 ar
    27   16   17 ar
    28   16   22 1
    29   17   18 ar
    30   17   41 1
    31   18   19 ar
    32   18   42 1
    33   19   20 ar
    34   19   43 1
    35   20   21 1
    36   23   24 1
    37   23   44 1
    38   23   45 1
    39   24   29 ar
    40   24   25 ar
    41   25   26 ar
    42   25   46 1
    43   26   27 ar
    44   26   47 1
    45   27   28 ar
    46   27   30 1
    47   28   29 ar
    48   28   48 1
    49   29   49 1
    50   30   31 1
    51   31   32 1
    52   31   50 1
    53   31   51 1
    54   32   33 1
    55   32   52 1
    56   32   53 1
    57   33   54 1
@<TRIPOS>MOLECULE
ZINC29056064
   53    56     0     0     0
SMALL
USER_CHARGES
1-(2,6-dichlorophenyl)-6-[[4-(2-hydroxyethoxy)phenyl]methyl]-3-isopropyl-5H-pyrazolo[3,4-d]pyrimidin-4-one
@<TRIPOS>ATOM
      1 C1          2.3572    8.4917    1.4942 C.3       1 <0>        -0.1356
      2 C2          1.5734    8.5299    0.1807 C.3       1 <0>        -0.0213
      3 C3          2.5502    8.5120   -0.9967 C.3       1 <0>        -0.1351
      4 C4          0.6681    7.3278    0.1008 C.2       1 <0>         0.1613
      5 C5         -0.7348    7.3590   -0.0077 C.ar      1 <0>        -0.3976
      6 C6         -1.7365    8.4226   -0.0767 C.ar      1 <0>         0.5480
      7 O1         -1.4146    9.5972   -0.0426 O.3       1 <0>        -0.5931
      8 N1         -3.0347    8.0531   -0.1803 N.ar      1 <0>        -0.6810
      9 C7         -3.3711    6.7390   -0.2170 C.ar      1 <0>         0.3959
     10 N2         -2.4939    5.7801   -0.1572 N.ar      1 <0>        -0.6094
     11 C8         -1.1793    6.0279   -0.0529 C.ar      1 <0>         0.3775
     12 N3         -0.0688    5.2451    0.0268 N.pl3     1 <0>        -0.3533
     13 N4          1.0510    6.0805    0.1260 N.2       1 <0>        -0.2964
     14 C9         -0.0497    3.8439    0.0174 C.ar      1 <0>         0.2037
     15 C10        -0.7963    3.1310    0.9473 C.ar      1 <0>        -0.0180
     16 C11        -0.7746    1.7489    0.9353 C.ar      1 <0>        -0.0985
     17 C12        -0.0111    1.0759   -0.0007 C.ar      1 <0>        -0.1076
     18 C13         0.7377    1.7821   -0.9240 C.ar      1 <0>        -0.1050
     19 C14         0.7164    3.1643   -0.9216 C.ar      1 <0>        -0.0276
     20 Cl1         1.6508    4.0499   -2.0863 Cl        1 <0>        -0.0424
     21 Cl2        -1.7557    3.9749    2.1224 Cl        1 <0>        -0.0263
     22 C15        -4.8284    6.3733   -0.3330 C.3       1 <0>        -0.0068
     23 C16        -4.9808    4.8776   -0.2304 C.ar      1 <0>        -0.0676
     24 C17        -4.9382    4.0996   -1.3726 C.ar      1 <0>        -0.0620
     25 C18        -5.0719    2.7277   -1.2807 C.ar      1 <0>        -0.2068
     26 C19        -5.2600    2.1317   -0.0421 C.ar      1 <0>         0.1155
     27 C20        -5.3080    2.9151    1.1019 C.ar      1 <0>        -0.1459
     28 C21        -5.1685    4.2861    1.0052 C.ar      1 <0>        -0.0628
     29 O2         -5.3973    0.7828    0.0504 O.3       1 <0>        -0.3112
     30 C22        -5.3375    0.0395   -1.1686 C.3       1 <0>         0.0597
     31 C23        -5.5106   -1.4503   -0.8665 C.3       1 <0>         0.0880
     32 O3         -6.8213   -1.6818   -0.3465 O.3       1 <0>        -0.5941
     33 H1          1.6549    8.5046    2.3407 H         1 <0>         0.0521
     34 H2          3.0179    9.3692    1.5525 H         1 <0>         0.0550
     35 H3          2.9622    7.5739    1.5336 H         1 <0>         0.0557
     36 H4          0.9554    9.4390    0.1401 H         1 <0>         0.1043
     37 H5          1.9867    8.5395   -1.9410 H         1 <0>         0.0515
     38 H6          3.1552    7.5942   -0.9573 H         1 <0>         0.0557
     39 H7          3.2109    9.3895   -0.9383 H         1 <0>         0.0549
     40 H8         -1.3550    1.1941    1.6576 H         1 <0>         0.1399
     41 H9          0.0040   -0.0040   -0.0077 H         1 <0>         0.1392
     42 H10         1.3367    1.2532   -1.6506 H         1 <0>         0.1392
     43 H11        -5.3932    6.8559    0.4782 H         1 <0>         0.0898
     44 H12        -5.2162    6.7156   -1.3038 H         1 <0>         0.0884
     45 H13        -4.7962    4.5644   -2.3371 H         1 <0>         0.1156
     46 H14        -5.0338    2.1199   -2.1726 H         1 <0>         0.1160
     47 H15        -5.4546    2.4535    2.0672 H         1 <0>         0.1195
     48 H16        -5.2059    4.8963    1.8954 H         1 <0>         0.1181
     49 H17        -6.1414    0.3731   -1.8412 H         1 <0>         0.0656
     50 H18        -4.3631    0.2049   -1.6515 H         1 <0>         0.0750
     51 H19        -5.3754   -2.0301   -1.7915 H         1 <0>         0.0608
     52 H20        -4.7612   -1.7635   -0.1246 H         1 <0>         0.0528
     53 H21        -7.1311   -2.7003   -0.0694 H         1 <0>         0.4068
@<TRIPOS>BOND
     1    1    2 1
     2    1   33 1
     3    1   34 1
     4    1   35 1
     5    2    3 1
     6    2    4 1
     7    2   36 1
     8    3   37 1
     9    3   38 1
    10    3   39 1
    11    4   13 2
    12    4    5 1
    13    5   11 ar
    14    5    6 ar
    15    6    7 1
    16    6    8 ar
    17    8    9 ar
    18    9   10 ar
    19    9   22 1
    20   10   11 ar
    21   11   12 1
    22   12   13 1
    23   12   14 1
    24   14   19 ar
    25   14   15 ar
    26   15   16 ar
    27   15   21 1
    28   16   17 ar
    29   16   40 1
    30   17   18 ar
    31   17   41 1
    32   18   19 ar
    33   18   42 1
    34   19   20 1
    35   22   23 1
    36   22   43 1
    37   22   44 1
    38   23   28 ar
    39   23   24 ar
    40   24   25 ar
    41   24   45 1
    42   25   26 ar
    43   25   46 1
    44   26   27 ar
    45   26   29 1
    46   27   28 ar
    47   27   47 1
    48   28   48 1
    49   29   30 1
    50   30   31 1
    51   30   49 1
    52   30   50 1
    53   31   32 1
    54   31   51 1
    55   31   52 1
    56   32   53 1
@<TRIPOS>MOLECULE
ZINC01616841
   32    36     0     0     0
SMALL
USER_CHARGES
BLAHone
@<TRIPOS>ATOM
      1 C1         -4.4292    5.2593    0.0683 C.ar      1 <0>        -0.1267
      2 C2         -3.7839    6.4864    0.0689 C.ar      1 <0>        -0.0420
      3 C3         -2.4069    6.5540    0.0563 C.ar      1 <0>        -0.1292
      4 C4         -1.6516    5.3861    0.0434 C.ar      1 <0>         0.1568
      5 C5         -2.3062    4.1438    0.0428 C.ar      1 <0>        -0.1260
      6 C6         -3.6988    4.0907    0.0547 C.ar      1 <0>        -0.0356
      7 C7         -1.2506    3.1204    0.0284 C.ar      1 <0>         0.0087
      8 C8         -1.2294    1.7312    0.0174 C.ar      1 <0>        -0.0452
      9 C9         -0.0126    1.0758    0.0080 C.ar      1 <0>         0.1001
     10 N1          1.1432    1.7395    0.0005 N.ar      1 <0>        -0.2393
     11 C10         1.1657    3.0731    0.0070 C.ar      1 <0>         0.0117
     12 C11        -0.0197    3.8140    0.0211 C.ar      1 <0>         0.2043
     13 N2         -0.2845    5.1624    0.0303 N.pl3     1 <0>        -0.5755
     14 H1          0.3904    5.8591    0.0282 H         1 <0>         0.4415
     15 C12         2.5831    3.5188   -0.0032 C.2       1 <0>         0.4493
     16 O1          3.0044    4.6583   -0.0016 O.2       1 <0>        -0.3564
     17 C13         3.3672    2.2619   -0.0164 C.ar      1 <0>        -0.1653
     18 C14         2.4283    1.2188   -0.0134 C.ar      1 <0>         0.0523
     19 C15         2.8797   -0.0967   -0.0235 C.ar      1 <0>        -0.0647
     20 C16         4.2387   -0.3624   -0.0364 C.ar      1 <0>        -0.0628
     21 C17         5.1587    0.6691   -0.0393 C.ar      1 <0>        -0.0822
     22 C18         4.7268    1.9855   -0.0294 C.ar      1 <0>        -0.0135
     23 H2         -5.5084    5.2191    0.0782 H         1 <0>         0.1483
     24 H3         -4.3646    7.3969    0.0789 H         1 <0>         0.1506
     25 H4         -1.9140    7.5150    0.0569 H         1 <0>         0.1445
     26 H5         -4.2042    3.1363    0.0542 H         1 <0>         0.1449
     27 H6         -2.1524    1.1704    0.0191 H         1 <0>         0.1986
     28 H7          0.0021   -0.0041    0.0020 H         1 <0>         0.2129
     29 H8          2.1703   -0.9110   -0.0213 H         1 <0>         0.1555
     30 H9          4.5832   -1.3860   -0.0442 H         1 <0>         0.1628
     31 H10         6.2159    0.4486   -0.0491 H         1 <0>         0.1614
     32 H11         5.4447    2.7923   -0.0313 H         1 <0>         0.1602
@<TRIPOS>BOND
     1    1    6 ar
     2    1    2 ar
     3    1   23 1
     4    2    3 ar
     5    2   24 1
     6    3    4 ar
     7    3   25 1
     8    4   13 1
     9    4    5 ar
    10    5    6 ar
    11    5    7 1
    12    6   26 1
    13    7   12 ar
    14    7    8 ar
    15    8    9 ar
    16    8   27 1
    17    9   10 ar
    18    9   28 1
    19   10   18 1
    20   10   11 ar
    21   11   12 ar
    22   11   15 1
    23   12   13 1
    24   13   14 1
    25   15   16 2
    26   15   17 1
    27   17   22 ar
    28   17   18 ar
    29   18   19 ar
    30   19   20 ar
    31   19   29 1
    32   20   21 ar
    33   20   30 1
    34   21   22 ar
    35   21   31 1
    36   22   32 1
@<TRIPOS>MOLECULE
ZINC00039111
   31    33     0     0     0
SMALL
USER_CHARGES

@<TRIPOS>ATOM
      1 C1          0.9742   -0.2756   -0.9644 C.ar      1 <0>        -0.0745
      2 C2          2.1570    0.4328   -0.9701 C.ar      1 <0>        -0.1346
      3 C3          2.3856    1.4156   -0.0177 C.ar      1 <0>         0.1033
      4 C4          1.4202    1.6919    0.9495 C.ar      1 <0>         0.0786
      5 C5          0.2328    0.9864    0.9617 C.ar      1 <0>        -0.0758
      6 C6          0.0021   -0.0041    0.0020 C.ar      1 <0>        -0.0456
      7 C7         -1.2635   -0.7604    0.0100 C.2       1 <0>         0.1403
      8 C8         -2.4368   -0.0754    0.1235 C.2       1 <0>        -0.0467
      9 C9         -3.6626   -0.7880    0.1323 C.2       1 <0>         0.4008
     10 O1         -4.7322   -0.2087    0.2318 O.2       1 <0>        -0.4629
     11 C10        -3.5944   -2.2557    0.0159 C.ar      1 <0>        -0.2366
     12 C11        -4.7512   -3.0365    0.0154 C.ar      1 <0>        -0.0073
     13 C12        -4.6525   -4.3943   -0.0945 C.ar      1 <0>        -0.1753
     14 C13        -3.4042   -5.0031   -0.2055 C.ar      1 <0>         0.1824
     15 C14        -2.2474   -4.2422   -0.2064 C.ar      1 <0>        -0.1738
     16 C15        -2.3310   -2.8613   -0.0960 C.ar      1 <0>         0.1711
     17 O2         -1.2180   -2.0989   -0.1002 O.3       1 <0>        -0.1986
     18 O3         -3.3214   -6.3539   -0.3130 O.3       1 <0>        -0.4899
     19 O4         -2.4315    1.2815    0.2279 O.3       1 <0>        -0.4510
     20 O5          1.6479    2.6559    1.8814 O.3       1 <0>        -0.4836
     21 O6          3.5534    2.1101   -0.0273 O.3       1 <0>        -0.4861
     22 H1          0.7972   -1.0372   -1.7094 H         1 <0>         0.1379
     23 H2          2.9076    0.2220   -1.7175 H         1 <0>         0.1421
     24 H3         -0.5155    1.1990    1.7108 H         1 <0>         0.1431
     25 H4         -5.7208   -2.5688    0.1018 H         1 <0>         0.1490
     26 H5         -5.5471   -4.9994   -0.0951 H         1 <0>         0.1454
     27 H6         -1.2834   -4.7216   -0.2925 H         1 <0>         0.1536
     28 H7         -3.3428   -6.6780   -1.2239 H         1 <0>         0.4038
     29 H8         -3.3122    1.6736    0.3036 H         1 <0>         0.4078
     30 H9          1.3507    3.5371    1.6164 H         1 <0>         0.3905
     31 H10         3.5286    2.9137   -0.5648 H         1 <0>         0.3925
@<TRIPOS>BOND
     1    1    6 ar
     2    1    2 ar
     3    1   22 1
     4    2    3 ar
     5    2   23 1
     6    3    4 ar
     7    3   21 1
     8    4    5 ar
     9    4   20 1
    10    5    6 ar
    11    5   24 1
    12    6    7 1
    13    7   17 1
    14    7    8 2
    15    8    9 1
    16    8   19 1
    17    9   10 2
    18    9   11 1
    19   11   16 ar
    20   11   12 ar
    21   12   13 ar
    22   12   25 1
    23   13   14 ar
    24   13   26 1
    25   14   15 ar
    26   14   18 1
    27   15   16 ar
    28   15   27 1
    29   16   17 1
    30   18   28 1
    31   19   29 1
    32   20   30 1
    33   21   31 1
