@<TRIPOS>MOLECULE
ZINC05932684
   50    53     0     0     0
SMALL
USER_CHARGES
3-[3-[[(2S)-2,3-dihydroxypropyl]amino]phenyl]-4-(5-fluoro-1-methyl-indol-3-yl)pyrrole-2,5-dione
@<TRIPOS>ATOM
      1 C1          1.8520    4.5431    0.0093 C.3       1 <0>         0.0726
      2 N1          0.8716    3.4545    0.0123 N.pl3     1 <0>        -0.4693
      3 C2         -0.4742    3.6256    0.0261 C.2       1 <0>         0.1108
      4 C3         -1.0941    2.3952    0.0195 C.2       1 <0>        -0.1478
      5 C4         -0.0168    1.3885    0.0097 C.ar      1 <0>        -0.0457
      6 C5          1.1878    2.1100    0.0020 C.ar      1 <0>         0.0816
      7 C6          2.3956    1.4207   -0.0137 C.ar      1 <0>        -0.0897
      8 C7          2.4023    0.0424   -0.0211 C.ar      1 <0>        -0.1331
      9 C8          1.2107   -0.6707   -0.0131 C.ar      1 <0>         0.0833
     10 C9          0.0021   -0.0041    0.0020 C.ar      1 <0>        -0.1096
     11 F1          1.2344   -2.0214   -0.0206 F         1 <0>        -0.1388
     12 C10        -2.5397    2.1376    0.0230 C.2       1 <0>        -0.0174
     13 C11        -3.4166    2.2800   -1.0445 C.2       1 <0>        -0.0749
     14 C12        -4.7473    1.9011   -0.5367 C.2       1 <0>         0.5603
     15 O1         -5.7765    1.8987   -1.1830 O.2       1 <0>        -0.4467
     16 N2         -4.6360    1.5589    0.7576 N.am      1 <0>        -0.6894
     17 C13        -3.3599    1.6660    1.1659 C.2       1 <0>         0.5550
     18 O2         -2.9485    1.4209    2.2815 O.2       1 <0>        -0.4424
     19 C14        -3.0827    2.7229   -2.4137 C.ar      1 <0>         0.0137
     20 C15        -2.6250    4.0243   -2.6378 C.ar      1 <0>        -0.1476
     21 C16        -2.3089    4.4333   -3.9167 C.ar      1 <0>        -0.0706
     22 C17        -2.4532    3.5632   -4.9818 C.ar      1 <0>        -0.1871
     23 C18        -2.9132    2.2681   -4.7706 C.ar      1 <0>         0.2196
     24 C19        -3.2287    1.8450   -3.4888 C.ar      1 <0>        -0.1595
     25 N3         -3.0580    1.3936   -5.8502 N.pl3     1 <0>        -0.7407
     26 C20        -2.7246    1.8408   -7.2049 C.3       1 <0>         0.0967
     27 C21        -2.9706    0.6995   -8.1937 C.3       1 <0>         0.0964
     28 H1         -4.0196    0.4058   -8.1559 H         1 <0>         0.1125
     29 C22        -2.6224    1.1665   -9.6085 C.3       1 <0>         0.0474
     30 O3         -2.9614    0.1420  -10.5452 O.3       1 <0>        -0.5627
     31 O4         -2.1503   -0.4176   -7.8455 O.3       1 <0>        -0.5474
     32 H2          2.0857    4.8187   -1.0191 H         1 <0>         0.0769
     33 H3          1.4386    5.4058    0.5316 H         1 <0>         0.0888
     34 H4          2.7611    4.2147    0.5130 H         1 <0>         0.0861
     35 H5         -0.9814    4.5791    0.0355 H         1 <0>         0.1794
     36 H6          3.3282    1.9653   -0.0204 H         1 <0>         0.1325
     37 H7          3.3430   -0.4880   -0.0330 H         1 <0>         0.1410
     38 H8         -0.9241   -0.5595    0.0075 H         1 <0>         0.1323
     39 H9         -5.3732    1.2709    1.3184 H         1 <0>         0.4305
     40 H10        -2.5152    4.7084   -1.8094 H         1 <0>         0.1196
     41 H11        -1.9514    5.4381   -4.0874 H         1 <0>         0.1254
     42 H12        -2.2080    3.8907   -5.9813 H         1 <0>         0.1211
     43 H13        -3.5865    0.8396   -3.3228 H         1 <0>         0.1231
     44 H14        -3.3792    0.4903   -5.7030 H         1 <0>         0.4066
     45 H15        -3.3503    2.6929   -7.4705 H         1 <0>         0.0722
     46 H16        -1.6756    2.1345   -7.2427 H         1 <0>         0.0652
     47 H17        -3.1838    2.0715   -9.8408 H         1 <0>         0.0584
     48 H18        -1.5544    1.3757   -9.6695 H         1 <0>         0.0524
     49 H19        -2.7674    0.3699  -11.4648 H         1 <0>         0.3833
     50 H20        -1.2021   -0.2285   -7.8583 H         1 <0>         0.3759
@<TRIPOS>BOND
     1    1    2 1
     2    1   32 1
     3    1   33 1
     4    1   34 1
     5    2    6 1
     6    2    3 1
     7    3    4 2
     8    3   35 1
     9    4    5 1
    10    4   12 1
    11    5   10 ar
    12    5    6 ar
    13    6    7 ar
    14    7    8 ar
    15    7   36 1
    16    8    9 ar
    17    8   37 1
    18    9   10 ar
    19    9   11 1
    20   10   38 1
    21   12   17 1
    22   12   13 2
    23   13   14 1
    24   13   19 1
    25   14   15 2
    26   14   16 am
    27   16   17 am
    28   16   39 1
    29   17   18 2
    30   19   24 ar
    31   19   20 ar
    32   20   21 ar
    33   20   40 1
    34   21   22 ar
    35   21   41 1
    36   22   23 ar
    37   22   42 1
    38   23   24 ar
    39   23   25 1
    40   24   43 1
    41   25   26 1
    42   25   44 1
    43   26   27 1
    44   26   45 1
    45   26   46 1
    46   27   28 1
    47   27   29 1
    48   27   31 1
    49   29   30 1
    50   29   47 1
    51   29   48 1
    52   30   49 1
    53   31   50 1
@<TRIPOS>MOLECULE
ZINC12501080
   50    53     0     0     0
SMALL
USER_CHARGES
3-[3-[[(2R)-2,3-dihydroxypropyl]amino]phenyl]-4-(5-fluoro-1-methyl-indol-3-yl)pyrrole-2,5-dione
@<TRIPOS>ATOM
      1 C1          7.9960    8.6641    5.2309 C.3       1 <0>         0.0725
      2 N1          6.7497    9.1520    4.6353 N.pl3     1 <0>        -0.4693
      3 C2          6.6022    9.5111    3.3353 C.2       1 <0>         0.1109
      4 C3          5.3062    9.9245    3.1168 C.2       1 <0>        -0.1479
      5 C4          4.6061    9.7932    4.4078 C.ar      1 <0>        -0.0456
      6 C5          5.5586    9.3064    5.3175 C.ar      1 <0>         0.0816
      7 C6          5.1867    9.0788    6.6381 C.ar      1 <0>        -0.0896
      8 C7          3.8932    9.3299    7.0426 C.ar      1 <0>        -0.1332
      9 C8          2.9516    9.8113    6.1425 C.ar      1 <0>         0.0831
     10 C9          3.3022   10.0438    4.8279 C.ar      1 <0>        -0.1098
     11 F1          1.6878   10.0524    6.5549 F         1 <0>        -0.1389
     12 C10         4.7345   10.3959    1.8492 C.2       1 <0>        -0.0174
     13 C11         4.3897    9.6221    0.7487 C.2       1 <0>        -0.0750
     14 C12         3.8564   10.5555   -0.2594 C.2       1 <0>         0.5602
     15 O1          3.4446   10.2476   -1.3606 O.2       1 <0>        -0.4463
     16 N2          3.8999   11.8025    0.2386 N.am      1 <0>        -0.6894
     17 C13         4.4103   11.7964    1.4819 C.2       1 <0>         0.5551
     18 O2          4.5743   12.7713    2.1867 O.2       1 <0>        -0.4425
     19 C14         4.5245    8.1568    0.6175 C.ar      1 <0>         0.0137
     20 C15         5.7914    7.5666    0.6147 C.ar      1 <0>        -0.1477
     21 C16         5.9142    6.1981    0.4924 C.ar      1 <0>        -0.0706
     22 C17         4.7870    5.4053    0.3777 C.ar      1 <0>        -0.1870
     23 C18         3.5222    5.9828    0.3740 C.ar      1 <0>         0.2196
     24 C19         3.3872    7.3570    0.4963 C.ar      1 <0>        -0.1595
     25 N3          2.3871    5.1776    0.2529 N.pl3     1 <0>        -0.7410
     26 C20         2.5297    3.7253    0.1236 C.3       1 <0>         0.0972
     27 C21         1.1449    3.0852    0.0077 C.3       1 <0>         0.0964
     28 H1          0.5324    3.3879    0.8570 H         1 <0>         0.1122
     29 C22         1.2864    1.5618   -0.0018 C.3       1 <0>         0.0474
     30 O3         -0.0110    0.9628    0.0073 O.3       1 <0>        -0.5628
     31 O4          0.5223    3.5133   -1.2052 O.3       1 <0>        -0.5475
     32 H2          8.0425    7.5790    5.1383 H         1 <0>         0.0768
     33 H3          8.8452    9.1096    4.7126 H         1 <0>         0.0889
     34 H4          8.0278    8.9405    6.2848 H         1 <0>         0.0863
     35 H5          7.3811    9.4801    2.5878 H         1 <0>         0.1794
     36 H6          5.9110    8.7045    7.3464 H         1 <0>         0.1325
     37 H7          3.6094    9.1511    8.0692 H         1 <0>         0.1410
     38 H8          2.5690   10.4178    4.1286 H         1 <0>         0.1323
     39 H9          3.6042   12.5966   -0.2335 H         1 <0>         0.4306
     40 H10         6.6741    8.1818    0.7086 H         1 <0>         0.1196
     41 H11         6.8941    5.7438    0.4905 H         1 <0>         0.1255
     42 H12         4.8896    4.3340    0.2864 H         1 <0>         0.1211
     43 H13         2.4055    7.8070    0.4981 H         1 <0>         0.1231
     44 H14         1.5046    5.5800    0.2544 H         1 <0>         0.4060
     45 H15         3.0400    3.3307    1.0023 H         1 <0>         0.0714
     46 H16         3.1121    3.4953   -0.7686 H         1 <0>         0.0663
     47 H17         1.8401    1.2428    0.8812 H         1 <0>         0.0582
     48 H18         1.8231    1.2523   -0.8987 H         1 <0>         0.0528
     49 H19         0.0021   -0.0041    0.0020 H         1 <0>         0.3833
     50 H20         1.0134    3.2774   -2.0040 H         1 <0>         0.3762
@<TRIPOS>BOND
     1    1    2 1
     2    1   32 1
     3    1   33 1
     4    1   34 1
     5    2    6 1
     6    2    3 1
     7    3    4 2
     8    3   35 1
     9    4    5 1
    10    4   12 1
    11    5   10 ar
    12    5    6 ar
    13    6    7 ar
    14    7    8 ar
    15    7   36 1
    16    8    9 ar
    17    8   37 1
    18    9   10 ar
    19    9   11 1
    20   10   38 1
    21   12   17 1
    22   12   13 2
    23   13   14 1
    24   13   19 1
    25   14   15 2
    26   14   16 am
    27   16   17 am
    28   16   39 1
    29   17   18 2
    30   19   24 ar
    31   19   20 ar
    32   20   21 ar
    33   20   40 1
    34   21   22 ar
    35   21   41 1
    36   22   23 ar
    37   22   42 1
    38   23   24 ar
    39   23   25 1
    40   24   43 1
    41   25   26 1
    42   25   44 1
    43   26   27 1
    44   26   45 1
    45   26   46 1
    46   27   28 1
    47   27   29 1
    48   27   31 1
    49   29   30 1
    50   29   47 1
    51   29   48 1
    52   30   49 1
    53   31   50 1
@<TRIPOS>MOLECULE
ZINC58655676
   55    57     0     0     0
SMALL
USER_CHARGES

@<TRIPOS>ATOM
      1 C1          0.5488    1.6611   -0.2219 C.3       1 <0>        -0.1411
      2 C2          0.4334    0.1368   -0.1575 C.3       1 <0>        -0.0014
      3 C3          1.1752   -0.3791    1.0772 C.3       1 <0>        -0.1412
      4 C4         -1.0195   -0.2538   -0.0701 C.2       1 <0>        -0.2596
      5 C5         -1.9098    0.1168    0.9294 C.2       1 <0>         0.1117
      6 N1         -3.0838   -0.4099    0.6710 N.2       1 <0>        -0.3361
      7 N2         -2.9973   -1.1475   -0.5153 N.pl3     1 <0>        -0.3639
      8 C6         -1.7117   -1.0440   -0.9772 C.2       1 <0>         0.3466
      9 N3         -1.3417   -1.6548   -2.1127 N.2       1 <0>        -0.5767
     10 C7         -2.2072   -2.3671   -2.8134 C.2       1 <0>         0.4953
     11 C8         -3.5350   -2.4948   -2.3753 C.2       1 <0>        -0.3671
     12 C9         -3.9182   -1.8828   -1.2175 C.2       1 <0>         0.5060
     13 N4         -5.2172   -1.9910   -0.7665 N.pl3     1 <0>        -0.7101
     14 C10        -6.1925   -2.7789   -1.5242 C.3       1 <0>         0.1679
     15 C11        -7.5259   -2.7365   -0.8233 C.ar      1 <0>        -0.1184
     16 C12        -7.8360   -3.6880    0.1303 C.ar      1 <0>        -0.0961
     17 C13        -9.0591   -3.6491    0.7733 C.ar      1 <0>        -0.1212
     18 C14        -9.9719   -2.6584    0.4630 C.ar      1 <0>        -0.1053
     19 C15        -9.6614   -1.7064   -0.4899 C.ar      1 <0>        -0.1214
     20 C16        -8.4366   -1.7427   -1.1298 C.ar      1 <0>        -0.0963
     21 N5         -1.8032   -2.9889   -3.9834 N.pl3     1 <0>        -0.6918
     22 C17        -0.4184   -2.8566   -4.4427 C.3       1 <0>         0.1320
     23 H1         -0.0468   -1.8624   -4.1947 H         1 <0>         0.1085
     24 C18         0.4500   -3.9119   -3.7549 C.3       1 <0>         0.0700
     25 O1          0.0275   -5.2151   -4.1614 O.3       1 <0>        -0.5699
     26 C19        -0.3623   -3.0587   -5.9582 C.3       1 <0>         0.1075
     27 H2         -0.7661   -4.0395   -6.2092 H         1 <0>         0.1172
     28 C20        -1.1915   -1.9738   -6.6485 C.3       1 <0>         0.0440
     29 O2         -1.2351   -2.2295   -8.0537 O.3       1 <0>        -0.5625
     30 O3          0.9941   -2.9748   -6.4001 O.3       1 <0>        -0.5390
     31 H3          1.5996    1.9436   -0.2851 H         1 <0>         0.0538
     32 H4          0.0202    2.0286   -1.1015 H         1 <0>         0.0506
     33 H5          0.1086    2.0970    0.6749 H         1 <0>         0.0520
     34 H6          0.8736   -0.2992   -1.0543 H         1 <0>         0.0769
     35 H7          2.2261   -0.0966    1.0141 H         1 <0>         0.0538
     36 H8          0.7351    0.0569    1.9741 H         1 <0>         0.0520
     37 H9          1.0931   -1.4650    1.1232 H         1 <0>         0.0506
     38 H10        -1.6741    0.7374    1.7813 H         1 <0>         0.1890
     39 H11        -4.2442   -3.0761   -2.9458 H         1 <0>         0.1543
     40 H12        -5.4849   -1.5453    0.0524 H         1 <0>         0.4169
     41 H13        -6.2955   -2.3630   -2.5265 H         1 <0>         0.0824
     42 H14        -5.8507   -3.8116   -1.5927 H         1 <0>         0.0828
     43 H15        -7.1229   -4.4620    0.3727 H         1 <0>         0.1248
     44 H16        -9.3017   -4.3929    1.5178 H         1 <0>         0.1267
     45 H17       -10.9277   -2.6285    0.9648 H         1 <0>         0.1260
     46 H18       -10.3746   -0.9326   -0.7326 H         1 <0>         0.1266
     47 H19        -8.1925   -0.9967   -1.8716 H         1 <0>         0.1246
     48 H20        -2.4372   -3.5119   -4.4985 H         1 <0>         0.4145
     49 H21         1.4927   -3.7638   -4.0361 H         1 <0>         0.0598
     50 H22         0.3484   -3.8178   -2.6738 H         1 <0>         0.0555
     51 H23         0.5354   -5.9352   -3.7633 H         1 <0>         0.3813
     52 H24        -2.2046   -1.9800   -6.2464 H         1 <0>         0.0549
     53 H25        -0.7358   -0.9998   -6.4704 H         1 <0>         0.0491
     54 H26        -1.7454   -1.5796   -8.5561 H         1 <0>         0.3802
     55 H27         1.4409   -2.1559   -6.1452 H         1 <0>         0.3731
@<TRIPOS>BOND
     1    1    2 1
     2    1   31 1
     3    1   32 1
     4    1   33 1
     5    2    3 1
     6    2    4 1
     7    2   34 1
     8    3   35 1
     9    3   36 1
    10    3   37 1
    11    4    8 2
    12    4    5 1
    13    5    6 2
    14    5   38 1
    15    6    7 1
    16    7   12 1
    17    7    8 1
    18    8    9 1
    19    9   10 2
    20   10   11 1
    21   10   21 1
    22   11   12 2
    23   11   39 1
    24   12   13 1
    25   13   14 1
    26   13   40 1
    27   14   15 1
    28   14   41 1
    29   14   42 1
    30   15   20 ar
    31   15   16 ar
    32   16   17 ar
    33   16   43 1
    34   17   18 ar
    35   17   44 1
    36   18   19 ar
    37   18   45 1
    38   19   20 ar
    39   19   46 1
    40   20   47 1
    41   21   22 1
    42   21   48 1
    43   22   23 1
    44   22   24 1
    45   22   26 1
    46   24   25 1
    47   24   49 1
    48   24   50 1
    49   25   51 1
    50   26   27 1
    51   26   28 1
    52   26   30 1
    53   28   29 1
    54   28   52 1
    55   28   53 1
    56   29   54 1
    57   30   55 1
@<TRIPOS>MOLECULE
ZINC01649340
   52    54     0     0     0
SMALL
USER_CHARGES

@<TRIPOS>ATOM
      1 C1         -0.0187    1.5258    0.0104 C.3       1 <0>        -0.1531
      2 C2          0.0021   -0.0041    0.0020 C.3       1 <0>        -0.1278
      3 C3         -1.4333   -0.5336    0.0129 C.3       1 <0>         0.1689
      4 H1         -1.9701   -0.1109    0.8621 H         1 <0>         0.1030
      5 C4         -1.4133   -2.0590    0.1302 C.3       1 <0>         0.0625
      6 O1         -0.6117   -2.6069   -0.9183 O.3       1 <0>        -0.5692
      7 N1         -2.1054   -0.1483   -1.2305 N.pl3     1 <0>        -0.6816
      8 C5         -3.4856   -0.0365   -1.2658 C.ar      1 <0>         0.6305
      9 N2         -4.1766   -0.2783   -0.1589 N.ar      1 <0>        -0.6256
     10 C6         -5.5013   -0.1844   -0.1423 C.ar      1 <0>         0.5407
     11 C7         -6.1646    0.1788   -1.3275 C.ar      1 <0>        -0.1560
     12 C8         -5.3921    0.4251   -2.4741 C.ar      1 <0>         0.3485
     13 N3         -4.0693    0.3129   -2.4004 N.ar      1 <0>        -0.6161
     14 N4         -6.2808    0.7538   -3.4662 N.pl3     1 <0>        -0.4704
     15 C9         -7.5330    0.7038   -2.9264 C.2       1 <0>         0.2320
     16 N5         -7.4624    0.3664   -1.6720 N.2       1 <0>        -0.4548
     17 C10        -5.9467    1.0964   -4.8508 C.3       1 <0>         0.1344
     18 C11        -6.6196    0.1019   -5.7989 C.3       1 <0>        -0.1626
     19 C12        -6.4419    2.5107   -5.1599 C.3       1 <0>        -0.1626
     20 N6         -6.2133   -0.4389    1.0165 N.pl3     1 <0>        -0.6899
     21 C13        -5.5062   -0.8166    2.2427 C.3       1 <0>         0.1717
     22 C14        -6.5039   -1.0364    3.3505 C.ar      1 <0>        -0.1135
     23 C15        -6.8801    0.0183    4.1611 C.ar      1 <0>        -0.0982
     24 C16        -7.7953   -0.1833    5.1773 C.ar      1 <0>        -0.1219
     25 C17        -8.3347   -1.4394    5.3826 C.ar      1 <0>        -0.1101
     26 C18        -7.9592   -2.4939    4.5714 C.ar      1 <0>        -0.1221
     27 C19        -7.0472   -2.2913    3.5524 C.ar      1 <0>        -0.0986
     28 H2          1.0039    1.9031    0.0027 H         1 <0>         0.0563
     29 H3         -0.5459    1.8868   -0.8726 H         1 <0>         0.0552
     30 H4         -0.5289    1.8773    0.9072 H         1 <0>         0.0537
     31 H5          0.5123   -0.3556   -0.8948 H         1 <0>         0.0768
     32 H6          0.5293   -0.3651    0.8851 H         1 <0>         0.0774
     33 H7         -0.9936   -2.3437    1.0951 H         1 <0>         0.0524
     34 H8         -2.4301   -2.4431    0.0488 H         1 <0>         0.0503
     35 H9         -0.5540   -3.5721   -0.9058 H         1 <0>         0.3776
     36 H10        -1.5839    0.0285   -2.0291 H         1 <0>         0.4145
     37 H11        -8.4474    0.9139   -3.4613 H         1 <0>         0.2138
     38 H12        -4.8660    1.0524   -4.9853 H         1 <0>         0.1061
     39 H13        -7.7004    0.1459   -5.6644 H         1 <0>         0.0654
     40 H14        -6.3710    0.3568   -6.8291 H         1 <0>         0.0793
     41 H15        -6.2668   -0.9057   -5.5787 H         1 <0>         0.0629
     42 H16        -5.9625    3.2193   -4.4845 H         1 <0>         0.0629
     43 H17        -6.1933    2.7656   -6.1901 H         1 <0>         0.0793
     44 H18        -7.5227    2.5547   -5.0254 H         1 <0>         0.0654
     45 H19        -7.1807   -0.3672    1.0169 H         1 <0>         0.4195
     46 H20        -4.9460   -1.7357    2.0706 H         1 <0>         0.0763
     47 H21        -4.8186   -0.0196    2.5258 H         1 <0>         0.0773
     48 H22        -6.4587    0.9996    4.0008 H         1 <0>         0.1237
     49 H23        -8.0886    0.6405    5.8111 H         1 <0>         0.1245
     50 H24        -9.0492   -1.5971    6.1770 H         1 <0>         0.1237
     51 H25        -8.3804   -3.4753    4.7320 H         1 <0>         0.1244
     52 H26        -6.7567   -3.1143    2.9163 H         1 <0>         0.1232
@<TRIPOS>BOND
     1    1    2 1
     2    1   28 1
     3    1   29 1
     4    1   30 1
     5    2    3 1
     6    2   31 1
     7    2   32 1
     8    3    4 1
     9    3    5 1
    10    3    7 1
    11    5    6 1
    12    5   33 1
    13    5   34 1
    14    6   35 1
    15    7    8 1
    16    7   36 1
    17    8   13 ar
    18    8    9 ar
    19    9   10 ar
    20   10   11 ar
    21   10   20 1
    22   11   16 1
    23   11   12 ar
    24   12   13 ar
    25   12   14 1
    26   14   15 1
    27   14   17 1
    28   15   16 2
    29   15   37 1
    30   17   18 1
    31   17   19 1
    32   17   38 1
    33   18   39 1
    34   18   40 1
    35   18   41 1
    36   19   42 1
    37   19   43 1
    38   19   44 1
    39   20   21 1
    40   20   45 1
    41   21   22 1
    42   21   46 1
    43   21   47 1
    44   22   27 ar
    45   22   23 ar
    46   23   24 ar
    47   23   48 1
    48   24   25 ar
    49   24   49 1
    50   25   26 ar
    51   25   50 1
    52   26   27 ar
    53   26   51 1
    54   27   52 1
@<TRIPOS>MOLECULE
ZINC03814434
   62    69     0     0     0
SMALL
USER_CHARGES

@<TRIPOS>ATOM
      1 C1         -0.1295    1.5952   -0.2973 C.3       1 <0>        -0.1687
      2 C2         -0.0862    0.0696   -0.1900 C.3       1 <0>         0.3342
      3 C3          0.5692   -0.4501   -1.4637 C.3       1 <0>         0.0405
      4 H1          1.4796    0.1159   -1.6612 H         1 <0>         0.1372
      5 C4          0.9167   -1.9328   -1.2889 C.3       1 <0>        -0.0061
      6 H2          1.3963   -2.3075   -2.1932 H         1 <0>         0.1555
      7 C5          1.8785   -2.0596   -0.1021 C.3       1 <0>        -0.1827
      8 C6          1.2061   -1.5198    1.1541 C.3       1 <0>         0.2999
      9 H3          1.9797   -1.4243    1.9161 H         1 <0>         0.1550
     10 O1          0.6555   -0.2442    0.9666 O.3       1 <0>        -0.3234
     11 N1          0.2189   -2.4746    1.6600 N.pl3     1 <0>        -0.5366
     12 C7          0.4705   -3.5508    2.4739 C.ar      1 <0>         0.1469
     13 C8          1.6649   -4.0152    3.0240 C.ar      1 <0>        -0.1522
     14 C9          1.5948   -5.1456    3.8201 C.ar      1 <0>        -0.0582
     15 C10         0.4006   -5.7997    4.0696 C.ar      1 <0>        -0.1457
     16 C11        -0.7984   -5.3597    3.5358 C.ar      1 <0>        -0.0280
     17 C12        -0.7487   -4.2198    2.7307 C.ar      1 <0>        -0.1131
     18 C13        -1.7893   -3.4830    2.0197 C.ar      1 <0>         0.0276
     19 C14        -1.1442   -2.4197    1.3841 C.ar      1 <0>         0.0376
     20 C15        -1.8806   -1.5095    0.6175 C.ar      1 <0>         0.0894
     21 N2         -1.4718   -0.3951   -0.1095 N.pl3     1 <0>        -0.5183
     22 C16        -2.5611    0.1913   -0.7090 C.ar      1 <0>         0.1618
     23 C17        -2.6521    1.3277   -1.5118 C.ar      1 <0>        -0.1305
     24 C18        -3.9109    1.6745   -1.9733 C.ar      1 <0>        -0.0737
     25 C19        -5.0393    0.9368   -1.6616 C.ar      1 <0>        -0.1358
     26 C20        -4.9745   -0.1955   -0.8662 C.ar      1 <0>        -0.0503
     27 C21        -3.7147   -0.5596   -0.3919 C.ar      1 <0>        -0.1042
     28 C22        -3.2693   -1.6660    0.4845 C.ar      1 <0>        -0.0360
     29 C23        -3.9084   -2.7313    1.1102 C.ar      1 <0>        -0.0288
     30 C24        -3.1873   -3.6421    1.8754 C.ar      1 <0>        -0.1255
     31 C25        -4.1221   -4.6480    2.4030 C.2       1 <0>         0.5632
     32 O2         -3.8062   -5.5851    3.1110 O.2       1 <0>        -0.5106
     33 N3         -5.3744   -4.3851    1.9926 N.am      1 <0>        -0.7162
     34 C26        -5.3495   -3.1771    1.1601 C.3       1 <0>         0.1358
     35 N4         -0.3067   -2.7008   -1.0216 N.4       1 <0>        -0.5252
     36 C27         0.0145   -4.1336   -0.9773 C.3       1 <0>        -0.0497
     37 O3         -0.3340   -0.2979   -2.5607 O.3       1 <0>        -0.3614
     38 C28         0.3101   -0.0933   -3.8198 C.3       1 <0>         0.0162
     39 H4          0.8261    2.0094    0.0240 H         1 <0>         0.0984
     40 H5         -0.3202    1.8814   -1.3317 H         1 <0>         0.1036
     41 H6         -0.9255    1.9818    0.3392 H         1 <0>         0.0921
     42 H7          2.1370   -3.1081    0.0458 H         1 <0>         0.1233
     43 H8          2.7835   -1.4869   -0.3048 H         1 <0>         0.1455
     44 H9          2.6036   -3.5149    2.8368 H         1 <0>         0.1365
     45 H10         2.5026   -5.5304    4.2610 H         1 <0>         0.1359
     46 H11         0.4045   -6.6780    4.6980 H         1 <0>         0.1352
     47 H12        -1.7278   -5.8736    3.7323 H         1 <0>         0.1600
     48 H13        -1.7792    1.9122   -1.7624 H         1 <0>         0.1440
     49 H14        -4.0153    2.5500   -2.5970 H         1 <0>         0.1336
     50 H15        -5.9967    1.2527   -2.0488 H         1 <0>         0.1332
     51 H16        -5.8575   -0.7687   -0.6249 H         1 <0>         0.1415
     52 H17        -6.1628   -4.9065    2.2103 H         1 <0>         0.4348
     53 H18        -5.9671   -2.3994    1.6094 H         1 <0>         0.1115
     54 H19        -5.7060   -3.4063    0.1559 H         1 <0>         0.1103
     55 H20        -0.6958   -2.4158   -0.1353 H         1 <0>         0.4186
     56 H21         0.4349   -4.4415   -1.9347 H         1 <0>         0.1256
     57 H22         0.7403   -4.3189   -0.1854 H         1 <0>         0.1191
     58 H23        -0.8932   -4.7035   -0.7789 H         1 <0>         0.1256
     59 H24         0.9168    0.8112   -3.7748 H         1 <0>         0.0633
     60 H25         0.9482   -0.9479   -4.0446 H         1 <0>         0.0514
     61 H26        -0.4433    0.0130   -4.6003 H         1 <0>         0.1100
     62 H27        -0.9785   -2.5293   -1.7546 H         1 <0>         0.4274
@<TRIPOS>BOND
     1    1    2 1
     2    1   39 1
     3    1   40 1
     4    1   41 1
     5    2   10 1
     6    2   21 1
     7    2    3 1
     8    3    4 1
     9    3    5 1
    10    3   37 1
    11    5    6 1
    12    5    7 1
    13    5   35 1
    14    7    8 1
    15    7   42 1
    16    7   43 1
    17    8    9 1
    18    8   10 1
    19    8   11 1
    20   11   19 1
    21   11   12 1
    22   12   17 ar
    23   12   13 ar
    24   13   14 ar
    25   13   44 1
    26   14   15 ar
    27   14   45 1
    28   15   16 ar
    29   15   46 1
    30   16   17 ar
    31   16   47 1
    32   17   18 1
    33   18   30 ar
    34   18   19 ar
    35   19   20 ar
    36   20   28 ar
    37   20   21 1
    38   21   22 1
    39   22   27 ar
    40   22   23 ar
    41   23   24 ar
    42   23   48 1
    43   24   25 ar
    44   24   49 1
    45   25   26 ar
    46   25   50 1
    47   26   27 ar
    48   26   51 1
    49   27   28 1
    50   28   29 ar
    51   29   34 1
    52   29   30 ar
    53   30   31 1
    54   31   32 2
    55   31   33 am
    56   33   34 1
    57   33   52 1
    58   34   53 1
    59   34   54 1
    60   35   36 1
    61   35   55 1
    62   35   62 1
    63   36   56 1
    64   36   57 1
    65   36   58 1
    66   37   38 1
    67   38   59 1
    68   38   60 1
    69   38   61 1
@<TRIPOS>MOLECULE
ZINC17782150
   26    27     0     0     0
SMALL
USER_CHARGES

@<TRIPOS>ATOM
      1 C1          1.2107    0.1110   -0.3167 C.ar      1 <0>        -0.0845
      2 C2          2.3695    0.6247   -0.8574 C.ar      1 <0>        -0.1353
      3 C3          2.4406    0.9025   -2.2165 C.ar      1 <0>         0.1143
      4 C4          1.3452    0.6641   -3.0367 C.ar      1 <0>        -0.1360
      5 C5          0.1823    0.1506   -2.5047 C.ar      1 <0>        -0.0742
      6 C6          0.1062   -0.1304   -1.1380 C.ar      1 <0>         0.0044
      7 N1         -1.0458   -0.6406   -0.6057 N.2       1 <0>        -0.1879
      8 N2         -1.0418   -1.8093   -0.0598 N.2       1 <0>        -0.0741
      9 C7          0.0830   -2.5712   -0.0938 C.2       1 <0>        -0.2800
     10 C8          0.6978   -3.1916    0.9919 C.2       1 <0>         0.4511
     11 N3          1.7806   -3.8437    0.5189 N.pl3     1 <0>        -0.4845
     12 H1          2.4027   -4.3664    1.0487 H         1 <0>         0.4440
     13 N4          1.8562   -3.6401   -0.8630 N.2       1 <0>        -0.3488
     14 C9          0.8522   -2.8919   -1.2429 C.2       1 <0>         0.3951
     15 N5          0.5863   -2.4778   -2.5498 N.pl3     1 <0>        -0.8342
     16 N6          0.2770   -3.1474    2.3083 N.pl3     1 <0>        -0.8307
     17 O1          3.5849    1.4093   -2.7452 O.3       1 <0>        -0.4982
     18 H2          1.1578   -0.1088    0.7393 H         1 <0>         0.1196
     19 H3          3.2235    0.8119   -0.2234 H         1 <0>         0.1292
     20 H4          1.4048    0.8819   -4.0928 H         1 <0>         0.1346
     21 H5         -0.6689   -0.0344   -3.1432 H         1 <0>         0.1333
     22 H6         -0.2564   -2.0454   -2.7596 H         1 <0>         0.4089
     23 H7          1.2441   -2.6224   -3.2478 H         1 <0>         0.4071
     24 H8         -0.5195   -2.6474    2.5463 H         1 <0>         0.4262
     25 H9          0.7782   -3.6163    2.9937 H         1 <0>         0.4085
     26 H10         4.2088    0.7365   -3.0504 H         1 <0>         0.3919
@<TRIPOS>BOND
     1    1    6 ar
     2    1    2 ar
     3    1   18 1
     4    2    3 ar
     5    2   19 1
     6    3    4 ar
     7    3   17 1
     8    4    5 ar
     9    4   20 1
    10    5    6 ar
    11    5   21 1
    12    6    7 1
    13    7    8 2
    14    8    9 1
    15    9   14 1
    16    9   10 2
    17   10   11 1
    18   10   16 1
    19   11   12 1
    20   11   13 1
    21   13   14 2
    22   14   15 1
    23   15   22 1
    24   15   23 1
    25   16   24 1
    26   16   25 1
    27   17   26 1
@<TRIPOS>MOLECULE
ZINC17782150
   26    27     0     0     0
SMALL
USER_CHARGES

@<TRIPOS>ATOM
      1 C1         -0.0174    1.4084   -0.0035 C.2       1 <0>         0.0112
      2 C2          1.1490    2.1020   -0.0127 C.2       1 <0>        -0.2354
      3 C3          2.3781    1.4147   -0.0189 C.2       1 <0>         0.3914
      4 O1          3.4293    2.0422   -0.0276 O.2       1 <0>        -0.4959
      5 C4          2.4000    0.0066   -0.0146 C.2       1 <0>        -0.2038
      6 C5          1.2360   -0.6911   -0.0055 C.2       1 <0>        -0.0732
      7 C6          0.0020   -0.0039    0.0003 C.2       1 <0>        -0.0408
      8 N1         -1.1439   -0.6880    0.0093 N.2       1 <0>        -0.1200
      9 N2         -1.1284   -1.9737   -0.0951 N.pl3     1 <0>        -0.3983
     10 C7         -2.3258   -2.6792   -0.1925 C.2       1 <0>        -0.1356
     11 C8         -2.4915   -4.0393   -0.0144 C.2       1 <0>         0.3946
     12 N3         -3.8094   -4.3124   -0.1979 N.pl3     1 <0>        -0.4817
     13 H1         -4.2228   -5.1876   -0.1354 H         1 <0>         0.4481
     14 N4         -4.4681   -3.1130   -0.4923 N.2       1 <0>        -0.3445
     15 C9         -3.5945   -2.1362   -0.4850 C.2       1 <0>         0.3948
     16 N5         -3.8720   -0.7869   -0.7289 N.pl3     1 <0>        -0.8316
     17 N6         -1.4956   -4.9568    0.2943 N.pl3     1 <0>        -0.8462
     18 H2         -0.9598    1.9360    0.0053 H         1 <0>         0.1368
     19 H3          1.1347    3.1819   -0.0156 H         1 <0>         0.1403
     20 H4          3.3438   -0.5184   -0.0190 H         1 <0>         0.1354
     21 H5          1.2532   -1.7710   -0.0029 H         1 <0>         0.1156
     22 H6         -0.2830   -2.4492   -0.1059 H         1 <0>         0.3885
     23 H7         -3.1564   -0.1325   -0.7044 H         1 <0>         0.4173
     24 H8         -4.7799   -0.5057   -0.9226 H         1 <0>         0.4065
     25 H9         -0.5792   -4.6589    0.4052 H         1 <0>         0.4149
     26 H10        -1.7165   -5.8955    0.3990 H         1 <0>         0.4118
@<TRIPOS>BOND
     1    1    7 1
     2    1    2 2
     3    1   18 1
     4    2    3 1
     5    2   19 1
     6    3    4 2
     7    3    5 1
     8    5    6 2
     9    5   20 1
    10    6    7 1
    11    6   21 1
    12    7    8 2
    13    8    9 1
    14    9   10 1
    15    9   22 1
    16   10   15 1
    17   10   11 2
    18   11   12 1
    19   11   17 1
    20   12   13 1
    21   12   14 1
    22   14   15 2
    23   15   16 1
    24   16   23 1
    25   16   24 1
    26   17   25 1
    27   17   26 1
@<TRIPOS>MOLECULE
ZINC17782150
   27    28     0     0     0
SMALL
USER_CHARGES

@<TRIPOS>ATOM
      1 C1         -0.0175    1.4085   -0.0037 C.2       1 <0>        -0.0225
      2 C2          1.1489    2.1020   -0.0131 C.2       1 <0>        -0.1922
      3 C3          2.3781    1.4147   -0.0189 C.2       1 <0>         0.3825
      4 O1          3.4292    2.0423   -0.0270 O.2       1 <0>        -0.4508
      5 C4          2.3999    0.0066   -0.0151 C.2       1 <0>        -0.1577
      6 C5          1.2360   -0.6911   -0.0058 C.2       1 <0>        -0.1054
      7 C6          0.0020   -0.0039    0.0001 C.2       1 <0>         0.0536
      8 N1         -1.1438   -0.6880    0.0097 N.2       1 <0>        -0.1779
      9 N2         -1.1284   -1.9737   -0.0947 N.pl3     1 <0>        -0.4557
     10 C7         -2.3266   -2.6796   -0.1916 C.2       1 <0>        -0.0807
     11 C8         -3.6016   -2.1885    0.0927 C.2       1 <0>         0.5070
     12 N3         -4.4718   -3.1700   -0.1238 N.pl3     1 <0>        -0.4351
     13 H1         -5.4329   -3.1104   -0.0067 H         1 <0>         0.4767
     14 N4         -3.7697   -4.3033   -0.5496 N.pl3     1 <0>        -0.4320
     15 C9         -2.4745   -4.0069   -0.5968 C.cat     1 <0>         0.4909
     16 N5         -1.4497   -4.8669   -0.9789 N.pl3     1 <0>        -0.8015
     17 N6         -3.9072   -0.9022    0.5261 N.pl3     1 <0>        -0.7849
     18 H2         -0.9598    1.9360    0.0052 H         1 <0>         0.1445
     19 H3          1.1346    3.1819   -0.0164 H         1 <0>         0.1516
     20 H4          3.3437   -0.5184   -0.0200 H         1 <0>         0.1472
     21 H5          1.2533   -1.7710   -0.0032 H         1 <0>         0.1241
     22 H6         -0.2830   -2.4492   -0.1058 H         1 <0>         0.4009
     23 H7         -0.5307   -4.5565   -0.9784 H         1 <0>         0.4379
     24 H8         -1.6542   -5.7767   -1.2456 H         1 <0>         0.4301
     25 H9         -3.1983   -0.2530    0.6563 H         1 <0>         0.4474
     26 H10        -4.8292   -0.6546    0.6981 H         1 <0>         0.4249
     27 H11        -4.1627   -5.1606   -0.7763 H         1 <0>         0.4771
@<TRIPOS>BOND
     1    1    7 1
     2    1    2 2
     3    1   18 1
     4    2    3 1
     5    2   19 1
     6    3    4 2
     7    3    5 1
     8    5    6 2
     9    5   20 1
    10    6    7 1
    11    6   21 1
    12    7    8 2
    13    8    9 1
    14    9   10 1
    15    9   22 1
    16   10   15 1
    17   10   11 2
    18   11   12 1
    19   11   17 1
    20   12   13 1
    21   12   14 1
    22   14   15 2
    23   14   27 1
    24   15   16 1
    25   16   23 1
    26   16   24 1
    27   17   25 1
    28   17   26 1
@<TRIPOS>MOLECULE
ZINC17782150
   27    28     0     0     0
SMALL
USER_CHARGES

@<TRIPOS>ATOM
      1 C1         -0.0671    0.1506   -2.4543 C.ar      1 <0>        -0.0780
      2 C2          1.0595    0.7606   -2.9618 C.ar      1 <0>        -0.1323
      3 C3          2.1414    1.0263   -2.1322 C.ar      1 <0>         0.1375
      4 C4          2.0935    0.6783   -0.7884 C.ar      1 <0>        -0.1371
      5 C5          0.9712    0.0675   -0.2723 C.ar      1 <0>        -0.0871
      6 C6         -0.1200   -0.2008   -1.1029 C.ar      1 <0>        -0.0437
      7 N1         -1.2364   -0.8062   -0.5947 N.2       1 <0>        -0.1165
      8 N2         -1.1558   -1.9926   -0.0947 N.2       1 <0>        -0.0827
      9 C7          0.0298   -2.6576   -0.1101 C.2       1 <0>        -0.2485
     10 C8          0.6721   -3.2493    0.9916 C.2       1 <0>         0.5430
     11 N3          1.7996   -3.7946    0.5541 N.pl3     1 <0>        -0.4351
     12 H1          2.4438   -4.2722    1.0997 H         1 <0>         0.4754
     13 N4          1.9080   -3.5694   -0.8222 N.pl3     1 <0>        -0.4342
     14 C9          0.8445   -2.8903   -1.2320 C.cat     1 <0>         0.5159
     15 N5          0.5851   -2.4808   -2.5317 N.pl3     1 <0>        -0.7884
     16 N6          0.2106   -3.2605    2.2997 N.pl3     1 <0>        -0.7813
     17 O1          3.2501    1.6279   -2.6368 O.3       1 <0>        -0.4969
     18 H2         -0.9096   -0.0516   -3.0990 H         1 <0>         0.1475
     19 H3          1.1014    1.0322   -4.0063 H         1 <0>         0.1476
     20 H4          2.9371    0.8865   -0.1470 H         1 <0>         0.1404
     21 H5          0.9350   -0.2033    0.7726 H         1 <0>         0.1284
     22 H6         -0.2238   -1.9840   -2.7314 H         1 <0>         0.4390
     23 H7          1.2125   -2.6913   -3.2409 H         1 <0>         0.4283
     24 H8         -0.5925   -2.7700    2.5349 H         1 <0>         0.4487
     25 H9          0.6911   -3.7589    2.9792 H         1 <0>         0.4290
     26 H10         3.2291    2.5936   -2.5905 H         1 <0>         0.4068
     27 H11         2.6401   -3.8647   -1.3860 H         1 <0>         0.4741
@<TRIPOS>BOND
     1    1    6 ar
     2    1    2 ar
     3    1   18 1
     4    2    3 ar
     5    2   19 1
     6    3    4 ar
     7    3   17 1
     8    4    5 ar
     9    4   20 1
    10    5    6 ar
    11    5   21 1
    12    6    7 1
    13    7    8 2
    14    8    9 1
    15    9   14 1
    16    9   10 2
    17   10   11 1
    18   10   16 1
    19   11   12 1
    20   11   13 1
    21   13   14 2
    22   13   27 1
    23   14   15 1
    24   15   22 1
    25   15   23 1
    26   16   24 1
    27   16   25 1
    28   17   26 1
@<TRIPOS>MOLECULE
ZINC17782150
   27    28     0     0     0
SMALL
USER_CHARGES

@<TRIPOS>ATOM
      1 C1         -0.0169    1.3931    0.0097 C.ar      1 <0>        -0.0402
      2 C2          1.1683    2.0962    0.0022 C.ar      1 <0>        -0.1473
      3 C3          2.3804    1.4181   -0.0131 C.ar      1 <0>         0.1484
      4 C4          2.4041    0.0293   -0.0212 C.ar      1 <0>        -0.1491
      5 C5          1.2238   -0.6820   -0.0142 C.ar      1 <0>        -0.0792
      6 C6          0.0021   -0.0041    0.0020 C.ar      1 <0>         0.0315
      7 N1         -1.1719   -0.7061    0.0099 N.2       1 <0>        -0.2435
      8 N2         -1.1522   -1.9959    0.0028 N.2       1 <0>        -0.1650
      9 C7         -2.3190   -2.6936    0.0106 C.2       1 <0>        -0.1586
     10 C8         -3.6171   -2.1538    0.0203 C.2       1 <0>         0.5109
     11 N3         -4.4735   -3.1670    0.0249 N.pl3     1 <0>        -0.4430
     12 H1         -5.4402   -3.0882    0.0311 H         1 <0>         0.4722
     13 N4         -3.7556   -4.3676    0.0184 N.pl3     1 <0>        -0.4369
     14 C9         -2.4578   -4.0926    0.0045 C.cat     1 <0>         0.5506
     15 N5         -1.4246   -5.0181   -0.0100 N.pl3     1 <0>        -0.7763
     16 N6         -3.9434   -0.8056    0.0246 N.pl3     1 <0>        -0.7729
     17 O1          3.5464    2.1154   -0.0204 O.3       1 <0>        -0.4956
     18 H2         -0.9589    1.9211    0.0260 H         1 <0>         0.1407
     19 H3          1.1546    3.1761    0.0077 H         1 <0>         0.1446
     20 H4          3.3488   -0.4938   -0.0334 H         1 <0>         0.1392
     21 H5          1.2431   -1.7618   -0.0213 H         1 <0>         0.1398
     22 H6         -0.5029   -4.7160   -0.0170 H         1 <0>         0.4492
     23 H7         -1.6239   -5.9674   -0.0132 H         1 <0>         0.4280
     24 H8         -3.2410   -0.1366    0.0209 H         1 <0>         0.4506
     25 H9         -4.8739   -0.5319    0.0313 H         1 <0>         0.4236
     26 H10         3.8924    2.3125    0.8608 H         1 <0>         0.4024
     27 H11        -4.1436   -5.2566    0.0204 H         1 <0>         0.4759
@<TRIPOS>BOND
     1    1    6 ar
     2    1    2 ar
     3    1   18 1
     4    2    3 ar
     5    2   19 1
     6    3    4 ar
     7    3   17 1
     8    4    5 ar
     9    4   20 1
    10    5    6 ar
    11    5   21 1
    12    6    7 1
    13    7    8 2
    14    8    9 1
    15    9   14 1
    16    9   10 2
    17   10   11 1
    18   10   16 1
    19   11   12 1
    20   11   13 1
    21   13   14 2
    22   13   27 1
    23   14   15 1
    24   15   22 1
    25   15   23 1
    26   16   24 1
    27   16   25 1
    28   17   26 1
@<TRIPOS>MOLECULE
ZINC03938688
   39    41     0     0     0
SMALL
USER_CHARGES

@<TRIPOS>ATOM
      1 C1         -0.0095    1.3826    0.0704 C.ar      1 <0>        -0.0343
      2 C2          0.5587    1.0580   -1.1482 C.ar      1 <0>        -0.1609
      3 C3          1.7655    0.3862   -1.1955 C.ar      1 <0>         0.1753
      4 C4          2.4129    0.0342   -0.0053 C.ar      1 <0>        -0.1954
      5 C5          1.8304    0.3669    1.2233 C.ar      1 <0>         0.1741
      6 C6          0.6231    1.0388    1.2514 C.ar      1 <0>        -0.1610
      7 F1          2.4463    0.0317    2.3781 F         1 <0>        -0.1212
      8 C7          3.6999   -0.6827   -0.0456 C.2       1 <0>         0.6210
      9 O1          4.7383   -0.0615   -0.1600 O.2       1 <0>        -0.4669
     10 N1          3.7255   -2.0272    0.0446 N.am      1 <0>        -0.3962
     11 C8          4.8314   -2.8210    0.1249 C.2       1 <0>         0.5948
     12 N2          4.4249   -4.0694    0.1979 N.2       1 <0>        -0.5873
     13 C9          3.0869   -4.1118    0.1675 C.2       1 <0>         0.5191
     14 N3          2.6183   -2.8904    0.0808 N.2       1 <0>        -0.3480
     15 N4          2.3148   -5.2702    0.2247 N.pl3     1 <0>        -0.6226
     16 C10         2.9267   -6.5079    0.4407 C.ar      1 <0>         0.2365
     17 C11         4.1432   -6.5760    1.1080 C.ar      1 <0>        -0.1584
     18 C12         4.7450   -7.8008    1.3202 C.ar      1 <0>         0.0098
     19 C13         4.1379   -8.9586    0.8692 C.ar      1 <0>        -0.7033
     20 C14         2.9269   -8.8944    0.2046 C.ar      1 <0>         0.0112
     21 C15         2.3170   -7.6734   -0.0063 C.ar      1 <0>        -0.1777
     22 S1          4.9094  -10.5191    1.1415 S.o2      1 <0>         2.7034
     23 O2          4.4084  -11.3993    0.1448 O.2       1 <0>        -0.9656
     24 O3          6.2977  -10.2630    1.3036 O.2       1 <0>        -0.9650
     25 N5          4.3605  -11.0895    2.5960 N.pl3     1 <0>        -1.2510
     26 N6          6.1422   -2.3912    0.1281 N.pl3     1 <0>        -0.7911
     27 F2          2.3185    0.0697   -2.3868 F         1 <0>        -0.1201
     28 H1         -0.9506    1.9116    0.0998 H         1 <0>         0.1546
     29 H2          0.0576    1.3300   -2.0654 H         1 <0>         0.1549
     30 H3          0.1721    1.2963    2.1984 H         1 <0>         0.1546
     31 H4          1.3525   -5.2176    0.1147 H         1 <0>         0.4325
     32 H5          4.6180   -5.6722    1.4601 H         1 <0>         0.1556
     33 H6          5.6909   -7.8544    1.8385 H         1 <0>         0.1456
     34 H7          2.4556   -9.8005   -0.1466 H         1 <0>         0.1475
     35 H8          1.3691   -7.6243   -0.5215 H         1 <0>         0.1387
     36 H9          3.7284  -10.5673    3.1145 H         1 <0>         0.4165
     37 H10         4.6709  -11.9458    2.9296 H         1 <0>         0.4206
     38 H11         6.3422   -1.4439    0.0694 H         1 <0>         0.4292
     39 H12         6.8640   -3.0364    0.1890 H         1 <0>         0.4303
@<TRIPOS>BOND
     1    1    6 ar
     2    1    2 ar
     3    1   28 1
     4    2    3 ar
     5    2   29 1
     6    3    4 ar
     7    3   27 1
     8    4    5 ar
     9    4    8 1
    10    5    6 ar
    11    5    7 1
    12    6   30 1
    13    8    9 2
    14    8   10 am
    15   10   14 1
    16   10   11 1
    17   11   12 2
    18   11   26 1
    19   12   13 1
    20   13   14 2
    21   13   15 1
    22   15   16 1
    23   15   31 1
    24   16   21 ar
    25   16   17 ar
    26   17   18 ar
    27   17   32 1
    28   18   19 ar
    29   18   33 1
    30   19   20 ar
    31   19   22 1
    32   20   21 ar
    33   20   34 1
    34   21   35 1
    35   22   23 2
    36   22   24 2
    37   22   25 1
    38   25   36 1
    39   25   37 1
    40   26   38 1
    41   26   39 1
@<TRIPOS>MOLECULE
ZINC06718813
   46    49     0     0     0
SMALL
USER_CHARGES
3-[4-(3-amino-1H-indazol-4-yl)phenyl]-1-(2-fluoro-5-methyl-phenyl)urea
@<TRIPOS>ATOM
      1 C1          6.9492   -0.6708   -4.4566 C.3       1 <0>        -0.1151
      2 C2          7.3188   -0.0066   -3.1554 C.ar      1 <0>        -0.0747
      3 C3          8.6152   -0.0905   -2.6815 C.ar      1 <0>        -0.1060
      4 C4          8.9590    0.5169   -1.4879 C.ar      1 <0>        -0.1295
      5 C5          8.0061    1.2101   -0.7639 C.ar      1 <0>         0.0645
      6 C6          6.7020    1.2957   -1.2387 C.ar      1 <0>         0.1336
      7 C7          6.3607    0.6802   -2.4351 C.ar      1 <0>        -0.0953
      8 N1          5.7336    1.9963   -0.5085 N.am      1 <0>        -0.6783
      9 C8          4.4547    1.5712   -0.5040 C.2       1 <0>         0.7069
     10 O1          4.1265    0.6239   -1.1921 O.2       1 <0>        -0.5500
     11 N2          3.5395    2.1961    0.2631 N.am      1 <0>        -0.6801
     12 C9          2.2409    1.6865    0.3572 C.ar      1 <0>         0.1677
     13 C10         1.1632    2.5541    0.4899 C.ar      1 <0>        -0.1430
     14 C11        -0.1180    2.0545    0.5834 C.ar      1 <0>        -0.0892
     15 C12        -0.3326    0.6766    0.5442 C.ar      1 <0>        -0.0682
     16 C13         0.7509   -0.1919    0.4104 C.ar      1 <0>        -0.0779
     17 C14         2.0300    0.3132    0.3174 C.ar      1 <0>        -0.1142
     18 C15        -1.7083    0.1367    0.6449 C.ar      1 <0>         0.0376
     19 C16        -2.0347   -0.7648    1.6483 C.ar      1 <0>        -0.1557
     20 C17        -3.3230   -1.2675    1.7456 C.ar      1 <0>        -0.0592
     21 C18        -4.2968   -0.8911    0.8473 C.ar      1 <0>        -0.1529
     22 C19        -3.9969    0.0086   -0.1734 C.ar      1 <0>         0.1547
     23 C20        -2.6946    0.5292   -0.2801 C.ar      1 <0>        -0.1858
     24 C21        -2.7034    1.4283   -1.4324 C.2       1 <0>         0.3642
     25 N3         -3.9099    1.4169   -1.9352 N.2       1 <0>        -0.3205
     26 N4         -4.7292    0.5606   -1.1926 N.pl3     1 <0>        -0.5119
     27 H1         -5.6955    0.3797   -1.3759 H         1 <0>         0.4473
     28 N5         -1.6172    2.1667   -1.9108 N.pl3     1 <0>        -0.8360
     29 F1          8.3418    1.8036    0.4023 F         1 <0>        -0.1384
     30 H2          6.6188   -1.6912   -4.2627 H         1 <0>         0.0755
     31 H3          6.1436   -0.1125   -4.9335 H         1 <0>         0.0695
     32 H4          7.8178   -0.6890   -5.1149 H         1 <0>         0.0704
     33 H5          9.3607   -0.6319   -3.2448 H         1 <0>         0.1352
     34 H6          9.9724    0.4496   -1.1204 H         1 <0>         0.1410
     35 H7          5.3477    0.7413   -2.8045 H         1 <0>         0.1523
     36 H8          5.9835    2.7876   -0.0061 H         1 <0>         0.4118
     37 H9          3.7818    2.9993    0.7499 H         1 <0>         0.4106
     38 H10         1.3298    3.6208    0.5203 H         1 <0>         0.1310
     39 H11        -0.9554    2.7293    0.6824 H         1 <0>         0.1315
     40 H12         0.5876   -1.2590    0.3794 H         1 <0>         0.1314
     41 H13         2.8692   -0.3587    0.2138 H         1 <0>         0.1391
     42 H14        -1.2822   -1.0738    2.3586 H         1 <0>         0.1292
     43 H15        -3.5651   -1.9655    2.5334 H         1 <0>         0.1325
     44 H16        -5.2951   -1.2940    0.9345 H         1 <0>         0.1278
     45 H17        -0.7342    2.0309   -1.5329 H         1 <0>         0.4118
     46 H18        -1.7465    2.8151   -2.6206 H         1 <0>         0.4050
@<TRIPOS>BOND
     1    1    2 1
     2    1   30 1
     3    1   31 1
     4    1   32 1
     5    2    7 ar
     6    2    3 ar
     7    3    4 ar
     8    3   33 1
     9    4    5 ar
    10    4   34 1
    11    5    6 ar
    12    5   29 1
    13    6    7 ar
    14    6    8 1
    15    7   35 1
    16    8    9 am
    17    8   36 1
    18    9   10 2
    19    9   11 am
    20   11   12 1
    21   11   37 1
    22   12   17 ar
    23   12   13 ar
    24   13   14 ar
    25   13   38 1
    26   14   15 ar
    27   14   39 1
    28   15   16 ar
    29   15   18 1
    30   16   17 ar
    31   16   40 1
    32   17   41 1
    33   18   23 ar
    34   18   19 ar
    35   19   20 ar
    36   19   42 1
    37   20   21 ar
    38   20   43 1
    39   21   22 ar
    40   21   44 1
    41   22   26 1
    42   22   23 ar
    43   23   24 1
    44   24   25 2
    45   24   28 1
    46   25   26 1
    47   26   27 1
    48   28   45 1
    49   28   46 1
@<TRIPOS>MOLECULE
ZINC16052718
   27    29     0     0     0
SMALL
USER_CHARGES
2-(4-pyridyl)-1,5,6,7-tetrahydropyrrolo[3,2-c]pyridin-4-one
@<TRIPOS>ATOM
      1 C1         -1.2211    1.7394    0.0173 C.ar      1 <0>        -0.1847
      2 C2         -0.0126    1.0758    0.0080 C.ar      1 <0>         0.1111
      3 N1          1.1266    1.7422    0.0007 N.ar      1 <0>        -0.4905
      4 C3          1.1665    3.0614    0.0069 C.ar      1 <0>         0.1119
      5 C4          0.0054    3.8049    0.0215 C.ar      1 <0>        -0.1618
      6 C5         -1.2265    3.1395    0.0297 C.ar      1 <0>         0.0379
      7 C6         -2.4974    3.8941    0.0449 C.2       1 <0>         0.0152
      8 C7         -2.6168    5.2527    0.0519 C.2       1 <0>        -0.0780
      9 C8         -3.9881    5.5373    0.0657 C.2       1 <0>        -0.2330
     10 C9         -4.6662    4.3225    0.0683 C.2       1 <0>         0.0775
     11 N2         -3.7609    3.3429    0.0484 N.pl3     1 <0>        -0.5119
     12 H1         -3.9600    2.3935    0.0405 H         1 <0>         0.4194
     13 C10        -6.1725    4.2736    0.0855 C.3       1 <0>        -0.0706
     14 C11        -6.6980    5.5192    0.7998 C.3       1 <0>         0.1242
     15 N3         -6.0502    6.7447    0.3531 N.am      1 <0>        -0.7362
     16 C12        -4.7270    6.8120    0.0741 C.2       1 <0>         0.5975
     17 O1         -4.1760    7.8712   -0.1574 O.2       1 <0>        -0.5324
     18 H2         -2.1495    1.1876    0.0191 H         1 <0>         0.1271
     19 H3          0.0021   -0.0041    0.0020 H         1 <0>         0.1582
     20 H4          2.1216    3.5654    0.0002 H         1 <0>         0.1618
     21 H5          0.0456    4.8841    0.0262 H         1 <0>         0.1422
     22 H6         -1.8098    5.9704    0.0479 H         1 <0>         0.1542
     23 H7         -6.5491    4.2527   -0.9371 H         1 <0>         0.0964
     24 H8         -6.5030    3.3798    0.6148 H         1 <0>         0.0985
     25 H9         -7.7696    5.6022    0.6183 H         1 <0>         0.0948
     26 H10        -6.5315    5.4063    1.8710 H         1 <0>         0.0675
     27 H11        -6.5885    7.5452    0.2514 H         1 <0>         0.4040
@<TRIPOS>BOND
     1    1    6 ar
     2    1    2 ar
     3    1   18 1
     4    2    3 ar
     5    2   19 1
     6    3    4 ar
     7    4    5 ar
     8    4   20 1
     9    5    6 ar
    10    5   21 1
    11    6    7 1
    12    7   11 1
    13    7    8 2
    14    8    9 1
    15    8   22 1
    16    9   16 1
    17    9   10 2
    18   10   11 1
    19   10   13 1
    20   11   12 1
    21   13   14 1
    22   13   23 1
    23   13   24 1
    24   14   15 1
    25   14   25 1
    26   14   26 1
    27   15   16 am
    28   15   27 1
    29   16   17 2
@<TRIPOS>MOLECULE
ZINC29056064
   54    57     0     0     0
SMALL
USER_CHARGES
1-(2,6-dichlorophenyl)-6-[[4-(2-hydroxyethoxy)phenyl]methyl]-3-isopropyl-5H-pyrazolo[3,4-d]pyrimidin-4-one
@<TRIPOS>ATOM
      1 C1          2.3572    8.4917    1.4942 C.3       1 <0>        -0.1430
      2 C2          1.5734    8.5299    0.1807 C.3       1 <0>        -0.0242
      3 C3          2.5502    8.5120   -0.9967 C.3       1 <0>        -0.1426
      4 C4          0.6681    7.3278    0.1008 C.2       1 <0>         0.1688
      5 C5         -0.7348    7.3590   -0.0077 C.2       1 <0>        -0.3390
      6 C6         -1.7365    8.4226   -0.0767 C.2       1 <0>         0.5817
      7 O1         -1.4146    9.5972   -0.0426 O.2       1 <0>        -0.5166
      8 N1         -3.0347    8.0531   -0.1803 N.am      1 <0>        -0.6609
      9 H1         -3.8220    8.8194   -0.2351 H         1 <0>         0.4506
     10 C7         -3.3711    6.7390   -0.2170 C.2       1 <0>         0.4368
     11 N2         -2.4939    5.7801   -0.1572 N.2       1 <0>        -0.5073
     12 C8         -1.1793    6.0279   -0.0529 C.2       1 <0>         0.3607
     13 N3         -0.0688    5.2451    0.0268 N.pl3     1 <0>        -0.3137
     14 N4          1.0510    6.0805    0.1260 N.2       1 <0>        -0.2484
     15 C9         -0.0497    3.8439    0.0174 C.ar      1 <0>         0.1627
     16 C10        -0.7963    3.1310    0.9473 C.ar      1 <0>        -0.0096
     17 C11        -0.7746    1.7489    0.9353 C.ar      1 <0>        -0.0953
     18 C12        -0.0111    1.0759   -0.0007 C.ar      1 <0>        -0.0850
     19 C13         0.7377    1.7821   -0.9240 C.ar      1 <0>        -0.0998
     20 C14         0.7164    3.1643   -0.9216 C.ar      1 <0>        -0.0144
     21 Cl1         1.6508    4.0499   -2.0863 Cl        1 <0>        -0.0314
     22 Cl2        -1.7557    3.9749    2.1224 Cl        1 <0>        -0.0279
     23 C15        -4.8284    6.3733   -0.3330 C.3       1 <0>        -0.0338
     24 C16        -4.9808    4.8776   -0.2304 C.ar      1 <0>        -0.1032
     25 C17        -4.9382    4.0996   -1.3726 C.ar      1 <0>        -0.0545
     26 C18        -5.0719    2.7277   -1.2807 C.ar      1 <0>        -0.2083
     27 C19        -5.2600    2.1317   -0.0421 C.ar      1 <0>         0.1366
     28 C20        -5.3080    2.9151    1.1019 C.ar      1 <0>        -0.1465
     29 C21        -5.1685    4.2861    1.0052 C.ar      1 <0>        -0.0571
     30 O2         -5.3973    0.7828    0.0504 O.3       1 <0>        -0.3063
     31 C22        -5.3375    0.0395   -1.1686 C.3       1 <0>         0.0581
     32 C23        -5.5106   -1.4503   -0.8665 C.3       1 <0>         0.0868
     33 O3         -6.8213   -1.6818   -0.3465 O.3       1 <0>        -0.5962
     34 H2          1.6549    8.5046    2.3407 H         1 <0>         0.0553
     35 H3          3.0179    9.3692    1.5525 H         1 <0>         0.0669
     36 H4          2.9622    7.5739    1.5336 H         1 <0>         0.0624
     37 H5          0.9554    9.4390    0.1401 H         1 <0>         0.1059
     38 H6          1.9867    8.5395   -1.9410 H         1 <0>         0.0548
     39 H7          3.1552    7.5942   -0.9573 H         1 <0>         0.0623
     40 H8          3.2109    9.3895   -0.9383 H         1 <0>         0.0669
     41 H9         -1.3550    1.1941    1.6576 H         1 <0>         0.1493
     42 H10         0.0040   -0.0040   -0.0077 H         1 <0>         0.1497
     43 H11         1.3367    1.2532   -1.6506 H         1 <0>         0.1497
     44 H12        -5.3932    6.8559    0.4782 H         1 <0>         0.1138
     45 H13        -5.2162    6.7156   -1.3038 H         1 <0>         0.1153
     46 H14        -4.7962    4.5644   -2.3371 H         1 <0>         0.1199
     47 H15        -5.0338    2.1199   -2.1726 H         1 <0>         0.1236
     48 H16        -5.4546    2.4535    2.0672 H         1 <0>         0.1272
     49 H17        -5.2059    4.8963    1.8954 H         1 <0>         0.1219
     50 H18        -6.1414    0.3731   -1.8412 H         1 <0>         0.0695
     51 H19        -4.3631    0.2049   -1.6515 H         1 <0>         0.0769
     52 H20        -5.3754   -2.0301   -1.7915 H         1 <0>         0.0645
     53 H21        -4.7612   -1.7635   -0.1246 H         1 <0>         0.0539
     54 H22        -7.1311   -2.7003   -0.0694 H         1 <0>         0.4127
@<TRIPOS>BOND
     1    1    2 1
     2    1   34 1
     3    1   35 1
     4    1   36 1
     5    2    3 1
     6    2    4 1
     7    2   37 1
     8    3   38 1
     9    3   39 1
    10    3   40 1
    11    4   14 2
    12    4    5 1
    13    5   12 2
    14    5    6 1
    15    6    7 2
    16    6    8 am
    17    8    9 1
    18    8   10 1
    19   10   11 2
    20   10   23 1
    21   11   12 1
    22   12   13 1
    23   13   14 1
    24   13   15 1
    25   15   20 ar
    26   15   16 ar
    27   16   17 ar
    28   16   22 1
    29   17   18 ar
    30   17   41 1
    31   18   19 ar
    32   18   42 1
    33   19   20 ar
    34   19   43 1
    35   20   21 1
    36   23   24 1
    37   23   44 1
    38   23   45 1
    39   24   29 ar
    40   24   25 ar
    41   25   26 ar
    42   25   46 1
    43   26   27 ar
    44   26   47 1
    45   27   28 ar
    46   27   30 1
    47   28   29 ar
    48   28   48 1
    49   29   49 1
    50   30   31 1
    51   31   32 1
    52   31   50 1
    53   31   51 1
    54   32   33 1
    55   32   52 1
    56   32   53 1
    57   33   54 1
@<TRIPOS>MOLECULE
ZINC29056064
   53    56     0     0     0
SMALL
USER_CHARGES
1-(2,6-dichlorophenyl)-6-[[4-(2-hydroxyethoxy)phenyl]methyl]-3-isopropyl-5H-pyrazolo[3,4-d]pyrimidin-4-one
@<TRIPOS>ATOM
      1 C1          2.3572    8.4917    1.4942 C.3       1 <0>        -0.1356
      2 C2          1.5734    8.5299    0.1807 C.3       1 <0>        -0.0213
      3 C3          2.5502    8.5120   -0.9967 C.3       1 <0>        -0.1351
      4 C4          0.6681    7.3278    0.1008 C.2       1 <0>         0.1613
      5 C5         -0.7348    7.3590   -0.0077 C.ar      1 <0>        -0.3976
      6 C6         -1.7365    8.4226   -0.0767 C.ar      1 <0>         0.5480
      7 O1         -1.4146    9.5972   -0.0426 O.3       1 <0>        -0.5931
      8 N1         -3.0347    8.0531   -0.1803 N.ar      1 <0>        -0.6810
      9 C7         -3.3711    6.7390   -0.2170 C.ar      1 <0>         0.3959
     10 N2         -2.4939    5.7801   -0.1572 N.ar      1 <0>        -0.6094
     11 C8         -1.1793    6.0279   -0.0529 C.ar      1 <0>         0.3775
     12 N3         -0.0688    5.2451    0.0268 N.pl3     1 <0>        -0.3533
     13 N4          1.0510    6.0805    0.1260 N.2       1 <0>        -0.2964
     14 C9         -0.0497    3.8439    0.0174 C.ar      1 <0>         0.2037
     15 C10        -0.7963    3.1310    0.9473 C.ar      1 <0>        -0.0180
     16 C11        -0.7746    1.7489    0.9353 C.ar      1 <0>        -0.0985
     17 C12        -0.0111    1.0759   -0.0007 C.ar      1 <0>        -0.1076
     18 C13         0.7377    1.7821   -0.9240 C.ar      1 <0>        -0.1050
     19 C14         0.7164    3.1643   -0.9216 C.ar      1 <0>        -0.0276
     20 Cl1         1.6508    4.0499   -2.0863 Cl        1 <0>        -0.0424
     21 Cl2        -1.7557    3.9749    2.1224 Cl        1 <0>        -0.0263
     22 C15        -4.8284    6.3733   -0.3330 C.3       1 <0>        -0.0068
     23 C16        -4.9808    4.8776   -0.2304 C.ar      1 <0>        -0.0676
     24 C17        -4.9382    4.0996   -1.3726 C.ar      1 <0>        -0.0620
     25 C18        -5.0719    2.7277   -1.2807 C.ar      1 <0>        -0.2068
     26 C19        -5.2600    2.1317   -0.0421 C.ar      1 <0>         0.1155
     27 C20        -5.3080    2.9151    1.1019 C.ar      1 <0>        -0.1459
     28 C21        -5.1685    4.2861    1.0052 C.ar      1 <0>        -0.0628
     29 O2         -5.3973    0.7828    0.0504 O.3       1 <0>        -0.3112
     30 C22        -5.3375    0.0395   -1.1686 C.3       1 <0>         0.0597
     31 C23        -5.5106   -1.4503   -0.8665 C.3       1 <0>         0.0880
     32 O3         -6.8213   -1.6818   -0.3465 O.3       1 <0>        -0.5941
     33 H1          1.6549    8.5046    2.3407 H         1 <0>         0.0521
     34 H2          3.0179    9.3692    1.5525 H         1 <0>         0.0550
     35 H3          2.9622    7.5739    1.5336 H         1 <0>         0.0557
     36 H4          0.9554    9.4390    0.1401 H         1 <0>         0.1043
     37 H5          1.9867    8.5395   -1.9410 H         1 <0>         0.0515
     38 H6          3.1552    7.5942   -0.9573 H         1 <0>         0.0557
     39 H7          3.2109    9.3895   -0.9383 H         1 <0>         0.0549
     40 H8         -1.3550    1.1941    1.6576 H         1 <0>         0.1399
     41 H9          0.0040   -0.0040   -0.0077 H         1 <0>         0.1392
     42 H10         1.3367    1.2532   -1.6506 H         1 <0>         0.1392
     43 H11        -5.3932    6.8559    0.4782 H         1 <0>         0.0898
     44 H12        -5.2162    6.7156   -1.3038 H         1 <0>         0.0884
     45 H13        -4.7962    4.5644   -2.3371 H         1 <0>         0.1156
     46 H14        -5.0338    2.1199   -2.1726 H         1 <0>         0.1160
     47 H15        -5.4546    2.4535    2.0672 H         1 <0>         0.1195
     48 H16        -5.2059    4.8963    1.8954 H         1 <0>         0.1181
     49 H17        -6.1414    0.3731   -1.8412 H         1 <0>         0.0656
     50 H18        -4.3631    0.2049   -1.6515 H         1 <0>         0.0750
     51 H19        -5.3754   -2.0301   -1.7915 H         1 <0>         0.0608
     52 H20        -4.7612   -1.7635   -0.1246 H         1 <0>         0.0528
     53 H21        -7.1311   -2.7003   -0.0694 H         1 <0>         0.4068
@<TRIPOS>BOND
     1    1    2 1
     2    1   33 1
     3    1   34 1
     4    1   35 1
     5    2    3 1
     6    2    4 1
     7    2   36 1
     8    3   37 1
     9    3   38 1
    10    3   39 1
    11    4   13 2
    12    4    5 1
    13    5   11 ar
    14    5    6 ar
    15    6    7 1
    16    6    8 ar
    17    8    9 ar
    18    9   10 ar
    19    9   22 1
    20   10   11 ar
    21   11   12 1
    22   12   13 1
    23   12   14 1
    24   14   19 ar
    25   14   15 ar
    26   15   16 ar
    27   15   21 1
    28   16   17 ar
    29   16   40 1
    30   17   18 ar
    31   17   41 1
    32   18   19 ar
    33   18   42 1
    34   19   20 1
    35   22   23 1
    36   22   43 1
    37   22   44 1
    38   23   28 ar
    39   23   24 ar
    40   24   25 ar
    41   24   45 1
    42   25   26 ar
    43   25   46 1
    44   26   27 ar
    45   26   29 1
    46   27   28 ar
    47   27   47 1
    48   28   48 1
    49   29   30 1
    50   30   31 1
    51   30   49 1
    52   30   50 1
    53   31   32 1
    54   31   51 1
    55   31   52 1
    56   32   53 1
@<TRIPOS>MOLECULE
ZINC29135065
   25    27     0     0     0
SMALL
USER_CHARGES
4-(6-bromo-1H-pyrrolo[2,3-b]pyridin-3-yl)pyrimidin-2-amine
@<TRIPOS>ATOM
      1 C1          3.9019   -2.6656   -0.0489 C.ar      1 <0>        -0.0068
      2 C2          4.7889   -3.7264   -0.0625 C.ar      1 <0>        -0.1687
      3 C3          4.2976   -5.0234   -0.0642 C.ar      1 <0>         0.1610
      4 N1          3.0039   -5.2697   -0.0528 N.ar      1 <0>        -0.4735
      5 C4          2.1085   -4.2907   -0.0400 C.ar      1 <0>         0.2815
      6 C5          2.5372   -2.9515   -0.0375 C.ar      1 <0>        -0.1089
      7 C6          1.3158   -2.1310   -0.0215 C.2       1 <0>        -0.1479
      8 C7          0.2700   -2.9968   -0.0097 C.2       1 <0>         0.1376
      9 N2          0.7328   -4.2781   -0.0266 N.pl3     1 <0>        -0.5798
     10 H1          0.1740   -5.2256   -0.0304 H         1 <0>         0.4590
     11 C8          1.2420   -0.6541   -0.0133 C.ar      1 <0>         0.3054
     12 C9          0.0021   -0.0041    0.0020 C.ar      1 <0>        -0.2980
     13 C10        -0.0167    1.3771    0.0096 C.ar      1 <0>         0.1995
     14 N3          1.1296    2.0415    0.0022 N.ar      1 <0>        -0.5867
     15 C11         2.2897    1.4014   -0.0123 C.ar      1 <0>         0.5785
     16 N4          2.3547    0.0793   -0.0200 N.ar      1 <0>        -0.5766
     17 N5          3.4640    2.1342   -0.0191 N.pl3     1 <0>        -0.8460
     18 Br1         5.5134   -6.4716   -0.0828 Br        1 <0>        -0.0023
     19 H2          4.2558   -1.6452   -0.0476 H         1 <0>         0.1538
     20 H3          5.8538   -3.5466   -0.0712 H         1 <0>         0.1490
     21 H4         -0.7718   -2.7126    0.0080 H         1 <0>         0.1904
     22 H5         -0.9182   -0.5693    0.0081 H         1 <0>         0.1408
     23 H6         -0.9560    1.9100    0.0170 H         1 <0>         0.1666
     24 H7          4.4349    1.6172   -0.0311 H         1 <0>         0.4350
     25 H8          3.4263    3.2335   -0.0125 H         1 <0>         0.4372
@<TRIPOS>BOND
     1    1    6 ar
     2    1    2 ar
     3    1   19 1
     4    2    3 ar
     5    2   20 1
     6    3    4 ar
     7    3   18 1
     8    4    5 ar
     9    5    9 1
    10    5    6 ar
    11    6    7 1
    12    7    8 2
    13    7   11 1
    14    8    9 1
    15    8   21 1
    16    9   10 1
    17   11   16 ar
    18   11   12 ar
    19   12   13 ar
    20   12   22 1
    21   13   14 ar
    22   13   23 1
    23   14   15 ar
    24   15   16 ar
    25   15   17 1
    26   17   24 1
    27   17   25 1
@<TRIPOS>MOLECULE
ZINC29135071
   25    27     0     0     0
SMALL
USER_CHARGES
4-(4-chloro-1H-pyrrolo[2,3-b]pyridin-3-yl)pyrimidin-2-amine
@<TRIPOS>ATOM
      1 C1          4.6688    5.2304   -0.0133 C.ar      1 <0>        -0.1988
      2 C2          4.1415    6.5117   -0.0012 C.ar      1 <0>         0.1517
      3 N1          2.8423    6.7220    0.0117 N.ar      1 <0>        -0.4946
      4 C3          1.9731    5.7190    0.0139 C.ar      1 <0>         0.2866
      5 C4          2.4375    4.3925    0.0078 C.ar      1 <0>        -0.1240
      6 C5          3.8108    4.1438   -0.0116 C.ar      1 <0>         0.0624
      7 Cl1         4.4249    2.5202   -0.0258 Cl        1 <0>        -0.0158
      8 C6          1.2389    3.5391    0.0088 C.2       1 <0>        -0.1391
      9 C7          0.1699    4.3761    0.0234 C.2       1 <0>         0.1291
     10 N2          0.5983    5.6695    0.0266 N.pl3     1 <0>        -0.5797
     11 H1          0.0145    6.6017    0.0373 H         1 <0>         0.4590
     12 C8          1.2052    2.0607    0.0016 C.ar      1 <0>         0.2968
     13 C9         -0.0167    1.3772    0.0096 C.ar      1 <0>        -0.2957
     14 C10         0.0021   -0.0041    0.0020 C.ar      1 <0>         0.1967
     15 N3          1.1659   -0.6370   -0.0125 N.ar      1 <0>        -0.5865
     16 C11         2.3082    0.0345   -0.0198 C.ar      1 <0>         0.5726
     17 N4          2.3373    1.3579   -0.0130 N.ar      1 <0>        -0.5499
     18 N5          3.5019   -0.6660   -0.0345 N.pl3     1 <0>        -0.8460
     19 H2          5.7383    5.0808   -0.0234 H         1 <0>         0.1479
     20 H3          4.8125    7.3579   -0.0029 H         1 <0>         0.1714
     21 H4         -0.8640    4.0638    0.0314 H         1 <0>         0.1898
     22 H5         -0.9519    1.9171    0.0170 H         1 <0>         0.1390
     23 H6         -0.9225   -0.5623    0.0082 H         1 <0>         0.1652
     24 H7          4.4584   -0.1227   -0.0407 H         1 <0>         0.4252
     25 H8          3.4941   -1.7660   -0.0400 H         1 <0>         0.4366
@<TRIPOS>BOND
     1    1    6 ar
     2    1    2 ar
     3    1   19 1
     4    2    3 ar
     5    2   20 1
     6    3    4 ar
     7    4   10 1
     8    4    5 ar
     9    5    6 ar
    10    5    8 1
    11    6    7 1
    12    8    9 2
    13    8   12 1
    14    9   10 1
    15    9   21 1
    16   10   11 1
    17   12   17 ar
    18   12   13 ar
    19   13   14 ar
    20   13   22 1
    21   14   15 ar
    22   14   23 1
    23   15   16 ar
    24   16   17 ar
    25   16   18 1
    26   18   24 1
    27   18   25 1
@<TRIPOS>MOLECULE
ZINC03816409
   50    52     0     0     0
SMALL
USER_CHARGES
N-[5-[(5-tert-butyloxazol-2-yl)methylsulfanyl]thiazol-2-yl]piperidine-4-carboxamide
@<TRIPOS>ATOM
      1 C1         -0.0127    1.0858    0.0080 C.3       1 <0>        -0.1425
      2 C2         -0.7288    1.5792    1.2668 C.3       1 <0>         0.0153
      3 C3          0.0111    1.0724    2.5063 C.3       1 <0>        -0.1429
      4 C4         -0.7496    3.1091    1.2752 C.3       1 <0>        -0.1470
      5 C5         -2.1426    1.0576    1.2775 C.2       1 <0>        -0.0059
      6 C6         -2.5173   -0.2324    1.2742 C.2       1 <0>        -0.0384
      7 N1         -3.8616   -0.2670    1.2868 N.2       1 <0>        -0.4461
      8 C7         -4.3108    0.9556    1.2976 C.2       1 <0>         0.1754
      9 O1         -3.2687    1.7975    1.2981 O.3       1 <0>        -0.1872
     10 C8         -5.7633    1.3568    1.3132 C.3       1 <0>        -0.0274
     11 S1         -6.3302    1.5091    3.0296 S.3       1 <0>         0.0531
     12 C9         -8.0223    1.9770    2.8797 C.2       1 <0>        -0.2079
     13 C10        -8.9445    2.2293    3.8504 C.2       1 <0>         0.0730
     14 N2        -10.1733    2.5704    3.5096 N.2       1 <0>        -0.4781
     15 C11       -10.5307    2.6731    2.2430 C.2       1 <0>         0.3098
     16 S2         -9.0031    2.2599    1.4114 S.3       1 <0>         0.0397
     17 N3        -11.7659    3.0158    1.7000 N.am      1 <0>        -0.6146
     18 C12       -12.8034    3.3002    2.5119 C.2       1 <0>         0.5107
     19 O2        -12.6609    3.2576    3.7157 O.2       1 <0>        -0.4551
     20 C13       -14.1405    3.6713    1.9241 C.3       1 <0>        -0.1149
     21 C14       -13.9915    4.9332    1.0698 C.3       1 <0>        -0.1461
     22 C15       -15.3628    5.3397    0.5255 C.3       1 <0>         0.0009
     23 C16       -16.4761    4.3789    2.4515 C.3       1 <0>        -0.0009
     24 C17       -15.1380    3.9438    3.0534 C.3       1 <0>        -0.1323
     25 H1          0.0021   -0.0041    0.0020 H         1 <0>         0.0648
     26 H2          1.0099    1.4631    0.0003 H         1 <0>         0.0750
     27 H3         -0.5399    1.4469   -0.8751 H         1 <0>         0.0608
     28 H4          1.0337    1.4497    2.4986 H         1 <0>         0.0751
     29 H5         -0.4990    1.4239    3.4031 H         1 <0>         0.0616
     30 H6          0.0259   -0.0175    2.5003 H         1 <0>         0.0649
     31 H7         -1.2768    3.4701    0.3922 H         1 <0>         0.0605
     32 H8         -1.2598    3.4606    2.1720 H         1 <0>         0.0616
     33 H9          0.2730    3.4864    1.2675 H         1 <0>         0.0706
     34 H10        -1.8578   -1.0876    1.2633 H         1 <0>         0.1891
     35 H11        -5.8813    2.3140    0.8053 H         1 <0>         0.1204
     36 H12        -6.3553    0.5983    0.8010 H         1 <0>         0.1329
     37 H13        -8.6718    2.1504    4.8925 H         1 <0>         0.1794
     38 H14       -11.8799    3.0499    0.7373 H         1 <0>         0.4267
     39 H15       -14.5061    2.8521    1.3049 H         1 <0>         0.1234
     40 H16       -13.5885    5.7409    1.6809 H         1 <0>         0.0995
     41 H17       -13.3151    4.7324    0.2390 H         1 <0>         0.1172
     42 H18       -15.7590    4.5372   -0.0967 H         1 <0>         0.1349
     43 H19       -15.2623    6.2461   -0.0715 H         1 <0>         0.1387
     44 H20       -16.8671    3.5809    1.8204 H         1 <0>         0.1334
     45 H21       -17.1842    4.5877    3.2534 H         1 <0>         0.1392
     46 H22       -15.2808    3.0361    3.6398 H         1 <0>         0.1229
     47 H23       -14.7528    4.7354    3.6961 H         1 <0>         0.1008
     48 N4        -16.2857    5.6006    1.6466 N.4       1 <0>        -0.5187
     49 H24       -17.1928    5.9050    1.2741 H         1 <0>         0.4395
     50 H25       -15.8944    6.3401    2.2417 H         1 <0>         0.4347
@<TRIPOS>BOND
     1    1    2 1
     2    1   25 1
     3    1   26 1
     4    1   27 1
     5    2    3 1
     6    2    4 1
     7    2    5 1
     8    3   28 1
     9    3   29 1
    10    3   30 1
    11    4   31 1
    12    4   32 1
    13    4   33 1
    14    5    9 1
    15    5    6 2
    16    6    7 1
    17    6   34 1
    18    7    8 2
    19    8    9 1
    20    8   10 1
    21   10   11 1
    22   10   35 1
    23   10   36 1
    24   11   12 1
    25   12   16 1
    26   12   13 2
    27   13   14 1
    28   13   37 1
    29   14   15 2
    30   15   16 1
    31   15   17 1
    32   17   18 am
    33   17   38 1
    34   18   19 2
    35   18   20 1
    36   20   24 1
    37   20   21 1
    38   20   39 1
    39   21   22 1
    40   21   40 1
    41   21   41 1
    42   22   42 1
    43   22   43 1
    44   22   48 1
    45   23   24 1
    46   23   44 1
    47   23   45 1
    48   23   48 1
    49   24   46 1
    50   24   47 1
    51   48   49 1
    52   48   50 1
@<TRIPOS>MOLECULE
ZINC01639355
   31    34     0     0     0
SMALL
USER_CHARGES

@<TRIPOS>ATOM
      1 C1         -0.0166    1.3732    0.0096 C.ar      1 <0>        -0.1257
      2 C2          1.1748    2.0786    0.0020 C.ar      1 <0>        -0.0832
      3 C3          2.3792    1.4098    0.0056 C.ar      1 <0>        -0.1400
      4 C4          2.4210    0.0136    0.0061 C.ar      1 <0>         0.1789
      5 C5          1.2194   -0.6945   -0.0178 C.ar      1 <0>        -0.0582
      6 C6          0.0021   -0.0041    0.0020 C.ar      1 <0>        -0.0848
      7 C7          1.1765   -2.1700   -0.1110 C.2       1 <0>         0.1249
      8 C8          2.0458   -2.9289   -0.8258 C.2       1 <0>        -0.1473
      9 C9          1.6305   -4.3071   -0.6826 C.ar      1 <0>        -0.0956
     10 C10         2.1330   -5.5059   -1.2017 C.ar      1 <0>        -0.0291
     11 C11         1.4744   -6.6587   -0.8492 C.ar      1 <0>        -0.1144
     12 C12         0.3640   -6.6479   -0.0195 C.ar      1 <0>        -0.0709
     13 C13        -0.1535   -5.4768    0.5077 C.ar      1 <0>        -0.1209
     14 C14         0.4938   -4.2910    0.1676 C.ar      1 <0>         0.1207
     15 N1          0.2503   -2.9898    0.5038 N.pl3     1 <0>        -0.5782
     16 H1         -0.4640   -2.6874    1.0863 H         1 <0>         0.4210
     17 Br1         2.1020   -8.3126   -1.5175 Br        1 <0>        -0.0539
     18 C15         3.2306   -2.3907   -1.5888 C.3       1 <0>        -0.0636
     19 C16         4.1060   -1.6483   -0.6094 C.2       1 <0>         0.5307
     20 O1          5.2428   -2.0303   -0.4280 O.2       1 <0>        -0.5234
     21 N2          3.6660   -0.5863    0.0608 N.am      1 <0>        -0.6636
     22 H2         -0.9584    1.9016    0.0259 H         1 <0>         0.1335
     23 H3          1.1598    3.1584   -0.0064 H         1 <0>         0.1345
     24 H4          3.3016    1.9714    0.0076 H         1 <0>         0.1356
     25 H5         -0.9274   -0.5540    0.0114 H         1 <0>         0.1274
     26 H6          2.9973   -5.5236   -1.8490 H         1 <0>         0.1433
     27 H7         -0.1141   -7.5852    0.2239 H         1 <0>         0.1348
     28 H8         -1.0196   -5.4824    1.1528 H         1 <0>         0.1402
     29 H9          3.7892   -3.2143   -2.0334 H         1 <0>         0.1154
     30 H10         2.8897   -1.7104   -2.3693 H         1 <0>         0.1052
     31 H11         4.3030   -0.1787    0.6682 H         1 <0>         0.4064
@<TRIPOS>BOND
     1    1    6 ar
     2    1    2 ar
     3    1   22 1
     4    2    3 ar
     5    2   23 1
     6    3    4 ar
     7    3   24 1
     8    4   21 1
     9    4    5 ar
    10    5    6 ar
    11    5    7 1
    12    6   25 1
    13    7   15 1
    14    7    8 2
    15    8    9 1
    16    8   18 1
    17    9   14 ar
    18    9   10 ar
    19   10   11 ar
    20   10   26 1
    21   11   12 ar
    22   11   17 1
    23   12   13 ar
    24   12   27 1
    25   13   14 ar
    26   13   28 1
    27   14   15 1
    28   15   16 1
    29   18   19 1
    30   18   29 1
    31   18   30 1
    32   19   20 2
    33   19   21 am
    34   21   31 1
@<TRIPOS>MOLECULE
ZINC02047389
   35    37     0     0     0
SMALL
USER_CHARGES
4-(2-amino-4-methyl-thiazol-5-yl)-N-(3-nitrophenyl)-pyrimidin-2-amine
@<TRIPOS>ATOM
      1 C1         -0.3352    9.7451    0.3855 C.3       1 <0>        -0.0905
      2 C2          1.0683   10.2863    0.4765 C.2       1 <0>         0.1892
      3 C3          2.1516    9.4456    0.4437 C.2       1 <0>        -0.2443
      4 S1          3.4879   10.6229    0.5913 S.3       1 <0>         0.0803
      5 C4          2.5163   12.0599    0.6693 C.2       1 <0>         0.3677
      6 N1          1.2883   11.5754    0.5891 N.2       1 <0>        -0.5897
      7 N2          2.9227   13.3752    0.7905 N.pl3     1 <0>        -0.7863
      8 C5          2.1999    7.9776    0.3258 C.ar      1 <0>         0.3332
      9 C6          3.4297    7.3038    0.3117 C.ar      1 <0>        -0.2707
     10 C7          3.4239    5.9278    0.2000 C.ar      1 <0>         0.2012
     11 N3          2.2663    5.2881    0.1154 N.ar      1 <0>        -0.5701
     12 C8          1.1176    5.9489    0.1256 C.ar      1 <0>         0.5646
     13 N4          1.0742    7.2675    0.2311 N.ar      1 <0>        -0.5547
     14 N5         -0.0691    5.2405    0.0290 N.pl3     1 <0>        -0.6363
     15 C9         -0.0510    3.8425    0.0333 C.ar      1 <0>         0.1760
     16 C10        -0.9835    3.1319   -0.7120 C.ar      1 <0>        -0.1004
     17 C11        -0.9631    1.7513   -0.7052 C.ar      1 <0>        -0.0922
     18 C12        -0.0158    1.0757    0.0425 C.ar      1 <0>        -0.0777
     19 C13         0.9104    1.7799    0.7896 C.ar      1 <0>        -0.0222
     20 C14         0.8989    3.1611    0.7830 C.ar      1 <0>        -0.0570
     21 N6          1.9186    1.0527    1.5932 N.pl3     1 <0>         0.0280
     22 O1          1.9320   -0.1652    1.5961 O.2       1 <0>        -0.1580
     23 O2          2.7348    1.6723    2.2515 O.3       1 <0>        -0.1552
     24 H1         -0.7077    9.5307    1.3872 H         1 <0>         0.0791
     25 H2         -0.9794   10.4840   -0.0912 H         1 <0>         0.0712
     26 H3         -0.3338    8.8291   -0.2054 H         1 <0>         0.0997
     27 H4          2.2629   14.0853    0.8267 H         1 <0>         0.4203
     28 H5          3.8677   13.5883    0.8394 H         1 <0>         0.4243
     29 H6          4.3593    7.8485    0.3862 H         1 <0>         0.1461
     30 H7          4.3533    5.3778    0.1861 H         1 <0>         0.1761
     31 H8         -0.9125    5.7144   -0.0416 H         1 <0>         0.4300
     32 H9         -1.7237    3.6588   -1.2958 H         1 <0>         0.1460
     33 H10        -1.6880    1.1983   -1.2841 H         1 <0>         0.1526
     34 H11        -0.0023   -0.0042    0.0464 H         1 <0>         0.1544
     35 H12         1.6253    3.7105    1.3635 H         1 <0>         0.1650
@<TRIPOS>BOND
     1    1    2 1
     2    1   24 1
     3    1   25 1
     4    1   26 1
     5    2    6 1
     6    2    3 2
     7    3    4 1
     8    3    8 1
     9    4    5 1
    10    5    6 2
    11    5    7 1
    12    7   27 1
    13    7   28 1
    14    8   13 ar
    15    8    9 ar
    16    9   10 ar
    17    9   29 1
    18   10   11 ar
    19   10   30 1
    20   11   12 ar
    21   12   13 ar
    22   12   14 1
    23   14   15 1
    24   14   31 1
    25   15   20 ar
    26   15   16 ar
    27   16   17 ar
    28   16   32 1
    29   17   18 ar
    30   17   33 1
    31   18   19 ar
    32   18   34 1
    33   19   20 ar
    34   19   21 1
    35   20   35 1
    36   21   22 2
    37   21   23 1
@<TRIPOS>MOLECULE
ZINC29135178
   25    27     0     0     0
SMALL
USER_CHARGES
4-(1H-pyrrolo[2,3-b]pyridin-3-yl)pyrimidin-2-amine
@<TRIPOS>ATOM
      1 C1          4.7883   -3.7278   -0.0631 C.ar      1 <0>        -0.2023
      2 C2          3.9016   -2.6660   -0.0490 C.ar      1 <0>        -0.0151
      3 C3          2.5371   -2.9514   -0.0434 C.ar      1 <0>        -0.1205
      4 C4          1.3158   -2.1310   -0.0215 C.2       1 <0>        -0.1497
      5 C5          0.2698   -2.9968   -0.0161 C.2       1 <0>         0.1117
      6 N1          0.7325   -4.2781   -0.0274 N.pl3     1 <0>        -0.5825
      7 H1          0.0233   -5.1190   -0.0251 H         1 <0>         0.4533
      8 C6          2.1082   -4.2909   -0.0406 C.ar      1 <0>         0.2883
      9 N2          3.0037   -5.2695   -0.0543 N.ar      1 <0>        -0.4996
     10 C7          4.2967   -5.0233   -0.0653 C.ar      1 <0>         0.1374
     11 C8          1.2420   -0.6541   -0.0133 C.ar      1 <0>         0.3061
     12 C9          0.0021   -0.0041    0.0020 C.ar      1 <0>        -0.2990
     13 C10        -0.0167    1.3771    0.0096 C.ar      1 <0>         0.1981
     14 N3          1.1296    2.0415    0.0022 N.ar      1 <0>        -0.5882
     15 C11         2.2897    1.4014   -0.0123 C.ar      1 <0>         0.5773
     16 N4          2.3546    0.0793   -0.0200 N.ar      1 <0>        -0.5763
     17 N5          3.4640    2.1342   -0.0196 N.pl3     1 <0>        -0.8466
     18 H2          5.8533   -3.5486   -0.0727 H         1 <0>         0.1386
     19 H3          4.2561   -1.6459   -0.0469 H         1 <0>         0.1435
     20 H4         -0.7720   -2.7125   -0.0043 H         1 <0>         0.1869
     21 H5          4.9908   -5.8507   -0.0760 H         1 <0>         0.1618
     22 H6         -0.9182   -0.5693    0.0081 H         1 <0>         0.1401
     23 H7         -0.9560    1.9100    0.0170 H         1 <0>         0.1658
     24 H8          4.4349    1.6172   -0.0316 H         1 <0>         0.4345
     25 H9          3.4263    3.2335   -0.0134 H         1 <0>         0.4365
@<TRIPOS>BOND
     1    1   10 ar
     2    1    2 ar
     3    1   18 1
     4    2    3 ar
     5    2   19 1
     6    3    8 ar
     7    3    4 1
     8    4    5 2
     9    4   11 1
    10    5    6 1
    11    5   20 1
    12    6    7 1
    13    6    8 1
    14    8    9 ar
    15    9   10 ar
    16   10   21 1
    17   11   16 ar
    18   11   12 ar
    19   12   13 ar
    20   12   22 1
    21   13   14 ar
    22   13   23 1
    23   14   15 ar
    24   15   16 ar
    25   15   17 1
    26   17   24 1
    27   17   25 1
@<TRIPOS>MOLECULE
ZINC21288966
   49    52     0     0     0
SMALL
USER_CHARGES
2-(2-chlorophenyl)-5,7-dihydroxy-8-[(3S,4R)-3-hydroxy-1-methyl-4-piperidyl]chromen-4-one
@<TRIPOS>ATOM
      1 C1          6.0895   -0.0238    5.9621 C.3       1 <0>        -0.0460
      2 N1          6.1756    1.0472    4.9603 N.4       1 <0>        -0.3934
      3 C2          5.9739    0.5180    3.6055 C.3       1 <0>        -0.0028
      4 C3          6.2126    1.6289    2.5802 C.3       1 <0>        -0.1464
      5 C4          5.2418    2.7821    2.8491 C.3       1 <0>        -0.0180
      6 H1          4.2050    2.4431    2.7074 H         1 <0>         0.1039
      7 C5          5.4391    3.2830    4.2825 C.3       1 <0>         0.1015
      8 H2          4.7709    4.1271    4.5084 H         1 <0>         0.0941
      9 C6          5.2218    2.1236    5.2574 C.3       1 <0>        -0.0361
     10 O1          6.7669    3.7898    4.4323 O.3       1 <0>        -0.5639
     11 C7          5.5132    3.9050    1.8814 C.ar      1 <0>        -0.2158
     12 C8          6.8017    4.3949    1.7322 C.ar      1 <0>         0.2946
     13 C9          7.0678    5.4304    0.8434 C.ar      1 <0>        -0.3049
     14 C10         6.0448    5.9841    0.0956 C.ar      1 <0>         0.3111
     15 C11         4.7411    5.4942    0.2412 C.ar      1 <0>        -0.3649
     16 C12         4.4748    4.4470    1.1407 C.ar      1 <0>         0.2362
     17 O2          3.2147    3.9814    1.2730 O.3       1 <0>        -0.2171
     18 C13         2.1871    4.4838    0.5705 C.2       1 <0>         0.1982
     19 C14         2.3394    5.4926   -0.3277 C.2       1 <0>        -0.2780
     20 C15         3.6225    6.0546   -0.5353 C.2       1 <0>         0.4382
     21 O3          3.7953    6.9641   -1.3304 O.2       1 <0>        -0.4786
     22 C16         0.8407    3.9147    0.7769 C.ar      1 <0>        -0.0680
     23 C17         0.6478    2.5322    0.7263 C.ar      1 <0>        -0.0708
     24 C18        -0.6124    2.0073    0.9205 C.ar      1 <0>        -0.1159
     25 C19        -1.6867    2.8467    1.1599 C.ar      1 <0>        -0.0780
     26 C20        -1.5036    4.2164    1.2169 C.ar      1 <0>        -0.1066
     27 C21        -0.2472    4.7566    1.0243 C.ar      1 <0>        -0.0057
     28 Cl1        -0.0199    6.4765    1.0889 Cl        1 <0>        -0.0424
     29 O4          6.3024    6.9947   -0.7728 O.3       1 <0>        -0.4999
     30 O5          7.8133    3.8585    2.4614 O.3       1 <0>        -0.4665
     31 H3          6.8128   -0.8151    5.7159 H         1 <0>         0.1242
     32 H4          5.0728   -0.4438    5.9634 H         1 <0>         0.1169
     33 H5          6.3184    0.3856    6.9571 H         1 <0>         0.1225
     34 H6          6.6809   -0.3050    3.4243 H         1 <0>         0.1308
     35 H7          4.9438    0.1448    3.5072 H         1 <0>         0.1211
     36 H8          7.2477    1.9910    2.6662 H         1 <0>         0.1216
     37 H9          6.0450    1.2349    1.5669 H         1 <0>         0.1057
     38 H10         4.1951    1.7434    5.1512 H         1 <0>         0.1298
     39 H11         5.3771    2.4772    6.2874 H         1 <0>         0.1312
     40 H12         7.0946    4.1958    5.4007 H         1 <0>         0.4106
     41 H13         8.0758    5.8030    0.7365 H         1 <0>         0.1471
     42 H14         1.4871    5.8659   -0.8759 H         1 <0>         0.1670
     43 H15         1.4839    1.8757    0.5352 H         1 <0>         0.1384
     44 H16        -0.7625    0.9385    0.8812 H         1 <0>         0.1407
     45 H17        -2.6721    2.4298    1.3071 H         1 <0>         0.1438
     46 H18        -2.3456    4.8651    1.4082 H         1 <0>         0.1476
     47 H19         5.4855    7.4321   -1.3656 H         1 <0>         0.4556
     48 H20         8.8375    4.2431    2.3473 H         1 <0>         0.4397
     49 H21         7.1882    1.4744    5.0059 H         1 <0>         0.4481
@<TRIPOS>BOND
     1    1    2 1
     2    1   31 1
     3    1   32 1
     4    1   33 1
     5    2    9 1
     6    2    3 1
     7    2   49 1
     8    3    4 1
     9    3   34 1
    10    3   35 1
    11    4    5 1
    12    4   36 1
    13    4   37 1
    14    5    6 1
    15    5    7 1
    16    5   11 1
    17    7    8 1
    18    7    9 1
    19    7   10 1
    20    9   38 1
    21    9   39 1
    22   10   40 1
    23   11   16 ar
    24   11   12 ar
    25   12   13 ar
    26   12   30 1
    27   13   14 ar
    28   13   41 1
    29   14   15 ar
    30   14   29 1
    31   15   20 1
    32   15   16 ar
    33   16   17 1
    34   17   18 1
    35   18   19 2
    36   18   22 1
    37   19   20 1
    38   19   42 1
    39   20   21 2
    40   22   27 ar
    41   22   23 ar
    42   23   24 ar
    43   23   43 1
    44   24   25 ar
    45   24   44 1
    46   25   26 ar
    47   25   45 1
    48   26   27 ar
    49   26   46 1
    50   27   28 1
    51   29   47 1
    52   30   48 1
@<TRIPOS>MOLECULE
ZINC01626613
   31    34     0     0     0
SMALL
USER_CHARGES
BLAHone
@<TRIPOS>ATOM
      1 C1          6.4967   -0.9421   -0.8454 C.ar      1 <0>        -0.1467
      2 C2          5.9357   -1.9084   -0.0262 C.ar      1 <0>        -0.0933
      3 C3          4.6611   -1.7834    0.4998 C.ar      1 <0>        -0.1325
      4 C4          3.9522   -0.6302    0.1700 C.ar      1 <0>         0.1086
      5 C5          4.5327    0.3577   -0.6680 C.ar      1 <0>        -0.0995
      6 C6          5.8231    0.2043   -1.1875 C.ar      1 <0>        -0.0629
      7 C7          3.5439    1.4059   -0.7996 C.2       1 <0>        -0.1530
      8 C8          2.4518    1.0187   -0.0942 C.2       1 <0>         0.1194
      9 N1          2.7010   -0.1993    0.5073 N.pl3     1 <0>        -0.5819
     10 H1          2.0818   -0.6759    1.0820 H         1 <0>         0.4182
     11 C9          1.1918    1.7883    0.0003 C.ar      1 <0>        -0.0549
     12 C10        -0.0126    1.0758    0.0080 C.ar      1 <0>        -0.0862
     13 C11        -1.2168    1.7447    0.0173 C.ar      1 <0>        -0.1257
     14 C12        -1.2361    3.1290    0.0278 C.ar      1 <0>        -0.0855
     15 C13        -0.0569    3.8412    0.0344 C.ar      1 <0>        -0.1399
     16 C14         1.1754    3.1828    0.0363 C.ar      1 <0>         0.1769
     17 N2          2.3138    3.9654    0.0978 N.am      1 <0>        -0.6637
     18 C15         3.4550    3.8280   -0.5739 C.2       1 <0>         0.5313
     19 O1          4.3479    4.6280   -0.3902 O.2       1 <0>        -0.5257
     20 C16         3.6669    2.7041   -1.5578 C.3       1 <0>        -0.0619
     21 H2          7.4953   -1.0956   -1.2270 H         1 <0>         0.1217
     22 H3          6.5128   -2.7903    0.2100 H         1 <0>         0.1238
     23 H4          4.2357   -2.5451    1.1365 H         1 <0>         0.1299
     24 H5          6.2679    0.9522   -1.8272 H         1 <0>         0.1326
     25 H6          0.0021   -0.0041    0.0020 H         1 <0>         0.1269
     26 H7         -2.1438    1.1905    0.0202 H         1 <0>         0.1328
     27 H8         -2.1804    3.6532    0.0267 H         1 <0>         0.1339
     28 H9         -0.0853    4.9209    0.0378 H         1 <0>         0.1350
     29 H10         2.2759    4.7145    0.7129 H         1 <0>         0.4055
     30 H11         2.9087    2.7491   -2.3397 H         1 <0>         0.1027
     31 H12         4.6598    2.7824   -2.0006 H         1 <0>         0.1141
@<TRIPOS>BOND
     1    1    6 ar
     2    1    2 ar
     3    1   21 1
     4    2    3 ar
     5    2   22 1
     6    3    4 ar
     7    3   23 1
     8    4    9 1
     9    4    5 ar
    10    5    6 ar
    11    5    7 1
    12    6   24 1
    13    7   20 1
    14    7    8 2
    15    8    9 1
    16    8   11 1
    17    9   10 1
    18   11   16 ar
    19   11   12 ar
    20   12   13 ar
    21   12   25 1
    22   13   14 ar
    23   13   26 1
    24   14   15 ar
    25   14   27 1
    26   15   16 ar
    27   15   28 1
    28   16   17 1
    29   17   18 am
    30   17   29 1
    31   18   19 2
    32   18   20 1
    33   20   30 1
    34   20   31 1
@<TRIPOS>MOLECULE
ZINC34285231
   52    54     0     0     0
SMALL
USER_CHARGES

@<TRIPOS>ATOM
      1 C1         -0.0187    1.5258    0.0104 C.3       1 <0>        -0.1545
      2 C2          0.0021   -0.0041    0.0020 C.3       1 <0>        -0.1280
      3 C3         -1.4333   -0.5336    0.0129 C.3       1 <0>         0.1630
      4 H1         -1.9701   -0.1109    0.8621 H         1 <0>         0.1040
      5 C4         -1.4133   -2.0590    0.1302 C.3       1 <0>         0.0627
      6 O1         -0.6117   -2.6069   -0.9183 O.3       1 <0>        -0.5682
      7 N1         -2.1054   -0.1483   -1.2305 N.pl3     1 <0>        -0.6685
      8 C5         -3.4818   -0.0368   -1.2657 C.2       1 <0>         0.6288
      9 N2         -4.0765    0.3062   -2.3943 N.2       1 <0>        -0.6023
     10 C6         -5.4147    0.4181   -2.4417 C.2       1 <0>         0.3487
     11 C7         -6.3090    0.7497   -3.4432 C.2       1 <0>        -0.2518
     12 C8         -7.5879    0.7004   -2.8982 C.2       1 <0>         0.1207
     13 N3         -7.4995    0.3591   -1.6342 N.2       1 <0>        -0.3263
     14 N4         -6.1527    0.1732   -1.3098 N.pl3     1 <0>        -0.3982
     15 C9         -5.5043   -0.1797   -0.1574 C.2       1 <0>         0.6978
     16 N5         -4.1895   -0.2832   -0.1581 N.2       1 <0>        -0.6304
     17 N6         -6.2162   -0.4298    0.9868 N.pl3     1 <0>        -0.6761
     18 C10        -5.5163   -0.8071    2.2173 C.3       1 <0>         0.1775
     19 C11        -6.5204   -1.0246    3.3198 C.ar      1 <0>        -0.1209
     20 C12        -6.8998    0.0313    4.1273 C.ar      1 <0>        -0.0954
     21 C13        -7.8208   -0.1682    5.1387 C.ar      1 <0>        -0.1214
     22 C14        -8.3628   -1.4235    5.3422 C.ar      1 <0>        -0.1051
     23 C15        -7.9841   -2.4792    4.5341 C.ar      1 <0>        -0.1215
     24 C16        -7.0663   -2.2787    3.5200 C.ar      1 <0>        -0.0957
     25 C17        -5.9610    1.1008   -4.8669 C.3       1 <0>        -0.0041
     26 C18        -6.6326    0.1063   -5.8161 C.3       1 <0>        -0.1409
     27 C19        -6.4537    2.5154   -5.1783 C.3       1 <0>        -0.1408
     28 H2          1.0039    1.9031    0.0027 H         1 <0>         0.0585
     29 H3         -0.5459    1.8868   -0.8726 H         1 <0>         0.0558
     30 H4         -0.5289    1.8773    0.9072 H         1 <0>         0.0538
     31 H5          0.5123   -0.3556   -0.8948 H         1 <0>         0.0791
     32 H6          0.5293   -0.3651    0.8851 H         1 <0>         0.0797
     33 H7         -0.9936   -2.3437    1.0951 H         1 <0>         0.0554
     34 H8         -2.4301   -2.4431    0.0488 H         1 <0>         0.0493
     35 H9         -0.5540   -3.5721   -0.9058 H         1 <0>         0.3796
     36 H10        -1.5839    0.0285   -2.0291 H         1 <0>         0.4204
     37 H11        -8.5048    0.9094   -3.4292 H         1 <0>         0.1935
     38 H12        -7.1835   -0.3569    0.9819 H         1 <0>         0.4251
     39 H13        -4.9563   -1.7270    2.0492 H         1 <0>         0.0857
     40 H14        -4.8294   -0.0107    2.5033 H         1 <0>         0.0865
     41 H15        -6.4763    1.0120    3.9683 H         1 <0>         0.1249
     42 H16        -8.1166    0.6566    5.7700 H         1 <0>         0.1265
     43 H17        -9.0818   -1.5795    6.1328 H         1 <0>         0.1258
     44 H18        -8.4073   -3.4599    4.6933 H         1 <0>         0.1264
     45 H19        -6.7732   -3.1027    2.8863 H         1 <0>         0.1244
     46 H20        -4.8799    1.0553   -4.9985 H         1 <0>         0.0793
     47 H21        -7.7137    0.1518   -5.6845 H         1 <0>         0.0525
     48 H22        -6.3809    0.3603   -6.8458 H         1 <0>         0.0551
     49 H23        -6.2816   -0.9015   -5.5942 H         1 <0>         0.0509
     50 H24        -7.5347    2.5609   -5.0467 H         1 <0>         0.0525
     51 H25        -5.9752    3.2238   -4.5021 H         1 <0>         0.0510
     52 H26        -6.2020    2.7693   -6.2080 H         1 <0>         0.0551
@<TRIPOS>BOND
     1    1    2 1
     2    1   28 1
     3    1   29 1
     4    1   30 1
     5    2    3 1
     6    2   31 1
     7    2   32 1
     8    3    4 1
     9    3    5 1
    10    3    7 1
    11    5    6 1
    12    5   33 1
    13    5   34 1
    14    6   35 1
    15    7    8 1
    16    7   36 1
    17    8   16 1
    18    8    9 2
    19    9   10 1
    20   10   14 1
    21   10   11 2
    22   11   12 1
    23   11   25 1
    24   12   13 2
    25   12   37 1
    26   13   14 1
    27   14   15 1
    28   15   16 2
    29   15   17 1
    30   17   18 1
    31   17   38 1
    32   18   19 1
    33   18   39 1
    34   18   40 1
    35   19   24 ar
    36   19   20 ar
    37   20   21 ar
    38   20   41 1
    39   21   22 ar
    40   21   42 1
    41   22   23 ar
    42   22   43 1
    43   23   24 ar
    44   23   44 1
    45   24   45 1
    46   25   26 1
    47   25   27 1
    48   25   46 1
    49   26   47 1
    50   26   48 1
    51   26   49 1
    52   27   50 1
    53   27   51 1
    54   27   52 1
@<TRIPOS>MOLECULE
ZINC34285231
   53    55     0     0     0
SMALL
USER_CHARGES

@<TRIPOS>ATOM
      1 C1         -0.0187    1.5258    0.0104 C.3       1 <0>        -0.1599
      2 C2          0.0021   -0.0041    0.0020 C.3       1 <0>        -0.1329
      3 C3          0.7182   -0.4975   -1.2568 C.3       1 <0>         0.1492
      4 H1          0.2444   -0.0644   -2.1377 H         1 <0>         0.1233
      5 C4          0.6303   -2.0233   -1.3286 C.3       1 <0>         0.0599
      6 O1          1.1463   -2.5875   -0.1213 O.3       1 <0>        -0.5719
      7 N1          2.1249   -0.0911   -1.2094 N.pl3     1 <0>        -0.6393
      8 C5          2.8415    0.0551   -2.3812 C.cat     1 <0>         0.6985
      9 N2          4.1107    0.4168   -2.3250 N.pl3     1 <0>        -0.5861
     10 C6          4.8187    0.5629   -3.4577 C.2       1 <0>         0.2789
     11 C7          6.1276    0.9208   -3.7247 C.2       1 <0>        -0.1688
     12 C8          6.2954    0.9020   -5.1055 C.2       1 <0>         0.1389
     13 N3          5.1619    0.5540   -5.6677 N.2       1 <0>        -0.2512
     14 N4          4.2110    0.3327   -4.6675 N.pl3     1 <0>        -0.3824
     15 C9          2.8945   -0.0408   -4.6893 C.2       1 <0>         0.7284
     16 N5          2.2397   -0.1773   -3.5527 N.2       1 <0>        -0.5902
     17 N6          2.2633   -0.2770   -5.8828 N.pl3     1 <0>        -0.6254
     18 C10         0.8539   -0.6766   -5.8995 C.3       1 <0>         0.1617
     19 C11         0.4042   -0.8726   -7.3244 C.ar      1 <0>        -0.1405
     20 C12        -0.1224    0.1896   -8.0353 C.ar      1 <0>        -0.0920
     21 C13        -0.5350    0.0099   -9.3423 C.ar      1 <0>        -0.1186
     22 C14        -0.4205   -1.2320   -9.9386 C.ar      1 <0>        -0.0926
     23 C15         0.1070   -2.2940   -9.2281 C.ar      1 <0>        -0.1188
     24 C16         0.5235   -2.1131   -7.9224 C.ar      1 <0>        -0.0923
     25 C17         7.1811    1.2682   -2.7047 C.3       1 <0>        -0.0224
     26 C18         8.3546    0.2947   -2.8317 C.3       1 <0>        -0.1502
     27 C19         7.6745    2.6961   -2.9470 C.3       1 <0>        -0.1502
     28 H2          1.0039    1.9031    0.0027 H         1 <0>         0.0492
     29 H3         -0.5459    1.8868   -0.8726 H         1 <0>         0.0602
     30 H4         -0.5289    1.8773    0.9072 H         1 <0>         0.0702
     31 H5          0.5293   -0.3651    0.8851 H         1 <0>         0.0869
     32 H6         -1.0205   -0.3814    0.0098 H         1 <0>         0.0973
     33 H7         -0.4106   -2.3218   -1.4533 H         1 <0>         0.0744
     34 H8          1.2150   -2.3814   -2.1759 H         1 <0>         0.0536
     35 H9          1.1218   -3.5538   -0.0969 H         1 <0>         0.3922
     36 H10         2.5531    0.0754   -0.3551 H         1 <0>         0.4320
     37 H11         7.2101    1.1363   -5.6298 H         1 <0>         0.2224
     38 H12         2.7497   -0.1796   -6.7163 H         1 <0>         0.4391
     39 H13         0.7343   -1.6098   -5.3491 H         1 <0>         0.1029
     40 H14         0.2502    0.1011   -5.4316 H         1 <0>         0.1038
     41 H15        -0.2119    1.1598   -7.5693 H         1 <0>         0.1263
     42 H16        -0.9471    0.8396   -9.8975 H         1 <0>         0.1316
     43 H17        -0.7434   -1.3726  -10.9596 H         1 <0>         0.1316
     44 H18         0.1961   -3.2643   -9.6939 H         1 <0>         0.1314
     45 H19         0.9390   -2.9419   -7.3685 H         1 <0>         0.1259
     46 H20         6.7557    1.1958   -1.7038 H         1 <0>         0.0766
     47 H21         8.7801    0.3671   -3.8326 H         1 <0>         0.0657
     48 H22         9.1166    0.5460   -2.0939 H         1 <0>         0.0725
     49 H23         8.0032   -0.7225   -2.6590 H         1 <0>         0.0574
     50 H24         6.8385    3.3896   -2.8566 H         1 <0>         0.0574
     51 H25         8.4365    2.9473   -2.2093 H         1 <0>         0.0725
     52 H26         8.1000    2.7685   -3.9480 H         1 <0>         0.0657
     53 H27         4.5317    0.5774   -1.4660 H         1 <0>         0.4483
@<TRIPOS>BOND
     1    1    2 1
     2    1   28 1
     3    1   29 1
     4    1   30 1
     5    2    3 1
     6    2   31 1
     7    2   32 1
     8    3    4 1
     9    3    5 1
    10    3    7 1
    11    5    6 1
    12    5   33 1
    13    5   34 1
    14    6   35 1
    15    7    8 1
    16    7   36 1
    17    8   16 1
    18    8    9 2
    19    9   10 1
    20    9   53 1
    21   10   14 1
    22   10   11 2
    23   11   12 1
    24   11   25 1
    25   12   13 2
    26   12   37 1
    27   13   14 1
    28   14   15 1
    29   15   16 2
    30   15   17 1
    31   17   18 1
    32   17   38 1
    33   18   19 1
    34   18   39 1
    35   18   40 1
    36   19   24 ar
    37   19   20 ar
    38   20   21 ar
    39   20   41 1
    40   21   22 ar
    41   21   42 1
    42   22   23 ar
    43   22   43 1
    44   23   24 ar
    45   23   44 1
    46   24   45 1
    47   25   26 1
    48   25   27 1
    49   25   46 1
    50   26   47 1
    51   26   48 1
    52   26   49 1
    53   27   50 1
    54   27   51 1
    55   27   52 1
@<TRIPOS>MOLECULE
ZINC03950132
   46    49     0     0     0
SMALL
USER_CHARGES
4-(2-amino-4-methyl-thiazol-5-yl)-N-(4-morpholinophenyl)-pyrimidin-2-amine
@<TRIPOS>ATOM
      1 C1          4.1560   -0.7976    0.1288 C.3       1 <0>        -0.0903
      2 C2          5.0273    0.0086   -0.7995 C.2       1 <0>         0.1857
      3 C3          4.5164    1.0708   -1.5011 C.2       1 <0>        -0.2392
      4 S1          5.9673    1.6025   -2.3985 S.3       1 <0>         0.0763
      5 C4          7.0692    0.4161   -1.7712 C.2       1 <0>         0.3657
      6 N1          6.2965   -0.2857   -0.9592 N.2       1 <0>        -0.5890
      7 N2          8.4111    0.2448   -2.0535 N.pl3     1 <0>        -0.7876
      8 C5          3.1483    1.6180   -1.5155 C.ar      1 <0>         0.3312
      9 C6          2.8322    2.7257   -2.3152 C.ar      1 <0>        -0.2802
     10 C7          1.5368    3.2027   -2.2949 C.ar      1 <0>         0.1966
     11 N3          0.6368    2.6054   -1.5271 N.ar      1 <0>        -0.5647
     12 C8          0.9611    1.5596   -0.7803 C.ar      1 <0>         0.5701
     13 N4          2.1912    1.0711   -0.7636 N.ar      1 <0>        -0.5604
     14 N5         -0.0111    0.9658    0.0074 N.pl3     1 <0>        -0.6370
     15 C9         -1.2863    1.5388    0.0969 C.ar      1 <0>         0.1437
     16 C10        -1.4323    2.9189    0.0487 C.ar      1 <0>        -0.0851
     17 C11        -2.6897    3.4834    0.1313 C.ar      1 <0>        -0.1473
     18 C12        -3.8073    2.6715    0.2739 C.ar      1 <0>         0.0899
     19 C13        -3.6607    1.2916    0.3278 C.ar      1 <0>        -0.1158
     20 C14        -2.4038    0.7269    0.2395 C.ar      1 <0>        -0.1224
     21 N6         -5.0813    3.2440    0.3639 N.pl3     1 <0>        -0.4867
     22 C15        -5.9729    2.7112   -0.6765 C.3       1 <0>         0.0197
     23 C16        -7.3681    3.3176   -0.5049 C.3       1 <0>         0.0614
     24 O1         -7.2718    4.7437   -0.5527 O.3       1 <0>        -0.3833
     25 C17        -6.4117    5.2965    0.4473 C.3       1 <0>         0.0618
     26 C18        -5.0068    4.7101    0.2853 C.3       1 <0>         0.0127
     27 H1          3.7021   -1.6212   -0.4225 H         1 <0>         0.0783
     28 H2          4.7625   -1.1956    0.9423 H         1 <0>         0.0703
     29 H3          3.3730   -0.1593    0.5381 H         1 <0>         0.1010
     30 H4          8.9087   -0.4711   -1.6283 H         1 <0>         0.4198
     31 H5          8.8554    0.8405   -2.6769 H         1 <0>         0.4237
     32 H6          3.5844    3.1948   -2.9320 H         1 <0>         0.1421
     33 H7          1.2595    4.0540   -2.8990 H         1 <0>         0.1715
     34 H8          0.1898    0.1510    0.4938 H         1 <0>         0.4230
     35 H9         -0.5628    3.5505   -0.0578 H         1 <0>         0.1350
     36 H10        -2.8037    4.5566    0.0890 H         1 <0>         0.1283
     37 H11        -4.5298    0.6602    0.4391 H         1 <0>         0.1282
     38 H12        -2.2898   -0.3462    0.2811 H         1 <0>         0.1273
     39 H13        -5.5813    2.9716   -1.6599 H         1 <0>         0.0534
     40 H14        -6.0334    1.6268   -0.5837 H         1 <0>         0.0927
     41 H15        -7.7817    3.0127    0.4564 H         1 <0>         0.0622
     42 H16        -8.0182    2.9696   -1.3076 H         1 <0>         0.1028
     43 H17        -6.7975    5.0492    1.4363 H         1 <0>         0.0619
     44 H18        -6.3694    6.3797    0.3336 H         1 <0>         0.1028
     45 H19        -4.3621    5.0849    1.0802 H         1 <0>         0.0937
     46 H20        -4.5990    5.0025   -0.6823 H         1 <0>         0.0563
@<TRIPOS>BOND
     1    1    2 1
     2    1   27 1
     3    1   28 1
     4    1   29 1
     5    2    6 1
     6    2    3 2
     7    3    4 1
     8    3    8 1
     9    4    5 1
    10    5    6 2
    11    5    7 1
    12    7   30 1
    13    7   31 1
    14    8   13 ar
    15    8    9 ar
    16    9   10 ar
    17    9   32 1
    18   10   11 ar
    19   10   33 1
    20   11   12 ar
    21   12   13 ar
    22   12   14 1
    23   14   15 1
    24   14   34 1
    25   15   20 ar
    26   15   16 ar
    27   16   17 ar
    28   16   35 1
    29   17   18 ar
    30   17   36 1
    31   18   19 ar
    32   18   21 1
    33   19   20 ar
    34   19   37 1
    35   20   38 1
    36   21   26 1
    37   21   22 1
    38   22   23 1
    39   22   39 1
    40   22   40 1
    41   23   24 1
    42   23   41 1
    43   23   42 1
    44   24   25 1
    45   25   26 1
    46   25   43 1
    47   25   44 1
    48   26   45 1
    49   26   46 1
@<TRIPOS>MOLECULE
ZINC23247639
   69    72     0     0     0
SMALL
USER_CHARGES
1-[4-[(4-ethylpiperazin-1-yl)methyl]-3-(trifluoromethyl)phenyl]-3-[4-(6-methylaminopyrimidin-4-yl)oxyphenyl]urea
@<TRIPOS>ATOM
      1 C1          8.9417    3.3719    8.2172 C.3       1 <0>        -0.1901
      2 C2         10.1498    2.9102    7.3997 C.3       1 <0>        -0.0070
      3 N1          9.9972    3.3533    6.0075 N.4       1 <0>        -0.4011
      4 C3         11.2367    3.1387    5.2477 C.3       1 <0>         0.0016
      5 C4         11.0629    3.6845    3.8284 C.3       1 <0>         0.0271
      6 N2          9.9288    3.0094    3.1822 N.3       1 <0>        -0.5300
      7 C5          8.6893    3.2240    3.9420 C.3       1 <0>         0.0232
      8 C6          8.8631    2.6781    5.3612 C.3       1 <0>        -0.0016
      9 C7          9.7762    3.4524    1.7899 C.3       1 <0>         0.0786
     10 C8          8.7879    2.5601    1.0842 C.ar      1 <0>        -0.0666
     11 C9          7.5022    3.0092    0.8434 C.ar      1 <0>        -0.0932
     12 C10         6.5958    2.1959    0.1923 C.ar      1 <0>        -0.0888
     13 C11         6.9731    0.9214   -0.2106 C.ar      1 <0>         0.1880
     14 C12         8.2646    0.4735    0.0326 C.ar      1 <0>        -0.1043
     15 C13         9.1683    1.2940    0.6793 C.ar      1 <0>        -0.1369
     16 C14        10.5702    0.8086    0.9441 C.3       1 <0>         0.5111
     17 F1         10.7250   -0.4786    0.4184 F         1 <0>        -0.1776
     18 F2         11.4860    1.6739    0.3362 F         1 <0>        -0.1774
     19 F3         10.8008    0.7797    2.3237 F         1 <0>        -0.1628
     20 N3          6.0552    0.0926   -0.8655 N.am      1 <0>        -0.6979
     21 C15         4.7513    0.1311   -0.5266 C.2       1 <0>         0.7117
     22 O1          4.3858    0.8194    0.4067 O.2       1 <0>        -0.5623
     23 N4          3.8526   -0.5934   -1.2222 N.am      1 <0>        -0.6900
     24 C16         2.4863   -0.4790   -0.9335 C.ar      1 <0>         0.1635
     25 C17         1.5516   -0.5518   -1.9576 C.ar      1 <0>        -0.1265
     26 C18         0.2052   -0.4394   -1.6724 C.ar      1 <0>        -0.0923
     27 C19        -0.2137   -0.2543   -0.3628 C.ar      1 <0>         0.0841
     28 C20         0.7198   -0.1815    0.6609 C.ar      1 <0>        -0.0957
     29 C21         2.0665   -0.2932    0.3769 C.ar      1 <0>        -0.1058
     30 O2         -1.5393   -0.1385   -0.0833 O.3       1 <0>        -0.2424
     31 C22        -2.3129   -1.2454   -0.1983 C.ar      1 <0>         0.3836
     32 C23        -3.6894   -1.1637   -0.0277 C.ar      1 <0>        -0.3134
     33 C24        -4.4409   -2.3284   -0.1601 C.ar      1 <0>         0.4631
     34 N5         -3.8165   -3.4721   -0.4341 N.ar      1 <0>        -0.5936
     35 C25        -2.5082   -3.5081   -0.5840 C.ar      1 <0>         0.3760
     36 N6         -1.7644   -2.4263   -0.4707 N.ar      1 <0>        -0.6039
     37 N7         -5.8178   -2.2988   -0.0034 N.pl3     1 <0>        -0.7218
     38 C26        -6.4937   -1.0344    0.2979 C.3       1 <0>         0.0891
     39 H1          9.0560    3.0401    9.2597 H         1 <0>         0.1066
     40 H2          8.0243    2.9380    7.7928 H         1 <0>         0.0798
     41 H3          8.8763    4.4695    8.1868 H         1 <0>         0.0803
     42 H4         11.0672    3.3441    7.8241 H         1 <0>         0.1306
     43 H5         10.2153    1.8126    7.4301 H         1 <0>         0.1269
     44 H6         12.0665    3.6630    5.7442 H         1 <0>         0.1361
     45 H7         11.4577    2.0621    5.2031 H         1 <0>         0.1357
     46 H8         10.8699    4.7665    3.8728 H         1 <0>         0.0625
     47 H9         11.9796    3.4990    3.2494 H         1 <0>         0.1239
     48 H10         8.4684    4.3007    3.9867 H         1 <0>         0.0621
     49 H11         7.8594    2.6998    3.4455 H         1 <0>         0.1239
     50 H12         9.0569    1.5962    5.3178 H         1 <0>         0.1351
     51 H13         7.9470    2.8635    5.9412 H         1 <0>         0.1359
     52 H14         9.4106    4.4897    1.7732 H         1 <0>         0.0663
     53 H15        10.7489    3.3982    1.2791 H         1 <0>         0.1073
     54 H16         7.2082    3.9988    1.1607 H         1 <0>         0.1358
     55 H17         5.5933    2.5489    0.0003 H         1 <0>         0.1466
     56 H18         8.5625   -0.5152   -0.2838 H         1 <0>         0.1447
     57 H19         6.3979   -0.5903   -1.6569 H         1 <0>         0.4387
     58 H20         4.1917   -1.2745   -2.0166 H         1 <0>         0.4355
     59 H21         1.8775   -0.6959   -2.9771 H         1 <0>         0.1334
     60 H22        -0.5220   -0.4960   -2.4689 H         1 <0>         0.1303
     61 H23         0.3932   -0.0371    1.6801 H         1 <0>         0.1327
     62 H24         2.7931   -0.2369    1.1740 H         1 <0>         0.1442
     63 H25        -4.1646   -0.2205    0.1982 H         1 <0>         0.1466
     64 H26        -2.0315   -4.4515   -0.8058 H         1 <0>         0.2000
     65 H27        -6.4030   -3.2246   -0.1053 H         1 <0>         0.4376
     66 H28        -7.5762   -1.2091    0.3856 H         1 <0>         0.0864
     67 H29        -6.3028   -0.3146   -0.5117 H         1 <0>         0.0603
     68 H30        -6.1096   -0.6302    1.2461 H         1 <0>         0.0599
     69 H31         9.7882    4.4332    6.0188 H         1 <0>         0.4364
@<TRIPOS>BOND
     1    1    2 1
     2    1   39 1
     3    1   40 1
     4    1   41 1
     5    2    3 1
     6    2   42 1
     7    2   43 1
     8    3    8 1
     9    3    4 1
    10    3   69 1
    11    4    5 1
    12    4   44 1
    13    4   45 1
    14    5    6 1
    15    5   46 1
    16    5   47 1
    17    6    7 1
    18    6    9 1
    19    7    8 1
    20    7   48 1
    21    7   49 1
    22    8   50 1
    23    8   51 1
    24    9   10 1
    25    9   52 1
    26    9   53 1
    27   10   15 ar
    28   10   11 ar
    29   11   12 ar
    30   11   54 1
    31   12   13 ar
    32   12   55 1
    33   13   14 ar
    34   13   20 1
    35   14   15 ar
    36   14   56 1
    37   15   16 1
    38   16   17 1
    39   16   18 1
    40   16   19 1
    41   20   21 am
    42   20   57 1
    43   21   22 2
    44   21   23 am
    45   23   24 1
    46   23   58 1
    47   24   29 ar
    48   24   25 ar
    49   25   26 ar
    50   25   59 1
    51   26   27 ar
    52   26   60 1
    53   27   28 ar
    54   27   30 1
    55   28   29 ar
    56   28   61 1
    57   29   62 1
    58   30   31 1
    59   31   36 ar
    60   31   32 ar
    61   32   33 ar
    62   32   63 1
    63   33   34 ar
    64   33   37 1
    65   34   35 ar
    66   35   36 ar
    67   35   64 1
    68   37   38 1
    69   37   65 1
    70   38   66 1
    71   38   67 1
    72   38   68 1
@<TRIPOS>MOLECULE
ZINC23247639
   69    72     0     0     0
SMALL
USER_CHARGES
1-[4-[(4-ethylpiperazin-1-yl)methyl]-3-(trifluoromethyl)phenyl]-3-[4-(6-methylaminopyrimidin-4-yl)oxyphenyl]urea
@<TRIPOS>ATOM
      1 C1          8.9417    3.3719    8.2172 C.3       1 <0>        -0.1569
      2 C2         10.1498    2.9102    7.3997 C.3       1 <0>         0.0486
      3 N1          9.9972    3.3533    6.0075 N.3       1 <0>        -0.5379
      4 C3         11.2367    3.1387    5.2477 C.3       1 <0>         0.0250
      5 C4         11.0629    3.6845    3.8284 C.3       1 <0>         0.0004
      6 N2          9.9288    3.0094    3.1822 N.4       1 <0>        -0.4202
      7 C5          8.6893    3.2240    3.9420 C.3       1 <0>        -0.0009
      8 C6          8.8631    2.6781    5.3612 C.3       1 <0>         0.0222
      9 C7          9.7762    3.4524    1.7899 C.3       1 <0>         0.0266
     10 C8          8.7879    2.5601    1.0842 C.ar      1 <0>        -0.1272
     11 C9          7.5022    3.0092    0.8434 C.ar      1 <0>        -0.0630
     12 C10         6.5958    2.1959    0.1923 C.ar      1 <0>        -0.0846
     13 C11         6.9731    0.9214   -0.2106 C.ar      1 <0>         0.2154
     14 C12         8.2646    0.4735    0.0326 C.ar      1 <0>        -0.0955
     15 C13         9.1683    1.2940    0.6793 C.ar      1 <0>        -0.1507
     16 C14        10.5702    0.8086    0.9441 C.3       1 <0>         0.5109
     17 F1         10.7250   -0.4786    0.4184 F         1 <0>        -0.1491
     18 F2         11.4860    1.6739    0.3362 F         1 <0>        -0.1584
     19 F3         10.8008    0.7797    2.3237 F         1 <0>        -0.1724
     20 N3          6.0552    0.0926   -0.8655 N.am      1 <0>        -0.6988
     21 C15         4.7513    0.1311   -0.5266 C.2       1 <0>         0.7114
     22 O1          4.3858    0.8194    0.4067 O.2       1 <0>        -0.5584
     23 N4          3.8526   -0.5934   -1.2222 N.am      1 <0>        -0.6858
     24 C16         2.4863   -0.4790   -0.9335 C.ar      1 <0>         0.1577
     25 C17         1.5516   -0.5518   -1.9576 C.ar      1 <0>        -0.1240
     26 C18         0.2052   -0.4394   -1.6724 C.ar      1 <0>        -0.0926
     27 C19        -0.2137   -0.2543   -0.3628 C.ar      1 <0>         0.0883
     28 C20         0.7198   -0.1815    0.6609 C.ar      1 <0>        -0.0957
     29 C21         2.0665   -0.2932    0.3769 C.ar      1 <0>        -0.1046
     30 O2         -1.5393   -0.1385   -0.0833 O.3       1 <0>        -0.2426
     31 C22        -2.3129   -1.2454   -0.1983 C.ar      1 <0>         0.3832
     32 C23        -3.6894   -1.1637   -0.0277 C.ar      1 <0>        -0.3126
     33 C24        -4.4409   -2.3284   -0.1601 C.ar      1 <0>         0.4635
     34 N5         -3.8165   -3.4721   -0.4341 N.ar      1 <0>        -0.5931
     35 C25        -2.5082   -3.5081   -0.5840 C.ar      1 <0>         0.3762
     36 N6         -1.7644   -2.4263   -0.4707 N.ar      1 <0>        -0.6049
     37 N7         -5.8178   -2.2988   -0.0034 N.pl3     1 <0>        -0.7212
     38 C26        -6.4937   -1.0344    0.2979 C.3       1 <0>         0.0887
     39 H1          9.0560    3.0401    9.2597 H         1 <0>         0.0714
     40 H2          8.0243    2.9380    7.7928 H         1 <0>         0.0562
     41 H3          8.8763    4.4695    8.1868 H         1 <0>         0.0696
     42 H4         11.0672    3.3441    7.8241 H         1 <0>         0.0895
     43 H5         10.2153    1.8126    7.4301 H         1 <0>         0.0455
     44 H6         12.0665    3.6630    5.7442 H         1 <0>         0.1253
     45 H7         11.4577    2.0621    5.2031 H         1 <0>         0.0582
     46 H8         10.8699    4.7665    3.8728 H         1 <0>         0.1369
     47 H9         11.9796    3.4990    3.2494 H         1 <0>         0.1329
     48 H10         8.4684    4.3007    3.9867 H         1 <0>         0.1355
     49 H11         7.8594    2.6998    3.4455 H         1 <0>         0.1312
     50 H12         9.0569    1.5962    5.3178 H         1 <0>         0.0572
     51 H13         7.9470    2.8635    5.9412 H         1 <0>         0.1266
     52 H14         9.4106    4.4897    1.7732 H         1 <0>         0.1472
     53 H15        10.7489    3.3982    1.2791 H         1 <0>         0.1420
     54 H16         7.2082    3.9988    1.1607 H         1 <0>         0.1512
     55 H17         5.5933    2.5489    0.0003 H         1 <0>         0.1583
     56 H18         8.5625   -0.5152   -0.2838 H         1 <0>         0.1556
     57 H19         6.3979   -0.5903   -1.6569 H         1 <0>         0.4440
     58 H20         4.1917   -1.2745   -2.0166 H         1 <0>         0.4371
     59 H21         1.8775   -0.6959   -2.9771 H         1 <0>         0.1338
     60 H22        -0.5220   -0.4960   -2.4689 H         1 <0>         0.1313
     61 H23         0.3932   -0.0371    1.6801 H         1 <0>         0.1341
     62 H24         2.7931   -0.2369    1.1740 H         1 <0>         0.1440
     63 H25        -4.1646   -0.2205    0.1982 H         1 <0>         0.1470
     64 H26        -2.0315   -4.4515   -0.8058 H         1 <0>         0.2001
     65 H27        -6.4030   -3.2246   -0.1053 H         1 <0>         0.4380
     66 H28        -7.5762   -1.2091    0.3856 H         1 <0>         0.0868
     67 H29        -6.3028   -0.3146   -0.5117 H         1 <0>         0.0604
     68 H30        -6.1096   -0.6302    1.2461 H         1 <0>         0.0603
     69 H31        10.1379    1.9295    3.1711 H         1 <0>         0.4253
@<TRIPOS>BOND
     1    1    2 1
     2    1   39 1
     3    1   40 1
     4    1   41 1
     5    2    3 1
     6    2   42 1
     7    2   43 1
     8    3    8 1
     9    3    4 1
    10    4    5 1
    11    4   44 1
    12    4   45 1
    13    5    6 1
    14    5   46 1
    15    5   47 1
    16    6    7 1
    17    6    9 1
    18    6   69 1
    19    7    8 1
    20    7   48 1
    21    7   49 1
    22    8   50 1
    23    8   51 1
    24    9   10 1
    25    9   52 1
    26    9   53 1
    27   10   15 ar
    28   10   11 ar
    29   11   12 ar
    30   11   54 1
    31   12   13 ar
    32   12   55 1
    33   13   14 ar
    34   13   20 1
    35   14   15 ar
    36   14   56 1
    37   15   16 1
    38   16   17 1
    39   16   18 1
    40   16   19 1
    41   20   21 am
    42   20   57 1
    43   21   22 2
    44   21   23 am
    45   23   24 1
    46   23   58 1
    47   24   29 ar
    48   24   25 ar
    49   25   26 ar
    50   25   59 1
    51   26   27 ar
    52   26   60 1
    53   27   28 ar
    54   27   30 1
    55   28   29 ar
    56   28   61 1
    57   29   62 1
    58   30   31 1
    59   31   36 ar
    60   31   32 ar
    61   32   33 ar
    62   32   63 1
    63   33   34 ar
    64   33   37 1
    65   34   35 ar
    66   35   36 ar
    67   35   64 1
    68   37   38 1
    69   37   65 1
    70   38   66 1
    71   38   67 1
    72   38   68 1
@<TRIPOS>MOLECULE
ZINC23247639
   68    71     0     0     0
SMALL
USER_CHARGES
1-[4-[(4-ethylpiperazin-1-yl)methyl]-3-(trifluoromethyl)phenyl]-3-[4-(6-methylaminopyrimidin-4-yl)oxyphenyl]urea
@<TRIPOS>ATOM
      1 C1          8.9417    3.3719    8.2172 C.3       1 <0>        -0.1510
      2 C2         10.1498    2.9102    7.3997 C.3       1 <0>         0.0499
      3 N1          9.9972    3.3533    6.0075 N.3       1 <0>        -0.5402
      4 C3         11.2367    3.1387    5.2477 C.3       1 <0>         0.0569
      5 C4         11.0629    3.6845    3.8284 C.3       1 <0>         0.0590
      6 N2          9.9288    3.0094    3.1822 N.3       1 <0>        -0.5268
      7 C5          8.6893    3.2240    3.9420 C.3       1 <0>         0.0561
      8 C6          8.8631    2.6781    5.3612 C.3       1 <0>         0.0550
      9 C7          9.7762    3.4524    1.7899 C.3       1 <0>         0.0729
     10 C8          8.7879    2.5601    1.0842 C.ar      1 <0>        -0.0447
     11 C9          7.5022    3.0092    0.8434 C.ar      1 <0>        -0.0942
     12 C10         6.5958    2.1959    0.1923 C.ar      1 <0>        -0.0884
     13 C11         6.9731    0.9214   -0.2106 C.ar      1 <0>         0.1720
     14 C12         8.2646    0.4735    0.0326 C.ar      1 <0>        -0.1038
     15 C13         9.1683    1.2940    0.6793 C.ar      1 <0>        -0.1404
     16 C14        10.5702    0.8086    0.9441 C.3       1 <0>         0.5095
     17 F1         10.7250   -0.4786    0.4184 F         1 <0>        -0.1841
     18 F2         11.4860    1.6739    0.3362 F         1 <0>        -0.1795
     19 F3         10.8008    0.7797    2.3237 F         1 <0>        -0.1519
     20 N3          6.0552    0.0926   -0.8655 N.am      1 <0>        -0.6948
     21 C15         4.7513    0.1311   -0.5266 C.2       1 <0>         0.7096
     22 O1          4.3858    0.8194    0.4067 O.2       1 <0>        -0.5587
     23 N4          3.8526   -0.5934   -1.2222 N.am      1 <0>        -0.6930
     24 C16         2.4863   -0.4790   -0.9335 C.ar      1 <0>         0.1697
     25 C17         1.5516   -0.5518   -1.9576 C.ar      1 <0>        -0.1297
     26 C18         0.2052   -0.4394   -1.6724 C.ar      1 <0>        -0.0930
     27 C19        -0.2137   -0.2543   -0.3628 C.ar      1 <0>         0.0783
     28 C20         0.7198   -0.1815    0.6609 C.ar      1 <0>        -0.0936
     29 C21         2.0665   -0.2932    0.3769 C.ar      1 <0>        -0.1059
     30 O2         -1.5393   -0.1385   -0.0833 O.3       1 <0>        -0.2412
     31 C22        -2.3129   -1.2454   -0.1983 C.ar      1 <0>         0.3851
     32 C23        -3.6894   -1.1637   -0.0277 C.ar      1 <0>        -0.3141
     33 C24        -4.4409   -2.3284   -0.1601 C.ar      1 <0>         0.4620
     34 N5         -3.8165   -3.4721   -0.4341 N.ar      1 <0>        -0.5954
     35 C25        -2.5082   -3.5081   -0.5840 C.ar      1 <0>         0.3753
     36 N6         -1.7644   -2.4263   -0.4707 N.ar      1 <0>        -0.6017
     37 N7         -5.8178   -2.2988   -0.0034 N.pl3     1 <0>        -0.7231
     38 C26        -6.4937   -1.0344    0.2979 C.3       1 <0>         0.0898
     39 H1          9.0560    3.0401    9.2597 H         1 <0>         0.0595
     40 H2          8.0243    2.9380    7.7928 H         1 <0>         0.0547
     41 H3          8.8763    4.4695    8.1868 H         1 <0>         0.0631
     42 H4         11.0672    3.3441    7.8241 H         1 <0>         0.0746
     43 H5         10.2153    1.8126    7.4301 H         1 <0>         0.0335
     44 H6         12.0665    3.6630    5.7442 H         1 <0>         0.0800
     45 H7         11.4577    2.0621    5.2031 H         1 <0>         0.0441
     46 H8         10.8699    4.7665    3.8728 H         1 <0>         0.0445
     47 H9         11.9796    3.4990    3.2494 H         1 <0>         0.0809
     48 H10         8.4684    4.3007    3.9867 H         1 <0>         0.0435
     49 H11         7.8594    2.6998    3.4455 H         1 <0>         0.0808
     50 H12         9.0569    1.5962    5.3178 H         1 <0>         0.0425
     51 H13         7.9470    2.8635    5.9412 H         1 <0>         0.0819
     52 H14         9.4106    4.4897    1.7732 H         1 <0>         0.0550
     53 H15        10.7489    3.3982    1.2791 H         1 <0>         0.0962
     54 H16         7.2082    3.9988    1.1607 H         1 <0>         0.1355
     55 H17         5.5933    2.5489    0.0003 H         1 <0>         0.1427
     56 H18         8.5625   -0.5152   -0.2838 H         1 <0>         0.1409
     57 H19         6.3979   -0.5903   -1.6569 H         1 <0>         0.4343
     58 H20         4.1917   -1.2745   -2.0166 H         1 <0>         0.4332
     59 H21         1.8775   -0.6959   -2.9771 H         1 <0>         0.1323
     60 H22        -0.5220   -0.4960   -2.4689 H         1 <0>         0.1282
     61 H23         0.3932   -0.0371    1.6801 H         1 <0>         0.1328
     62 H24         2.7931   -0.2369    1.1740 H         1 <0>         0.1466
     63 H25        -4.1646   -0.2205    0.1982 H         1 <0>         0.1463
     64 H26        -2.0315   -4.4515   -0.8058 H         1 <0>         0.1996
     65 H27        -6.4030   -3.2246   -0.1053 H         1 <0>         0.4362
     66 H28        -7.5762   -1.2091    0.3856 H         1 <0>         0.0851
     67 H29        -6.3028   -0.3146   -0.5117 H         1 <0>         0.0598
     68 H30        -6.1096   -0.6302    1.2461 H         1 <0>         0.0599
@<TRIPOS>BOND
     1    1    2 1
     2    1   39 1
     3    1   40 1
     4    1   41 1
     5    2    3 1
     6    2   42 1
     7    2   43 1
     8    3    8 1
     9    3    4 1
    10    4    5 1
    11    4   44 1
    12    4   45 1
    13    5    6 1
    14    5   46 1
    15    5   47 1
    16    6    7 1
    17    6    9 1
    18    7    8 1
    19    7   48 1
    20    7   49 1
    21    8   50 1
    22    8   51 1
    23    9   10 1
    24    9   52 1
    25    9   53 1
    26   10   15 ar
    27   10   11 ar
    28   11   12 ar
    29   11   54 1
    30   12   13 ar
    31   12   55 1
    32   13   14 ar
    33   13   20 1
    34   14   15 ar
    35   14   56 1
    36   15   16 1
    37   16   17 1
    38   16   18 1
    39   16   19 1
    40   20   21 am
    41   20   57 1
    42   21   22 2
    43   21   23 am
    44   23   24 1
    45   23   58 1
    46   24   29 ar
    47   24   25 ar
    48   25   26 ar
    49   25   59 1
    50   26   27 ar
    51   26   60 1
    52   27   28 ar
    53   27   30 1
    54   28   29 ar
    55   28   61 1
    56   29   62 1
    57   30   31 1
    58   31   36 ar
    59   31   32 ar
    60   32   33 ar
    61   32   63 1
    62   33   34 ar
    63   33   37 1
    64   34   35 ar
    65   35   36 ar
    66   35   64 1
    67   37   38 1
    68   37   65 1
    69   38   66 1
    70   38   67 1
    71   38   68 1
