@<TRIPOS>MOLECULE
ZINC13813331
   50    51     0     0     0
SMALL
USER_CHARGES
1-(2-ethylbutyl)-N-(2-sulfanylphenyl)cyclohexane-1-carboxamide
@<TRIPOS>ATOM
      1 C1          5.2423    5.3302    0.1057 C.3       1 <0>        -0.1532
      2 C2          4.9856    4.3927   -1.0758 C.3       1 <0>        -0.1537
      3 C3          6.0940    3.3401   -1.1418 C.3       1 <0>        -0.0893
      4 C4          7.4275    4.0226   -1.4528 C.3       1 <0>        -0.1202
      5 C5          7.3656    4.6520   -2.8460 C.3       1 <0>        -0.1509
      6 C6          6.1922    2.6178    0.2034 C.3       1 <0>        -0.1120
      7 C7          4.9604    1.7313    0.3974 C.3       1 <0>        -0.0723
      8 C8          4.7897    0.8216   -0.8209 C.3       1 <0>        -0.0904
      9 C9          3.5580   -0.0649   -0.6269 C.3       1 <0>        -0.1318
     10 C10         3.7387   -0.9215    0.6279 C.3       1 <0>        -0.1163
     11 C11         3.9093   -0.0119    1.8462 C.3       1 <0>        -0.1217
     12 C12         5.1411    0.8746    1.6522 C.3       1 <0>        -0.1085
     13 C13         3.7373    2.5978    0.5526 C.2       1 <0>         0.5322
     14 O1          2.8612    2.5661   -0.2857 O.2       1 <0>        -0.5401
     15 N1          3.6168    3.4080    1.6230 N.am      1 <0>        -0.6319
     16 C14         2.4538    4.1702    1.7974 C.ar      1 <0>         0.1076
     17 C15         1.6707    4.5043    0.7031 C.ar      1 <0>        -0.1180
     18 C16         0.5236    5.2559    0.8774 C.ar      1 <0>        -0.1667
     19 C17         0.1529    5.6770    2.1415 C.ar      1 <0>        -0.1233
     20 C18         0.9240    5.3441    3.2390 C.ar      1 <0>        -0.1401
     21 C19         2.0803    4.5948    3.0728 C.ar      1 <0>         0.1067
     22 H1          6.1640    5.8864   -0.0654 H         1 <0>         0.0448
     23 H2          4.4102    6.0274    0.2039 H         1 <0>         0.0515
     24 H3          5.3357    4.7449    1.0205 H         1 <0>         0.0617
     25 H4          4.9758    4.9686   -2.0011 H         1 <0>         0.0566
     26 H5          4.0227    3.8987   -0.9450 H         1 <0>         0.0962
     27 H6          5.8636    2.6185   -1.9256 H         1 <0>         0.0756
     28 H7          7.6201    4.7984   -0.7118 H         1 <0>         0.0637
     29 H8          8.2291    3.2846   -1.4229 H         1 <0>         0.0565
     30 H9          7.0716    3.8957   -3.5736 H         1 <0>         0.0511
     31 H10         6.6349    5.4608   -2.8471 H         1 <0>         0.0559
     32 H11         8.3463    5.0481   -3.1096 H         1 <0>         0.0480
     33 H12         6.2416    3.3522    1.0073 H         1 <0>         0.0746
     34 H13         7.0904    2.0005    0.2196 H         1 <0>         0.0705
     35 H14         4.6610    1.4319   -1.7148 H         1 <0>         0.0728
     36 H15         5.6744    0.1949   -0.9332 H         1 <0>         0.0613
     37 H16         3.4364   -0.7129   -1.4948 H         1 <0>         0.0539
     38 H17         2.6733    0.5619   -0.5146 H         1 <0>         0.0889
     39 H18         4.6234   -1.5483    0.5156 H         1 <0>         0.0553
     40 H19         2.8611   -1.5531    0.7661 H         1 <0>         0.0562
     41 H20         4.0381   -0.6222    2.7401 H         1 <0>         0.0623
     42 H21         3.0247    0.6149    1.9585 H         1 <0>         0.0651
     43 H22         6.0258    0.2479    1.5399 H         1 <0>         0.0691
     44 H23         5.2627    1.5227    2.5201 H         1 <0>         0.0718
     45 H24         4.3350    3.4634    2.2725 H         1 <0>         0.4151
     46 H25         1.9567    4.1770   -0.2856 H         1 <0>         0.1418
     47 H26        -0.0852    5.5148    0.0238 H         1 <0>         0.1052
     48 H27        -0.7444    6.2637    2.2720 H         1 <0>         0.1033
     49 H28         0.6290    5.6705    4.2254 H         1 <0>         0.1113
     50 S1          3.0696    4.1748    4.4691 S.3       1 <0>        -0.9461
@<TRIPOS>BOND
     1    1    2 1
     2    1   22 1
     3    1   23 1
     4    1   24 1
     5    2    3 1
     6    2   25 1
     7    2   26 1
     8    3    4 1
     9    3    6 1
    10    3   27 1
    11    4    5 1
    12    4   28 1
    13    4   29 1
    14    5   30 1
    15    5   31 1
    16    5   32 1
    17    6    7 1
    18    6   33 1
    19    6   34 1
    20    7   12 1
    21    7    8 1
    22    7   13 1
    23    8    9 1
    24    8   35 1
    25    8   36 1
    26    9   10 1
    27    9   37 1
    28    9   38 1
    29   10   11 1
    30   10   39 1
    31   10   40 1
    32   11   12 1
    33   11   41 1
    34   11   42 1
    35   12   43 1
    36   12   44 1
    37   13   14 2
    38   13   15 am
    39   15   16 1
    40   15   45 1
    41   16   21 ar
    42   16   17 ar
    43   17   18 ar
    44   17   46 1
    45   18   19 ar
    46   18   47 1
    47   19   20 ar
    48   19   48 1
    49   20   21 ar
    50   20   49 1
    51   21   50 1
@<TRIPOS>MOLECULE
ZINC68087592
   69    72     0     0     0
SMALL
USER_CHARGES

@<TRIPOS>ATOM
      1 C1         -0.0187    1.5258    0.0104 C.3       1 <0>        -0.1658
      2 C2          0.0021   -0.0041    0.0020 C.3       1 <0>         0.0984
      3 H1         -1.0116   -0.4043    0.0220 H         1 <0>         0.1115
      4 C3          0.7809   -0.5376   -1.2237 C.3       1 <0>         0.1184
      5 H2          0.3653   -1.4852   -1.5665 H         1 <0>         0.1194
      6 O1          2.1034   -0.7216   -0.6822 O.3       1 <0>        -0.3167
      7 C4          1.9855   -0.9329    0.6395 C.2       1 <0>         0.6273
      8 O2          2.8563   -1.4382    1.3198 O.2       1 <0>        -0.4729
      9 N1          0.7953   -0.5252    1.1328 N.am      1 <0>        -0.6252
     10 C5          0.3670   -0.5873    2.5324 C.3       1 <0>         0.1891
     11 C6         -0.3160   -1.9056    2.7907 C.ar      1 <0>        -0.0997
     12 C7         -1.6943   -1.9789    2.8061 C.ar      1 <0>        -0.0545
     13 C8         -2.3224   -3.1880    3.0435 C.ar      1 <0>        -0.1859
     14 C9         -1.5742   -4.3302    3.2663 C.ar      1 <0>        -0.0595
     15 C10        -0.1958   -4.2688    3.2528 C.ar      1 <0>        -0.1102
     16 C11         0.4427   -3.0539    3.0088 C.ar      1 <0>         0.0281
     17 C12         1.9240   -2.9827    2.9870 C.ar      1 <0>        -0.0944
     18 C13         2.6416   -3.6513    1.9976 C.ar      1 <0>        -0.0001
     19 C14         4.0194   -3.5828    1.9807 C.ar      1 <0>        -0.1144
     20 C15         4.6933   -2.8502    2.9455 C.ar      1 <0>         0.1574
     21 C16         3.9891   -2.1829    3.9326 C.ar      1 <0>        -0.2343
     22 C17         2.6051   -2.2396    3.9559 C.ar      1 <0>         0.1727
     23 O3          1.9123   -1.5802    4.9205 O.3       1 <0>        -0.3110
     24 C18         2.6750   -0.8414    5.8769 C.3       1 <0>         0.0239
     25 F1          6.0427   -2.7877    2.9223 F         1 <0>        -0.1379
     26 C19         4.7943   -4.3070    0.9101 C.3       1 <0>        -0.0544
     27 C20         4.4984   -5.8058    0.9919 C.3       1 <0>        -0.1438
     28 C21         4.3795   -3.7795   -0.4649 C.3       1 <0>        -0.1338
     29 C22        -3.8275   -3.2615    3.0600 C.3       1 <0>         0.5085
     30 F2         -4.2951   -3.5375    1.7707 F         1 <0>        -0.1765
     31 F3         -4.2353   -4.2773    3.9313 F         1 <0>        -0.1758
     32 F4         -4.3494   -2.0380    3.4934 F         1 <0>        -0.1767
     33 C23         0.7912    0.4769   -2.3380 C.ar      1 <0>        -0.0916
     34 C24         1.7500    1.4725   -2.3574 C.ar      1 <0>        -0.0098
     35 C25         1.7595    2.4031   -3.3795 C.ar      1 <0>        -0.1819
     36 C26         0.8104    2.3379   -4.3825 C.ar      1 <0>        -0.0138
     37 C27        -0.1479    1.3418   -4.3636 C.ar      1 <0>        -0.1807
     38 C28        -0.1547    0.4086   -3.3438 C.ar      1 <0>        -0.0202
     39 C29        -1.1828    1.2709   -5.4567 C.3       1 <0>         0.5130
     40 F5         -0.9702    2.3107   -6.3682 F         1 <0>        -0.1715
     41 F6         -1.0791    0.0425   -6.1181 F         1 <0>        -0.1701
     42 F7         -2.4597    1.3938   -4.8986 F         1 <0>        -0.1704
     43 C30         2.8041    3.4891   -3.4002 C.3       1 <0>         0.5119
     44 F8          3.9249    3.0446   -4.1098 F         1 <0>        -0.1693
     45 F9          2.2805    4.6281   -4.0211 F         1 <0>        -0.1713
     46 F10         3.1768    3.8027   -2.0887 F         1 <0>        -0.1715
     47 H3          1.0039    1.9031    0.0027 H         1 <0>         0.0663
     48 H4         -0.5459    1.8868   -0.8726 H         1 <0>         0.0764
     49 H5         -0.5289    1.8773    0.9072 H         1 <0>         0.0732
     50 H6          1.2367   -0.4951    3.1830 H         1 <0>         0.1093
     51 H7         -0.3274    0.2278    2.7364 H         1 <0>         0.0937
     52 H8         -2.2833   -1.0905    2.6328 H         1 <0>         0.1367
     53 H9         -2.0700   -5.2717    3.4516 H         1 <0>         0.1389
     54 H10         0.3873   -5.1611    3.4269 H         1 <0>         0.1380
     55 H11         2.1198   -4.2233    1.2447 H         1 <0>         0.1266
     56 H12         4.5186   -1.6137    4.6823 H         1 <0>         0.1355
     57 H13         2.0012   -0.3645    6.5886 H         1 <0>         0.1028
     58 H14         3.3450   -1.5176    6.4078 H         1 <0>         0.0578
     59 H15         3.2605   -0.0786    5.3636 H         1 <0>         0.0572
     60 H16         5.8612   -4.1387    1.0571 H         1 <0>         0.0792
     61 H17         5.0588   -6.3297    0.2176 H         1 <0>         0.0595
     62 H18         4.7939   -6.1816    1.9715 H         1 <0>         0.0551
     63 H19         3.4315   -5.9741    0.8449 H         1 <0>         0.0548
     64 H20         4.5904   -2.7117   -0.5232 H         1 <0>         0.0609
     65 H21         4.9400   -4.3033   -1.2392 H         1 <0>         0.0539
     66 H22         3.3127   -3.9478   -0.6119 H         1 <0>         0.0501
     67 H23         2.4915    1.5235   -1.5738 H         1 <0>         0.1518
     68 H24         0.8174    3.0654   -5.1807 H         1 <0>         0.1570
     69 H25        -0.9011   -0.3719   -3.3310 H         1 <0>         0.1513
@<TRIPOS>BOND
     1    1    2 1
     2    1   47 1
     3    1   48 1
     4    1   49 1
     5    2    3 1
     6    2    9 1
     7    2    4 1
     8    4    5 1
     9    4    6 1
    10    4   33 1
    11    6    7 1
    12    7    8 2
    13    7    9 am
    14    9   10 1
    15   10   11 1
    16   10   50 1
    17   10   51 1
    18   11   16 ar
    19   11   12 ar
    20   12   13 ar
    21   12   52 1
    22   13   14 ar
    23   13   29 1
    24   14   15 ar
    25   14   53 1
    26   15   16 ar
    27   15   54 1
    28   16   17 1
    29   17   22 ar
    30   17   18 ar
    31   18   19 ar
    32   18   55 1
    33   19   20 ar
    34   19   26 1
    35   20   21 ar
    36   20   25 1
    37   21   22 ar
    38   21   56 1
    39   22   23 1
    40   23   24 1
    41   24   57 1
    42   24   58 1
    43   24   59 1
    44   26   27 1
    45   26   28 1
    46   26   60 1
    47   27   61 1
    48   27   62 1
    49   27   63 1
    50   28   64 1
    51   28   65 1
    52   28   66 1
    53   29   30 1
    54   29   31 1
    55   29   32 1
    56   33   38 ar
    57   33   34 ar
    58   34   35 ar
    59   34   67 1
    60   35   36 ar
    61   35   43 1
    62   36   37 ar
    63   36   68 1
    64   37   38 ar
    65   37   39 1
    66   38   69 1
    67   39   40 1
    68   39   41 1
    69   39   42 1
    70   43   44 1
    71   43   45 1
    72   43   46 1
@<TRIPOS>MOLECULE
ZINC01144265
   45    48     0     0     0
SMALL
USER_CHARGES

@<TRIPOS>ATOM
      1 C1          2.5828    0.9820    0.4046 C.3       1 <0>        -0.1096
      2 C2          1.9921   -0.4006    0.3023 C.ar      1 <0>        -0.1083
      3 C3          2.0782   -1.1032   -0.8842 C.ar      1 <0>        -0.0830
      4 C4          1.5361   -2.3714   -0.9789 C.ar      1 <0>        -0.1496
      5 C5          0.9069   -2.9402    0.1133 C.ar      1 <0>        -0.0864
      6 C6          0.8186   -2.2422    1.3019 C.ar      1 <0>        -0.2064
      7 C7          1.3665   -0.9712    1.4010 C.ar      1 <0>         0.1223
      8 O1          1.2858   -0.2846    2.5710 O.3       1 <0>        -0.2867
      9 C8          0.6276   -0.9342    3.6604 C.3       1 <0>         0.0433
     10 C9          0.6350   -0.0278    4.8643 C.2       1 <0>         0.5169
     11 O2          1.1530    1.0668    4.7961 O.2       1 <0>        -0.4857
     12 N1          0.0660   -0.4334    6.0168 N.am      1 <0>        -0.6711
     13 C10         0.1567    0.3648    7.1590 C.ar      1 <0>         0.1771
     14 C11         0.1252    1.7501    7.0416 C.ar      1 <0>        -0.1255
     15 C12         0.2140    2.5403    8.1663 C.ar      1 <0>        -0.0364
     16 C13         0.3356    1.9487    9.4258 C.ar      1 <0>        -0.0554
     17 C14         0.3668    0.5569    9.5402 C.ar      1 <0>        -0.0551
     18 C15         0.2724   -0.2276    8.4119 C.ar      1 <0>        -0.1458
     19 C16         0.4315    2.7929   10.6338 C.2       1 <0>         0.3166
     20 N2          0.4069    4.1022   10.6389 N.2       1 <0>        -0.4659
     21 C17         0.5166    4.5359   11.9210 C.ar      1 <0>         0.0571
     22 C18         0.5467    5.8022   12.5112 C.ar      1 <0>        -0.0473
     23 C19         0.6704    5.9160   13.8786 C.ar      1 <0>        -0.0249
     24 C20         0.7652    4.7812   14.6724 C.ar      1 <0>        -0.0785
     25 C21         0.7373    3.5240   14.1026 C.ar      1 <0>         0.0032
     26 C22         0.6128    3.3908   12.7274 C.ar      1 <0>         0.0163
     27 O3          0.5511    2.3292   11.8923 O.3       1 <0>        -0.1946
     28 Cl1         0.8578    2.1121   15.1054 Cl        1 <0>        -0.0347
     29 Cl2         0.7086    7.4884   14.6134 Cl        1 <0>        -0.0353
     30 H1          3.6209    0.9105    0.7291 H         1 <0>         0.0699
     31 H2          2.5394    1.4687   -0.5697 H         1 <0>         0.0663
     32 H3          2.0154    1.5669    1.1285 H         1 <0>         0.0731
     33 H4          2.5691   -0.6612   -1.7386 H         1 <0>         0.1311
     34 H5          1.6038   -2.9187   -1.9075 H         1 <0>         0.1257
     35 H6          0.4839   -3.9310    0.0368 H         1 <0>         0.1261
     36 H7          0.3270   -2.6868    2.1546 H         1 <0>         0.1272
     37 H8         -0.4018   -1.1588    3.3811 H         1 <0>         0.0988
     38 H9          1.1495   -1.8607    3.8999 H         1 <0>         0.0991
     39 H10        -0.4064   -1.2798    6.0528 H         1 <0>         0.4168
     40 H11         0.0315    2.2069    6.0674 H         1 <0>         0.1518
     41 H12         0.1899    3.6162    8.0744 H         1 <0>         0.1470
     42 H13         0.4608    0.0964   10.5125 H         1 <0>         0.1406
     43 H14         0.2920   -1.3038    8.5000 H         1 <0>         0.1396
     44 H15         0.4737    6.6881   11.8978 H         1 <0>         0.1568
     45 H16         0.8619    4.8824   15.7433 H         1 <0>         0.1634
@<TRIPOS>BOND
     1    1    2 1
     2    1   30 1
     3    1   31 1
     4    1   32 1
     5    2    7 ar
     6    2    3 ar
     7    3    4 ar
     8    3   33 1
     9    4    5 ar
    10    4   34 1
    11    5    6 ar
    12    5   35 1
    13    6    7 ar
    14    6   36 1
    15    7    8 1
    16    8    9 1
    17    9   10 1
    18    9   37 1
    19    9   38 1
    20   10   11 2
    21   10   12 am
    22   12   13 1
    23   12   39 1
    24   13   18 ar
    25   13   14 ar
    26   14   15 ar
    27   14   40 1
    28   15   16 ar
    29   15   41 1
    30   16   17 ar
    31   16   19 1
    32   17   18 ar
    33   17   42 1
    34   18   43 1
    35   19   27 1
    36   19   20 2
    37   20   21 1
    38   21   26 ar
    39   21   22 ar
    40   22   23 ar
    41   22   44 1
    42   23   24 ar
    43   23   29 1
    44   24   25 ar
    45   24   45 1
    46   25   26 ar
    47   25   28 1
    48   26   27 1
@<TRIPOS>MOLECULE
ZINC05198170
   51    54     0     0     0
SMALL
USER_CHARGES
N-[4-(5,7-dimethylbenzooxazol-2-yl)phenyl]-2-(3-methylphenoxy)-acetamide
@<TRIPOS>ATOM
      1 C1         -1.3810    1.1828    3.4801 C.3       1 <0>        -0.1181
      2 C2         -0.3815    1.9027    2.6119 C.ar      1 <0>        -0.0445
      3 C3          0.5787    1.1847    1.9227 C.ar      1 <0>        -0.1560
      4 C4          1.4931    1.8417    1.1207 C.ar      1 <0>        -0.0751
      5 C5          1.4530    3.2183    1.0098 C.ar      1 <0>        -0.2171
      6 C6          0.4944    3.9412    1.7045 C.ar      1 <0>         0.1299
      7 C7         -0.4220    3.2795    2.5093 C.ar      1 <0>        -0.1479
      8 O1          0.4526    5.2953    1.5968 O.3       1 <0>        -0.2900
      9 C8          1.4266    5.9091    0.7502 C.3       1 <0>         0.0437
     10 C9          1.2265    7.4028    0.7551 C.2       1 <0>         0.5160
     11 O2          0.3374    7.8934    1.4182 O.2       1 <0>        -0.4863
     12 N1          2.0356    8.1935    0.0225 N.am      1 <0>        -0.6708
     13 C10         1.7833    9.5644   -0.0610 C.ar      1 <0>         0.1748
     14 C11         0.4734   10.0311   -0.0436 C.ar      1 <0>        -0.1247
     15 C12         0.2214   11.3831   -0.1200 C.ar      1 <0>        -0.0573
     16 C13         1.2828   12.2849   -0.2262 C.ar      1 <0>        -0.0481
     17 C14         2.5971   11.8124   -0.2492 C.ar      1 <0>        -0.0402
     18 C15         2.8423   10.4594   -0.1671 C.ar      1 <0>        -0.1468
     19 C16         1.0161   13.7349   -0.3135 C.2       1 <0>         0.2979
     20 N2          1.9349   14.6629   -0.4094 N.2       1 <0>        -0.4718
     21 C17         1.3261   15.8751   -0.4706 C.ar      1 <0>         0.0357
     22 C18         1.7966   17.1863   -0.5785 C.ar      1 <0>        -0.0718
     23 C19         0.9017   18.2320   -0.6117 C.ar      1 <0>        -0.0784
     24 C20        -0.4625   17.9918   -0.5387 C.ar      1 <0>        -0.0973
     25 C21        -0.9416   16.7024   -0.4319 C.ar      1 <0>        -0.0517
     26 C22        -0.0558   15.6368   -0.3970 C.ar      1 <0>         0.0037
     27 O3         -0.2075   14.2970   -0.3005 O.3       1 <0>        -0.2063
     28 C23        -2.4257   16.4529   -0.3538 C.3       1 <0>        -0.1161
     29 C24         1.4076   19.6469   -0.7275 C.3       1 <0>        -0.1130
     30 H1         -0.9847    1.0917    4.4914 H         1 <0>         0.0754
     31 H2         -2.3136    1.7466    3.5047 H         1 <0>         0.0702
     32 H3         -1.5677    0.1894    3.0721 H         1 <0>         0.0706
     33 H4          0.6114    0.1086    2.0078 H         1 <0>         0.1254
     34 H5          2.2392    1.2784    0.5800 H         1 <0>         0.1270
     35 H6          2.1671    3.7310    0.3825 H         1 <0>         0.1270
     36 H7         -1.1690    3.8402    3.0514 H         1 <0>         0.1328
     37 H8          2.4260    5.6752    1.1171 H         1 <0>         0.0987
     38 H9          1.3148    5.5309   -0.2659 H         1 <0>         0.1001
     39 H10         2.7931    7.8102   -0.4468 H         1 <0>         0.4164
     40 H11        -0.3469    9.3330    0.0341 H         1 <0>         0.1444
     41 H12        -0.7960   11.7452   -0.1020 H         1 <0>         0.1382
     42 H13         3.4200   12.5070   -0.3316 H         1 <0>         0.1464
     43 H14         3.8583   10.0934   -0.1848 H         1 <0>         0.1396
     44 H15         2.8578   17.3786   -0.6356 H         1 <0>         0.1366
     45 H16        -1.1548   18.8203   -0.5660 H         1 <0>         0.1412
     46 H17        -2.7412   16.4615    0.6895 H         1 <0>         0.0762
     47 H18        -2.9547   17.2340   -0.8998 H         1 <0>         0.0755
     48 H19        -2.6548   15.4827   -0.7946 H         1 <0>         0.0689
     49 H20         1.5723   20.0566    0.2691 H         1 <0>         0.0752
     50 H21         2.3458   19.6530   -1.2825 H         1 <0>         0.0706
     51 H22         0.6707   20.2544   -1.2529 H         1 <0>         0.0714
@<TRIPOS>BOND
     1    1    2 1
     2    1   30 1
     3    1   31 1
     4    1   32 1
     5    2    7 ar
     6    2    3 ar
     7    3    4 ar
     8    3   33 1
     9    4    5 ar
    10    4   34 1
    11    5    6 ar
    12    5   35 1
    13    6    7 ar
    14    6    8 1
    15    7   36 1
    16    8    9 1
    17    9   10 1
    18    9   37 1
    19    9   38 1
    20   10   11 2
    21   10   12 am
    22   12   13 1
    23   12   39 1
    24   13   18 ar
    25   13   14 ar
    26   14   15 ar
    27   14   40 1
    28   15   16 ar
    29   15   41 1
    30   16   17 ar
    31   16   19 1
    32   17   18 ar
    33   17   42 1
    34   18   43 1
    35   19   27 1
    36   19   20 2
    37   20   21 1
    38   21   26 ar
    39   21   22 ar
    40   22   23 ar
    41   22   44 1
    42   23   24 ar
    43   23   29 1
    44   24   25 ar
    45   24   45 1
    46   25   26 ar
    47   25   28 1
    48   26   27 1
    49   28   46 1
    50   28   47 1
    51   28   48 1
    52   29   49 1
    53   29   50 1
    54   29   51 1
@<TRIPOS>MOLECULE
ZINC01216513
   45    48     0     0     0
SMALL
USER_CHARGES
N-[4-(5-chlorobenzooxazol-2-yl)phenyl]-2-(2-methylphenoxy)-acetamide
@<TRIPOS>ATOM
      1 C1         12.5831   -1.9116   -2.2665 C.3       1 <0>        -0.1095
      2 C2         13.4740   -0.8613   -1.6549 C.ar      1 <0>        -0.1085
      3 C3         14.8453   -1.0306   -1.6579 C.ar      1 <0>        -0.0830
      4 C4         15.6631   -0.0673   -1.0974 C.ar      1 <0>        -0.1497
      5 C5         15.1115    1.0682   -0.5329 C.ar      1 <0>        -0.0863
      6 C6         13.7416    1.2447   -0.5320 C.ar      1 <0>        -0.2064
      7 C7         12.9182    0.2765   -1.0888 C.ar      1 <0>         0.1223
      8 O1         11.5697    0.4454   -1.0845 O.3       1 <0>        -0.2869
      9 C8         11.0675    1.6412   -0.4845 C.3       1 <0>         0.0428
     10 C9          9.5632    1.6539   -0.5726 C.2       1 <0>         0.5166
     11 O2          8.9786    0.7299   -1.0975 O.2       1 <0>        -0.4857
     12 N1          8.8674    2.6920   -0.0680 N.am      1 <0>        -0.6711
     13 C10         7.4716    2.6542   -0.0499 C.ar      1 <0>         0.1780
     14 C11         6.8127    1.4434    0.1342 C.ar      1 <0>        -0.1255
     15 C12         5.4360    1.4026    0.1530 C.ar      1 <0>        -0.0549
     16 C13         4.7016    2.5792   -0.0131 C.ar      1 <0>        -0.0532
     17 C14         5.3666    3.7928   -0.2036 C.ar      1 <0>        -0.0376
     18 C15         6.7435    3.8274   -0.2157 C.ar      1 <0>        -0.1474
     19 C16         3.2255    2.5392    0.0065 C.2       1 <0>         0.3085
     20 N2          2.4442    3.5800   -0.1393 N.2       1 <0>        -0.4698
     21 C17         1.1519    3.1692   -0.0673 C.ar      1 <0>         0.0402
     22 C18        -0.0761    3.8298   -0.1528 C.ar      1 <0>        -0.0534
     23 C19        -1.2470    3.1129   -0.0365 C.ar      1 <0>        -0.0343
     24 C20        -1.2128    1.7389    0.1588 C.ar      1 <0>        -0.0856
     25 C21        -0.0070    1.0750    0.2507 C.ar      1 <0>        -0.0745
     26 C22         1.1809    1.7801    0.1364 C.ar      1 <0>         0.0116
     27 O3          2.4854    1.4272    0.1765 O.3       1 <0>        -0.2042
     28 Cl1        -2.7741    3.9316   -0.1425 Cl        1 <0>        -0.0495
     29 H1         12.4258   -1.6854   -3.3211 H         1 <0>         0.0699
     30 H2         13.0556   -2.8893   -2.1711 H         1 <0>         0.0662
     31 H3         11.6235   -1.9199   -1.7496 H         1 <0>         0.0730
     32 H4         15.2786   -1.9162   -2.0988 H         1 <0>         0.1311
     33 H5         16.7348   -0.2015   -1.1008 H         1 <0>         0.1257
     34 H6         15.7525    1.8195   -0.0959 H         1 <0>         0.1262
     35 H7         13.3114    2.1337   -0.0950 H         1 <0>         0.1273
     36 H8         11.4696    2.5077   -1.0095 H         1 <0>         0.0984
     37 H9         11.3706    1.6775    0.5619 H         1 <0>         0.0997
     38 H10         9.3361    3.4655    0.2826 H         1 <0>         0.4168
     39 H11         7.3811    0.5341    0.2623 H         1 <0>         0.1453
     40 H12         4.9249    0.4619    0.2957 H         1 <0>         0.1392
     41 H13         4.8017    4.7035   -0.3372 H         1 <0>         0.1472
     42 H14         7.2583    4.7660   -0.3585 H         1 <0>         0.1404
     43 H15        -0.1076    4.8979   -0.3097 H         1 <0>         0.1488
     44 H16        -2.1369    1.1864    0.2441 H         1 <0>         0.1535
     45 H17         0.0113    0.0065    0.4071 H         1 <0>         0.1482
@<TRIPOS>BOND
     1    1    2 1
     2    1   29 1
     3    1   30 1
     4    1   31 1
     5    2    7 ar
     6    2    3 ar
     7    3    4 ar
     8    3   32 1
     9    4    5 ar
    10    4   33 1
    11    5    6 ar
    12    5   34 1
    13    6    7 ar
    14    6   35 1
    15    7    8 1
    16    8    9 1
    17    9   10 1
    18    9   36 1
    19    9   37 1
    20   10   11 2
    21   10   12 am
    22   12   13 1
    23   12   38 1
    24   13   18 ar
    25   13   14 ar
    26   14   15 ar
    27   14   39 1
    28   15   16 ar
    29   15   40 1
    30   16   17 ar
    31   16   19 1
    32   17   18 ar
    33   17   41 1
    34   18   42 1
    35   19   27 1
    36   19   20 2
    37   20   21 1
    38   21   26 ar
    39   21   22 ar
    40   22   23 ar
    41   22   43 1
    42   23   24 ar
    43   23   28 1
    44   24   25 ar
    45   24   44 1
    46   25   26 ar
    47   25   45 1
    48   26   27 1
@<TRIPOS>MOLECULE
ZINC04703888
   54    57     0     0     0
SMALL
USER_CHARGES
N-[4-(5,7-dimethylbenzooxazol-2-yl)phenyl]-2-(2,4-dimethylphenoxy)-acetamide
@<TRIPOS>ATOM
      1 C1          8.5106  -12.6667    0.8026 C.3       1 <0>        -0.1121
      2 C2          7.8445  -11.3151    0.8257 C.ar      1 <0>        -0.1155
      3 C3          6.5816  -11.1586    0.2845 C.ar      1 <0>        -0.0871
      4 C4          5.9692   -9.9207    0.3040 C.ar      1 <0>        -0.2015
      5 C5          6.6220   -8.8338    0.8677 C.ar      1 <0>         0.1172
      6 C6          7.8909   -8.9923    1.4052 C.ar      1 <0>        -0.1035
      7 C7          8.4972  -10.2337    1.3875 C.ar      1 <0>        -0.0837
      8 C8          8.6053   -7.8126    2.0126 C.3       1 <0>        -0.1092
      9 O1          6.0215   -7.6149    0.8881 O.3       1 <0>        -0.2867
     10 C9          4.7172   -7.5245    0.3114 C.3       1 <0>         0.0433
     11 C10         4.2149   -6.1082    0.4248 C.2       1 <0>         0.5160
     12 O2          4.9058   -5.2598    0.9480 O.2       1 <0>        -0.4851
     13 N1          2.9978   -5.7843   -0.0552 N.am      1 <0>        -0.6712
     14 C11         2.5770   -4.4529   -0.0503 C.ar      1 <0>         0.1749
     15 C12         3.5025   -3.4320   -0.2381 C.ar      1 <0>        -0.1252
     16 C13         3.0908   -2.1176   -0.2334 C.ar      1 <0>        -0.0392
     17 C14         1.7418   -1.8105   -0.0401 C.ar      1 <0>        -0.0480
     18 C15         0.8156   -2.8381    0.1531 C.ar      1 <0>        -0.0583
     19 C16         1.2332   -4.1507    0.1419 C.ar      1 <0>        -0.1465
     20 C17         1.2969   -0.4023   -0.0339 C.2       1 <0>         0.2973
     21 N2          2.0807    0.6335   -0.1998 N.2       1 <0>        -0.4705
     22 C18         1.3304    1.7634   -0.1345 C.ar      1 <0>         0.0357
     23 C19         1.6260    3.1248   -0.2398 C.ar      1 <0>        -0.0712
     24 C20         0.6160    4.0535   -0.1259 C.ar      1 <0>        -0.0785
     25 C21        -0.6917    3.6458    0.0931 C.ar      1 <0>        -0.0972
     26 C22        -0.9978    2.3051    0.2037 C.ar      1 <0>        -0.0525
     27 C23         0.0050    1.3554    0.0867 C.ar      1 <0>         0.0037
     28 O3          0.0256    0.0050    0.1430 O.3       1 <0>        -0.2071
     29 C24        -2.4210    1.8737    0.4478 C.3       1 <0>        -0.1155
     30 C25         0.9333    5.5224   -0.2392 C.3       1 <0>        -0.1131
     31 H1          9.0895  -12.7709   -0.1150 H         1 <0>         0.0695
     32 H2          9.1734  -12.7599    1.6630 H         1 <0>         0.0662
     33 H3          7.7506  -13.4471    0.8433 H         1 <0>         0.0656
     34 H4          6.0739  -12.0049   -0.1541 H         1 <0>         0.1256
     35 H5          4.9832   -9.7989   -0.1194 H         1 <0>         0.1274
     36 H6          9.4836  -10.3584    1.8092 H         1 <0>         0.1306
     37 H7          8.3628   -7.7478    3.0733 H         1 <0>         0.0699
     38 H8          9.6814   -7.9385    1.8929 H         1 <0>         0.0660
     39 H9          8.2884   -6.8983    1.5109 H         1 <0>         0.0734
     40 H10         4.0389   -8.1940    0.8402 H         1 <0>         0.0977
     41 H11         4.7640   -7.8103   -0.7394 H         1 <0>         0.0991
     42 H12         2.4142   -6.4762   -0.4041 H         1 <0>         0.4160
     43 H13         4.5452   -3.6701   -0.3875 H         1 <0>         0.1458
     44 H14         3.8101   -1.3252   -0.3786 H         1 <0>         0.1455
     45 H15        -0.2274   -2.6040    0.3069 H         1 <0>         0.1389
     46 H16         0.5169   -4.9459    0.2868 H         1 <0>         0.1381
     47 H17         2.6426    3.4474   -0.4095 H         1 <0>         0.1368
     48 H18        -1.4755    4.3836    0.1808 H         1 <0>         0.1412
     49 H19        -2.6037    1.8142    1.5207 H         1 <0>         0.0759
     50 H20        -3.1020    2.5993    0.0030 H         1 <0>         0.0753
     51 H21        -2.5866    0.8956   -0.0038 H         1 <0>         0.0686
     52 H22         0.8542    5.8318   -1.2814 H         1 <0>         0.0752
     53 H23         0.2281    6.0940    0.3641 H         1 <0>         0.0714
     54 H24         1.9471    5.7037    0.1177 H         1 <0>         0.0708
@<TRIPOS>BOND
     1    1    2 1
     2    1   31 1
     3    1   32 1
     4    1   33 1
     5    2    7 ar
     6    2    3 ar
     7    3    4 ar
     8    3   34 1
     9    4    5 ar
    10    4   35 1
    11    5    6 ar
    12    5    9 1
    13    6    7 ar
    14    6    8 1
    15    7   36 1
    16    8   37 1
    17    8   38 1
    18    8   39 1
    19    9   10 1
    20   10   11 1
    21   10   40 1
    22   10   41 1
    23   11   12 2
    24   11   13 am
    25   13   14 1
    26   13   42 1
    27   14   19 ar
    28   14   15 ar
    29   15   16 ar
    30   15   43 1
    31   16   17 ar
    32   16   44 1
    33   17   18 ar
    34   17   20 1
    35   18   19 ar
    36   18   45 1
    37   19   46 1
    38   20   28 1
    39   20   21 2
    40   21   22 1
    41   22   27 ar
    42   22   23 ar
    43   23   24 ar
    44   23   47 1
    45   24   25 ar
    46   24   30 1
    47   25   26 ar
    48   25   48 1
    49   26   27 ar
    50   26   29 1
    51   27   28 1
    52   29   49 1
    53   29   50 1
    54   29   51 1
    55   30   52 1
    56   30   53 1
    57   30   54 1
@<TRIPOS>MOLECULE
ZINC03976476
   62    63     0     0     0
SMALL
USER_CHARGES

@<TRIPOS>ATOM
      1 C1          5.0077    5.0359    1.3784 C.3       1 <0>        -0.1533
      2 C2          4.5967    4.6890   -0.0540 C.3       1 <0>        -0.1471
      3 C3          5.5996    3.6970   -0.6463 C.3       1 <0>        -0.0934
      4 C4          6.9620    4.3770   -0.7956 C.3       1 <0>        -0.1194
      5 C5          6.8657    5.4873   -1.8439 C.3       1 <0>        -0.1534
      6 C6          5.7317    2.4890    0.2833 C.3       1 <0>        -0.1140
      7 C7          4.4896    1.6055    0.1511 C.3       1 <0>        -0.0725
      8 C8          4.2961    1.2136   -1.3152 C.3       1 <0>        -0.0959
      9 C9          3.0540    0.3302   -1.4474 C.3       1 <0>        -0.1314
     10 C10         3.2335   -0.9321   -0.6015 C.3       1 <0>        -0.1199
     11 C11         3.4270   -0.5402    0.8647 C.3       1 <0>        -0.1244
     12 C12         4.6691    0.3432    0.9969 C.3       1 <0>        -0.1106
     13 C13         3.2798    2.3645    0.6320 C.2       1 <0>         0.5443
     14 O1          2.4145    2.6876   -0.1542 O.2       1 <0>        -0.5076
     15 N1          3.1593    2.6844    1.9357 N.am      1 <0>        -0.6628
     16 C14         2.0693    3.4482    2.3715 C.ar      1 <0>         0.2168
     17 C15         0.9107    3.5042    1.6110 C.ar      1 <0>        -0.1519
     18 C16        -0.1639    4.2583    2.0432 C.ar      1 <0>        -0.0648
     19 C17        -0.0887    4.9583    3.2337 C.ar      1 <0>        -0.1493
     20 C18         1.0598    4.9045    4.0003 C.ar      1 <0>        -0.0427
     21 C19         2.1453    4.1544    3.5716 C.ar      1 <0>        -0.1732
     22 S1          3.6131    4.0884    4.5442 S.3       1 <0>        -0.0300
     23 C20         3.4691    2.5106    5.1930 C.2       1 <0>         0.3035
     24 O2          2.5600    1.7895    4.8384 O.2       1 <0>        -0.4297
     25 C21         4.4715    2.0174    6.2044 C.3       1 <0>        -0.1107
     26 C22         4.4444    2.9268    7.4346 C.3       1 <0>        -0.1471
     27 C23         4.1166    0.5880    6.6189 C.3       1 <0>        -0.1393
     28 H1          5.9786    5.5313    1.3679 H         1 <0>         0.0545
     29 H2          4.2650    5.7014    1.8185 H         1 <0>         0.0494
     30 H3          5.0724    4.1222    1.9692 H         1 <0>         0.0573
     31 H4          4.5832    5.5963   -0.6579 H         1 <0>         0.0638
     32 H5          3.6029    4.2414   -0.0485 H         1 <0>         0.0800
     33 H6          5.2494    3.3664   -1.6241 H         1 <0>         0.0802
     34 H7          7.2611    4.8054    0.1610 H         1 <0>         0.0644
     35 H8          7.7022    3.6420   -1.1119 H         1 <0>         0.0604
     36 H9          6.4684    5.0770   -2.7723 H         1 <0>         0.0531
     37 H10         6.2031    6.2730   -1.4810 H         1 <0>         0.0551
     38 H11         7.8570    5.9028   -2.0251 H         1 <0>         0.0525
     39 H12         5.8256    2.8319    1.3136 H         1 <0>         0.0743
     40 H13         6.6168    1.9148    0.0093 H         1 <0>         0.0797
     41 H14         4.1682    2.1129   -1.9177 H         1 <0>         0.0780
     42 H15         5.1711    0.6646   -1.6630 H         1 <0>         0.0715
     43 H16         2.9162    0.0510   -2.4920 H         1 <0>         0.0632
     44 H17         2.1789    0.8792   -1.0995 H         1 <0>         0.0812
     45 H18         4.1086   -1.4811   -0.9494 H         1 <0>         0.0626
     46 H19         2.3486   -1.5615   -0.6957 H         1 <0>         0.0621
     47 H20         3.5549   -1.4395    1.4673 H         1 <0>         0.0678
     48 H21         2.5519    0.0088    1.2126 H         1 <0>         0.0589
     49 H22         5.5442   -0.2058    0.6491 H         1 <0>         0.0822
     50 H23         4.8069    0.6224    2.0415 H         1 <0>         0.0594
     51 H24         3.8275    2.3856    2.5722 H         1 <0>         0.4067
     52 H25         0.8481    2.9583    0.6812 H         1 <0>         0.1669
     53 H26        -1.0652    4.3007    1.4497 H         1 <0>         0.1315
     54 H27        -0.9315    5.5455    3.5672 H         1 <0>         0.1304
     55 H28         1.1138    5.4495    4.9312 H         1 <0>         0.1343
     56 H29         5.3863    2.0300    5.8006 H         1 <0>         0.0971
     57 H30         5.1694    2.5700    8.1662 H         1 <0>         0.0744
     58 H31         4.6972    3.9451    7.1393 H         1 <0>         0.0696
     59 H32         3.4473    2.9130    7.8747 H         1 <0>         0.0634
     60 H33         4.1359   -0.0598    5.7426 H         1 <0>         0.0615
     61 H34         4.8417    0.2313    7.3505 H         1 <0>         0.0689
     62 H35         3.1195    0.5743    7.0591 H         1 <0>         0.0635
@<TRIPOS>BOND
     1    1    2 1
     2    1   28 1
     3    1   29 1
     4    1   30 1
     5    2    3 1
     6    2   31 1
     7    2   32 1
     8    3    4 1
     9    3    6 1
    10    3   33 1
    11    4    5 1
    12    4   34 1
    13    4   35 1
    14    5   36 1
    15    5   37 1
    16    5   38 1
    17    6    7 1
    18    6   39 1
    19    6   40 1
    20    7   12 1
    21    7    8 1
    22    7   13 1
    23    8    9 1
    24    8   41 1
    25    8   42 1
    26    9   10 1
    27    9   43 1
    28    9   44 1
    29   10   11 1
    30   10   45 1
    31   10   46 1
    32   11   12 1
    33   11   47 1
    34   11   48 1
    35   12   49 1
    36   12   50 1
    37   13   14 2
    38   13   15 am
    39   15   16 1
    40   15   51 1
    41   16   21 ar
    42   16   17 ar
    43   17   18 ar
    44   17   52 1
    45   18   19 ar
    46   18   53 1
    47   19   20 ar
    48   19   54 1
    49   20   21 ar
    50   20   55 1
    51   21   22 1
    52   22   23 1
    53   23   24 2
    54   23   25 1
    55   25   26 1
    56   25   27 1
    57   25   56 1
    58   26   57 1
    59   26   58 1
    60   26   59 1
    61   27   60 1
    62   27   61 1
    63   27   62 1
@<TRIPOS>MOLECULE
ZINC08437621
   65    64     0     0     0
SMALL
USER_CHARGES
2-dimethylaminooctadec-4-ene-1,3-diol
@<TRIPOS>ATOM
      1 C1         -5.0773    2.6165  -12.5353 C.3       1 <0>        -0.1548
      2 C2         -4.1657    1.9600  -11.4966 C.3       1 <0>        -0.1261
      3 C3         -4.4720    2.5358  -10.1125 C.3       1 <0>        -0.1215
      4 C4         -3.5604    1.8794   -9.0738 C.3       1 <0>        -0.1211
      5 C5         -3.8668    2.4552   -7.6898 C.3       1 <0>        -0.1209
      6 C6         -2.9552    1.7987   -6.6511 C.3       1 <0>        -0.1206
      7 C7         -3.2615    2.3745   -5.2671 C.3       1 <0>        -0.1210
      8 C8         -2.3499    1.7180   -4.2284 C.3       1 <0>        -0.1205
      9 C9         -2.6562    2.2939   -2.8444 C.3       1 <0>        -0.1214
     10 C10        -1.7446    1.6374   -1.8057 C.3       1 <0>        -0.1202
     11 C11        -2.0510    2.2132   -0.4217 C.3       1 <0>        -0.1222
     12 C12        -1.1394    1.5567    0.6170 C.3       1 <0>        -0.1152
     13 C13        -1.4457    2.1325    2.0010 C.3       1 <0>        -0.1061
     14 C14        -0.5478    1.4859    3.0241 C.2       1 <0>        -0.0765
     15 C15         0.2016    2.2286    3.8006 C.2       1 <0>        -0.2740
     16 C16         1.0995    1.5820    4.8237 C.3       1 <0>         0.1387
     17 H1          0.7661    1.8559    5.8246 H         1 <0>         0.1325
     18 C17         2.5375    2.0617    4.6161 C.3       1 <0>         0.0018
     19 H2          2.8643    1.8047    3.6085 H         1 <0>         0.1451
     20 C18         3.4534    1.3846    5.6376 C.3       1 <0>         0.0623
     21 O1          2.9346    1.5909    6.9530 O.3       1 <0>        -0.5695
     22 C19         2.3199    3.8909    6.1875 C.3       1 <0>        -0.0444
     23 C20         3.8965    4.0487    4.3566 C.3       1 <0>        -0.0463
     24 O2          1.0451    0.1617    4.6755 O.3       1 <0>        -0.5273
     25 H3         -6.1187    2.4184  -12.2817 H         1 <0>         0.0537
     26 H4         -4.9035    3.6925  -12.5428 H         1 <0>         0.0534
     27 H5         -4.8590    2.2063  -13.5213 H         1 <0>         0.0544
     28 H6         -3.1243    2.1581  -11.7501 H         1 <0>         0.0602
     29 H7         -4.3394    0.8840  -11.4890 H         1 <0>         0.0605
     30 H8         -5.5134    2.3377   -9.8590 H         1 <0>         0.0609
     31 H9         -4.2983    3.6119  -10.1201 H         1 <0>         0.0605
     32 H10        -2.5190    2.0775   -9.3274 H         1 <0>         0.0604
     33 H11        -3.7342    0.8033   -9.0663 H         1 <0>         0.0608
     34 H12        -4.9082    2.2571   -7.4363 H         1 <0>         0.0609
     35 H13        -3.6930    3.5312   -7.6974 H         1 <0>         0.0604
     36 H14        -1.9137    1.9968   -6.9047 H         1 <0>         0.0601
     37 H15        -3.1289    0.7227   -6.6435 H         1 <0>         0.0609
     38 H16        -4.3029    2.1764   -5.0135 H         1 <0>         0.0612
     39 H17        -3.0878    3.4506   -5.2747 H         1 <0>         0.0603
     40 H18        -1.3085    1.9161   -4.4820 H         1 <0>         0.0599
     41 H19        -2.5236    0.6420   -4.2208 H         1 <0>         0.0612
     42 H20        -3.6976    2.0957   -2.5908 H         1 <0>         0.0622
     43 H21        -2.4825    3.3699   -2.8520 H         1 <0>         0.0605
     44 H22        -0.7032    1.8355   -2.0593 H         1 <0>         0.0599
     45 H23        -1.9184    0.5613   -1.7981 H         1 <0>         0.0626
     46 H24        -3.0924    2.0151   -0.1681 H         1 <0>         0.0652
     47 H25        -1.8772    3.2892   -0.4293 H         1 <0>         0.0616
     48 H26        -1.3131    0.4807    0.6246 H         1 <0>         0.0678
     49 H27        -0.0979    1.7548    0.3634 H         1 <0>         0.0611
     50 H28        -1.2720    3.2086    1.9935 H         1 <0>         0.0700
     51 H29        -2.4871    1.9344    2.2546 H         1 <0>         0.0867
     52 H30        -0.5222    0.4102    3.1172 H         1 <0>         0.1268
     53 H31         0.1760    3.3043    3.7075 H         1 <0>         0.1164
     54 H32         3.5021    0.3157    5.4298 H         1 <0>         0.0978
     55 H33         4.4531    1.8138    5.5699 H         1 <0>         0.0702
     56 H34         3.4662    1.1880    7.6532 H         1 <0>         0.4041
     57 H35         3.1314    3.5416    6.8258 H         1 <0>         0.1404
     58 H36         2.2379    4.9751    6.2644 H         1 <0>         0.1138
     59 H37         1.3838    3.4322    6.5061 H         1 <0>         0.1220
     60 H38         4.0461    3.8189    3.3016 H         1 <0>         0.1209
     61 H39         3.9144    5.1292    4.4991 H         1 <0>         0.1259
     62 H40         4.6923    3.5914    4.9445 H         1 <0>         0.1225
     63 H41         1.2855   -0.1511    3.7926 H         1 <0>         0.3840
     64 N1          2.5778    3.5303    4.7774 N.4       1 <0>        -0.3900
     65 H42         1.8504    3.9508    4.1873 H         1 <0>         0.4272
@<TRIPOS>BOND
     1    1    2 1
     2    1   25 1
     3    1   26 1
     4    1   27 1
     5    2    3 1
     6    2   28 1
     7    2   29 1
     8    3    4 1
     9    3   30 1
    10    3   31 1
    11    4    5 1
    12    4   32 1
    13    4   33 1
    14    5    6 1
    15    5   34 1
    16    5   35 1
    17    6    7 1
    18    6   36 1
    19    6   37 1
    20    7    8 1
    21    7   38 1
    22    7   39 1
    23    8    9 1
    24    8   40 1
    25    8   41 1
    26    9   10 1
    27    9   42 1
    28    9   43 1
    29   10   11 1
    30   10   44 1
    31   10   45 1
    32   11   12 1
    33   11   46 1
    34   11   47 1
    35   12   13 1
    36   12   48 1
    37   12   49 1
    38   13   14 1
    39   13   50 1
    40   13   51 1
    41   14   15 2
    42   14   52 1
    43   15   16 1
    44   15   53 1
    45   16   17 1
    46   16   18 1
    47   16   24 1
    48   18   19 1
    49   18   20 1
    50   18   64 1
    51   20   21 1
    52   20   54 1
    53   20   55 1
    54   21   56 1
    55   22   57 1
    56   22   58 1
    57   22   59 1
    58   22   64 1
    59   23   60 1
    60   23   61 1
    61   23   62 1
    62   23   64 1
    63   24   63 1
    64   64   65 1
@<TRIPOS>MOLECULE
ZINC43706449
   65    64     0     0     0
SMALL
USER_CHARGES

@<TRIPOS>ATOM
      1 C1         -0.7558    2.1060   -1.7120 C.3       1 <0>        -0.1548
      2 C2         -0.6694    0.5861   -1.5597 C.3       1 <0>        -0.1260
      3 C3          0.0861   -0.0039   -2.7521 C.3       1 <0>        -0.1215
      4 C4          0.1725   -1.5239   -2.5998 C.3       1 <0>        -0.1211
      5 C5          0.9281   -2.1138   -3.7922 C.3       1 <0>        -0.1210
      6 C6          1.0144   -3.6338   -3.6399 C.3       1 <0>        -0.1205
      7 C7          1.7700   -4.2237   -4.8324 C.3       1 <0>        -0.1212
      8 C8          1.8563   -5.7437   -4.6800 C.3       1 <0>        -0.1203
      9 C9          2.6119   -6.3336   -5.8725 C.3       1 <0>        -0.1216
     10 C10         2.6982   -7.8536   -5.7202 C.3       1 <0>        -0.1199
     11 C11         3.4538   -8.4435   -6.9126 C.3       1 <0>        -0.1226
     12 C12         3.5402   -9.9635   -6.7603 C.3       1 <0>        -0.1145
     13 C13         4.2957  -10.5534   -7.9528 C.3       1 <0>        -0.1051
     14 C14         4.3808  -12.0505   -7.8027 C.2       1 <0>        -0.0847
     15 C15         3.9446  -12.8306   -8.7605 C.2       1 <0>        -0.2353
     16 C16         4.0296  -14.3277   -8.6104 C.3       1 <0>         0.1331
     17 H1          4.4788  -14.5715   -7.6476 H         1 <0>         0.1189
     18 C17         2.6244  -14.9283   -8.6843 C.3       1 <0>        -0.0036
     19 H2          2.0137  -14.5243   -7.8769 H         1 <0>         0.1531
     20 C18         1.9889  -14.5749  -10.0305 C.3       1 <0>         0.0477
     21 O1          2.8115  -15.0681  -11.0897 O.3       1 <0>        -0.5747
     22 N1          2.7085  -16.3889   -8.5509 N.4       1 <0>        -0.3778
     23 C19         3.3187  -16.7282   -7.2585 C.3       1 <0>        -0.0533
     24 C20         1.3593  -16.9655   -8.6219 C.3       1 <0>        -0.0521
     25 O2          4.8340  -14.8669   -9.6613 O.3       1 <0>        -0.5488
     26 H3          0.2497    2.5252   -1.7485 H         1 <0>         0.0537
     27 H4         -1.2845    2.3493   -2.6336 H         1 <0>         0.0535
     28 H5         -1.2941    2.5263   -0.8625 H         1 <0>         0.0543
     29 H6         -0.1407    0.3427   -0.6381 H         1 <0>         0.0604
     30 H7         -1.6749    0.1669   -1.5232 H         1 <0>         0.0601
     31 H8         -0.4426    0.2394   -3.6737 H         1 <0>         0.0606
     32 H9          1.0916    0.4153   -2.7886 H         1 <0>         0.0609
     33 H10         0.7012   -1.7672   -1.6782 H         1 <0>         0.0606
     34 H11        -0.8330   -1.9431   -2.5633 H         1 <0>         0.0603
     35 H12         0.3993   -1.8705   -4.7138 H         1 <0>         0.0605
     36 H13         1.9336   -1.6946   -3.8287 H         1 <0>         0.0609
     37 H14         1.5431   -3.8771   -2.7183 H         1 <0>         0.0606
     38 H15         0.0089   -4.0530   -3.6034 H         1 <0>         0.0601
     39 H16         1.2412   -3.9804   -5.7540 H         1 <0>         0.0606
     40 H17         2.7755   -3.8045   -4.8688 H         1 <0>         0.0612
     41 H18         2.3851   -5.9870   -3.7584 H         1 <0>         0.0608
     42 H19         0.8508   -6.1629   -4.6436 H         1 <0>         0.0599
     43 H20         2.0832   -6.0903   -6.7941 H         1 <0>         0.0609
     44 H21         3.6174   -5.9144   -5.9090 H         1 <0>         0.0620
     45 H22         3.2270   -8.0969   -4.7986 H         1 <0>         0.0617
     46 H23         1.6927   -8.2728   -5.6837 H         1 <0>         0.0599
     47 H24         2.9251   -8.2002   -7.8342 H         1 <0>         0.0624
     48 H25         4.4593   -8.0243   -6.9491 H         1 <0>         0.0648
     49 H26         4.0689  -10.2068   -5.8387 H         1 <0>         0.0658
     50 H27         2.5347  -10.3827   -6.7238 H         1 <0>         0.0614
     51 H28         3.7670  -10.3101   -8.8743 H         1 <0>         0.0718
     52 H29         5.3012  -10.1342   -7.9892 H         1 <0>         0.0847
     53 H30         4.8014  -12.4803   -6.9056 H         1 <0>         0.1160
     54 H31         3.5240  -12.4009   -9.6576 H         1 <0>         0.1234
     55 H32         1.0005  -15.0297  -10.0962 H         1 <0>         0.0780
     56 H33         1.8970  -13.4921  -10.1158 H         1 <0>         0.0969
     57 H34         2.4689  -14.8796  -11.9741 H         1 <0>         0.4111
     58 H35         3.3811  -17.8119   -7.1595 H         1 <0>         0.1271
     59 H36         4.3198  -16.3003   -7.2058 H         1 <0>         0.1253
     60 H37         2.7079  -16.3242   -6.4511 H         1 <0>         0.1213
     61 H38         0.9065  -16.7137   -9.5809 H         1 <0>         0.1220
     62 H39         1.4216  -18.0492   -8.5230 H         1 <0>         0.1267
     63 H40         0.7485  -16.5615   -7.8145 H         1 <0>         0.1213
     64 H41         4.5858  -14.5593  -10.5439 H         1 <0>         0.3973
     65 H42         3.2738  -16.7629   -9.2983 H         1 <0>         0.4368
@<TRIPOS>BOND
     1    1    2 1
     2    1   26 1
     3    1   27 1
     4    1   28 1
     5    2    3 1
     6    2   29 1
     7    2   30 1
     8    3    4 1
     9    3   31 1
    10    3   32 1
    11    4    5 1
    12    4   33 1
    13    4   34 1
    14    5    6 1
    15    5   35 1
    16    5   36 1
    17    6    7 1
    18    6   37 1
    19    6   38 1
    20    7    8 1
    21    7   39 1
    22    7   40 1
    23    8    9 1
    24    8   41 1
    25    8   42 1
    26    9   10 1
    27    9   43 1
    28    9   44 1
    29   10   11 1
    30   10   45 1
    31   10   46 1
    32   11   12 1
    33   11   47 1
    34   11   48 1
    35   12   13 1
    36   12   49 1
    37   12   50 1
    38   13   14 1
    39   13   51 1
    40   13   52 1
    41   14   15 2
    42   14   53 1
    43   15   16 1
    44   15   54 1
    45   16   17 1
    46   16   18 1
    47   16   25 1
    48   18   19 1
    49   18   20 1
    50   18   22 1
    51   20   21 1
    52   20   55 1
    53   20   56 1
    54   21   57 1
    55   22   23 1
    56   22   24 1
    57   22   65 1
    58   23   58 1
    59   23   59 1
    60   23   60 1
    61   24   61 1
    62   24   62 1
    63   24   63 1
    64   25   64 1
@<TRIPOS>MOLECULE
ZINC01166512
   51    54     0     0     0
SMALL
USER_CHARGES
N-[4-(5,7-dimethylbenzooxazol-2-yl)phenyl]-2-(4-methylphenoxy)-acetamide
@<TRIPOS>ATOM
      1 C1          1.8446   -2.0758    2.0202 C.3       1 <0>        -0.1125
      2 C2          1.8006   -0.5741    1.9014 C.ar      1 <0>        -0.1207
      3 C3          0.8451    0.1454    2.5951 C.ar      1 <0>        -0.0795
      4 C4          0.8030    1.5220    2.4882 C.ar      1 <0>        -0.1409
      5 C5          1.7204    2.1826    1.6840 C.ar      1 <0>         0.1197
      6 C6          2.6783    1.4584    0.9894 C.ar      1 <0>        -0.2059
      7 C7          2.7160    0.0819    1.0992 C.ar      1 <0>        -0.0805
      8 O1          1.6812    3.5369    1.5776 O.3       1 <0>        -0.2902
      9 C8          2.6565    4.1496    0.7318 C.3       1 <0>         0.0437
     10 C9          2.4594    5.6436    0.7381 C.2       1 <0>         0.5159
     11 O2          1.5711    6.1353    1.4016 O.2       1 <0>        -0.4863
     12 N1          3.2701    6.4334    0.0064 N.am      1 <0>        -0.6708
     13 C10         3.0206    7.8049   -0.0758 C.ar      1 <0>         0.1747
     14 C11         1.7116    8.2742   -0.0581 C.ar      1 <0>        -0.1247
     15 C12         1.4622    9.6268   -0.1333 C.ar      1 <0>        -0.0573
     16 C13         2.5254   10.5266   -0.2384 C.ar      1 <0>        -0.0480
     17 C14         3.8387   10.0515   -0.2616 C.ar      1 <0>        -0.0402
     18 C15         4.0814    8.6980   -0.1808 C.ar      1 <0>        -0.1468
     19 C16         2.2615   11.9771   -0.3244 C.2       1 <0>         0.2978
     20 N2          3.1822   12.9035   -0.4191 N.2       1 <0>        -0.4718
     21 C17         2.5758   14.1170   -0.4793 C.ar      1 <0>         0.0356
     22 C18         3.0488   15.4273   -0.5858 C.ar      1 <0>        -0.0718
     23 C19         2.1561   16.4748   -0.6181 C.ar      1 <0>        -0.0784
     24 C20         0.7913   16.2372   -0.5456 C.ar      1 <0>        -0.0974
     25 C21         0.3097   14.9486   -0.4401 C.ar      1 <0>        -0.0518
     26 C22         1.1934   13.8812   -0.4061 C.ar      1 <0>         0.0038
     27 O3          1.0390   12.5417   -0.3109 O.3       1 <0>        -0.2062
     28 C23        -1.1750   14.7019   -0.3625 C.3       1 <0>        -0.1161
     29 C24         2.6647   17.8888   -0.7325 C.3       1 <0>        -0.1130
     30 H1          1.2136   -2.5198    1.2502 H         1 <0>         0.0695
     31 H2          2.8707   -2.4204    1.8924 H         1 <0>         0.0656
     32 H3          1.4812   -2.3732    3.0038 H         1 <0>         0.0666
     33 H4          0.1309   -0.3694    3.2207 H         1 <0>         0.1314
     34 H5          0.0537    2.0832    3.0267 H         1 <0>         0.1336
     35 H6          3.3936    1.9704    0.3627 H         1 <0>         0.1276
     36 H7          3.4613   -0.4824    0.5584 H         1 <0>         0.1263
     37 H8          3.6554    3.9134    1.0986 H         1 <0>         0.0984
     38 H9          2.5442    3.7726   -0.2847 H         1 <0>         0.0997
     39 H10         4.0270    6.0492   -0.4631 H         1 <0>         0.4164
     40 H11         0.8899    7.5776    0.0188 H         1 <0>         0.1444
     41 H12         0.4456    9.9909   -0.1151 H         1 <0>         0.1382
     42 H13         4.6630   10.7445   -0.3432 H         1 <0>         0.1464
     43 H14         5.0966    8.3300   -0.1987 H         1 <0>         0.1396
     44 H15         4.1104   15.6176   -0.6426 H         1 <0>         0.1366
     45 H16         0.1006   17.0670   -0.5722 H         1 <0>         0.1412
     46 H17        -1.4906   14.7101    0.6807 H         1 <0>         0.0762
     47 H18        -1.7023   15.4847   -0.9078 H         1 <0>         0.0755
     48 H19        -1.4058   13.7326   -0.8044 H         1 <0>         0.0689
     49 H20         2.8301   18.2972    0.2645 H         1 <0>         0.0752
     50 H21         3.6030   17.8936   -1.2873 H         1 <0>         0.0706
     51 H22         1.9291   18.4982   -1.2574 H         1 <0>         0.0714
@<TRIPOS>BOND
     1    1    2 1
     2    1   30 1
     3    1   31 1
     4    1   32 1
     5    2    7 ar
     6    2    3 ar
     7    3    4 ar
     8    3   33 1
     9    4    5 ar
    10    4   34 1
    11    5    6 ar
    12    5    8 1
    13    6    7 ar
    14    6   35 1
    15    7   36 1
    16    8    9 1
    17    9   10 1
    18    9   37 1
    19    9   38 1
    20   10   11 2
    21   10   12 am
    22   12   13 1
    23   12   39 1
    24   13   18 ar
    25   13   14 ar
    26   14   15 ar
    27   14   40 1
    28   15   16 ar
    29   15   41 1
    30   16   17 ar
    31   16   19 1
    32   17   18 ar
    33   17   42 1
    34   18   43 1
    35   19   27 1
    36   19   20 2
    37   20   21 1
    38   21   26 ar
    39   21   22 ar
    40   22   23 ar
    41   22   44 1
    42   23   24 ar
    43   23   29 1
    44   24   25 ar
    45   24   45 1
    46   25   26 ar
    47   25   28 1
    48   26   27 1
    49   28   46 1
    50   28   47 1
    51   28   48 1
    52   29   49 1
    53   29   50 1
    54   29   51 1
@<TRIPOS>MOLECULE
ZINC01204000
   51    54     0     0     0
SMALL
USER_CHARGES

@<TRIPOS>ATOM
      1 C1          2.5828    0.9820    0.4046 C.3       1 <0>        -0.1096
      2 C2          1.9921   -0.4006    0.3023 C.ar      1 <0>        -0.1085
      3 C3          2.0782   -1.1032   -0.8842 C.ar      1 <0>        -0.0831
      4 C4          1.5361   -2.3714   -0.9789 C.ar      1 <0>        -0.1499
      5 C5          0.9069   -2.9402    0.1133 C.ar      1 <0>        -0.0864
      6 C6          0.8186   -2.2422    1.3019 C.ar      1 <0>        -0.2065
      7 C7          1.3665   -0.9712    1.4010 C.ar      1 <0>         0.1225
      8 O1          1.2858   -0.2846    2.5710 O.3       1 <0>        -0.2866
      9 C8          0.6276   -0.9342    3.6604 C.3       1 <0>         0.0434
     10 C9          0.6350   -0.0278    4.8643 C.2       1 <0>         0.5163
     11 O2          1.1530    1.0668    4.7961 O.2       1 <0>        -0.4864
     12 N1          0.0660   -0.4334    6.0168 N.am      1 <0>        -0.6707
     13 C10         0.1567    0.3648    7.1590 C.ar      1 <0>         0.1711
     14 C11         0.1252    1.7501    7.0416 C.ar      1 <0>        -0.1241
     15 C12         0.2144    2.5403    8.1662 C.ar      1 <0>        -0.0413
     16 C13         0.3361    1.9487    9.4258 C.ar      1 <0>        -0.0466
     17 C14         0.3668    0.5569    9.5402 C.ar      1 <0>        -0.0601
     18 C15         0.2724   -0.2276    8.4119 C.ar      1 <0>        -0.1451
     19 C16         0.4324    2.7929   10.6337 C.2       1 <0>         0.2969
     20 N2          0.4083    4.1021   10.6387 N.2       1 <0>        -0.4702
     21 C17         0.5187    4.5358   11.9207 C.ar      1 <0>         0.0356
     22 C18         0.5495    5.8016   12.5114 C.ar      1 <0>        -0.0711
     23 C19         0.6738    5.9144   13.8778 C.ar      1 <0>        -0.0785
     24 C20         0.7689    4.7800   14.6706 C.ar      1 <0>        -0.0971
     25 C21         0.7403    3.5236   14.1013 C.ar      1 <0>        -0.0525
     26 C22         0.6148    3.3903   12.7273 C.ar      1 <0>         0.0036
     27 O3          0.5521    2.3291   11.8923 O.3       1 <0>        -0.2071
     28 C23         0.8453    2.2981   14.9719 C.3       1 <0>        -0.1155
     29 C24         0.7072    7.2790   14.5164 C.3       1 <0>        -0.1131
     30 H1          3.6209    0.9105    0.7291 H         1 <0>         0.0699
     31 H2          2.5393    1.4687   -0.5697 H         1 <0>         0.0662
     32 H3          2.0153    1.5669    1.1285 H         1 <0>         0.0732
     33 H4          2.5691   -0.6611   -1.7386 H         1 <0>         0.1310
     34 H5          1.6038   -2.9187   -1.9075 H         1 <0>         0.1256
     35 H6          0.4839   -3.9310    0.0368 H         1 <0>         0.1260
     36 H7          0.3270   -2.6868    2.1546 H         1 <0>         0.1272
     37 H8         -0.4018   -1.1588    3.3811 H         1 <0>         0.0985
     38 H9          1.1495   -1.8606    3.8999 H         1 <0>         0.0988
     39 H10        -0.4064   -1.2798    6.0528 H         1 <0>         0.4161
     40 H11         0.0312    2.2069    6.0675 H         1 <0>         0.1504
     41 H12         0.1907    3.6162    8.0743 H         1 <0>         0.1455
     42 H13         0.4612    0.0963   10.5125 H         1 <0>         0.1388
     43 H14         0.2920   -1.3038    8.5000 H         1 <0>         0.1380
     44 H15         0.4766    6.6879   11.8985 H         1 <0>         0.1368
     45 H16         0.8664    4.8811   15.7414 H         1 <0>         0.1412
     46 H17        -0.1524    1.9827   15.2772 H         1 <0>         0.0758
     47 H18         1.3250    1.4950   14.4124 H         1 <0>         0.0686
     48 H19         1.4394    2.5302   15.8558 H         1 <0>         0.0754
     49 H20        -0.3078    7.5888   14.7650 H         1 <0>         0.0752
     50 H21         1.3081    7.2403   15.4250 H         1 <0>         0.0714
     51 H22         1.1456    7.9949   13.8211 H         1 <0>         0.0708
@<TRIPOS>BOND
     1    1    2 1
     2    1   30 1
     3    1   31 1
     4    1   32 1
     5    2    7 ar
     6    2    3 ar
     7    3    4 ar
     8    3   33 1
     9    4    5 ar
    10    4   34 1
    11    5    6 ar
    12    5   35 1
    13    6    7 ar
    14    6   36 1
    15    7    8 1
    16    8    9 1
    17    9   10 1
    18    9   37 1
    19    9   38 1
    20   10   11 2
    21   10   12 am
    22   12   13 1
    23   12   39 1
    24   13   18 ar
    25   13   14 ar
    26   14   15 ar
    27   14   40 1
    28   15   16 ar
    29   15   41 1
    30   16   17 ar
    31   16   19 1
    32   17   18 ar
    33   17   42 1
    34   18   43 1
    35   19   27 1
    36   19   20 2
    37   20   21 1
    38   21   26 ar
    39   21   22 ar
    40   22   23 ar
    41   22   44 1
    42   23   24 ar
    43   23   29 1
    44   24   25 ar
    45   24   45 1
    46   25   26 ar
    47   25   28 1
    48   26   27 1
    49   28   46 1
    50   28   47 1
    51   28   48 1
    52   29   49 1
    53   29   50 1
    54   29   51 1
@<TRIPOS>MOLECULE
ZINC08214714
   66    68     0     0     0
SMALL
USER_CHARGES
ethyl 4-[[3,5-bis(trifluoromethyl)phenyl]methyl-methoxycarbonyl-amino]-2-ethyl-6-(trifluoromethyl)-3,4-dihydro-2H-quinoline-1-carboxylate
@<TRIPOS>ATOM
      1 C1         -3.9516   -5.6498   -2.6734 C.3       1 <0>        -0.1554
      2 C2         -3.2990   -5.0118   -3.9013 C.3       1 <0>        -0.1309
      3 C3         -2.0838   -4.1911   -3.4646 C.3       1 <0>         0.1600
      4 H1         -1.3380   -4.8458   -3.0139 H         1 <0>         0.0914
      5 C4         -2.5155   -3.1215   -2.4529 C.3       1 <0>        -0.1557
      6 C5         -1.2771   -2.3613   -1.9787 C.3       1 <0>         0.2129
      7 H2         -0.6596   -3.0236   -1.3719 H         1 <0>         0.1131
      8 C6         -0.4745   -1.8737   -3.1559 C.ar      1 <0>        -0.1260
      9 C7          0.4144   -0.8272   -2.9736 C.ar      1 <0>        -0.0329
     10 C8          1.1678   -0.3602   -4.0328 C.ar      1 <0>        -0.2062
     11 C9          1.0389   -0.9353   -5.2840 C.ar      1 <0>        -0.0371
     12 C10         0.1540   -1.9774   -5.4745 C.ar      1 <0>        -0.1590
     13 C11        -0.6062   -2.4483   -4.4099 C.ar      1 <0>         0.2151
     14 N1         -1.5048   -3.5025   -4.6262 N.am      1 <0>        -0.5336
     15 C12        -1.8322   -3.8777   -5.8786 C.2       1 <0>         0.6559
     16 O1         -2.5103   -4.8700   -6.0578 O.2       1 <0>        -0.5378
     17 O2         -1.4080   -3.1531   -6.9311 O.3       1 <0>        -0.3538
     18 C13        -1.7986   -3.6162   -8.2507 C.3       1 <0>         0.0689
     19 C14        -1.2279   -2.6731   -9.3118 C.3       1 <0>        -0.1553
     20 C15         2.1321    0.7791   -3.8249 C.3       1 <0>         0.5069
     21 F1          2.7745    1.0726   -5.0325 F         1 <0>        -0.1762
     22 F2          1.4328    1.9071   -3.3824 F         1 <0>        -0.1776
     23 F3          3.0843    0.4151   -2.8667 F         1 <0>        -0.1726
     24 N2         -1.6947   -1.2137   -1.1696 N.am      1 <0>        -0.5921
     25 C16        -1.2774   -1.1144    0.2313 C.3       1 <0>         0.1529
     26 C17         0.0332   -0.3752    0.3139 C.ar      1 <0>        -0.1223
     27 C18         0.0435    0.9999    0.4543 C.ar      1 <0>        -0.0178
     28 C19         1.2457    1.6780    0.5306 C.ar      1 <0>        -0.1826
     29 C20         2.4377    0.9810    0.4649 C.ar      1 <0>        -0.0120
     30 C21         2.4274   -0.3942    0.3254 C.ar      1 <0>        -0.1803
     31 C22         1.2252   -1.0723    0.2496 C.ar      1 <0>        -0.0272
     32 C23         3.7268   -1.1543    0.2563 C.3       1 <0>         0.5102
     33 F4          4.1368   -1.2568   -1.0773 F         1 <0>        -0.1646
     34 F5          4.7035   -0.4762    0.9936 F         1 <0>        -0.1725
     35 F6          3.5466   -2.4355    0.7886 F         1 <0>        -0.1733
     36 C24         1.2569    3.1772    0.6833 C.3       1 <0>         0.5112
     37 F7          1.2524    3.5075    2.0427 F         1 <0>        -0.1708
     38 F8          2.4065    3.6988    0.0804 F         1 <0>        -0.1712
     39 F9          0.1221    3.7170    0.0685 F         1 <0>        -0.1707
     40 C25        -2.4627   -0.2491   -1.7139 C.2       1 <0>         0.6494
     41 O3         -2.8088   -0.3314   -2.8758 O.2       1 <0>        -0.5444
     42 O4         -2.8464    0.8056   -0.9703 O.3       1 <0>        -0.3701
     43 C26        -3.6727    1.8060   -1.6221 C.3       1 <0>         0.0550
     44 H3         -3.2036   -6.2137   -2.1161 H         1 <0>         0.0567
     45 H4         -4.3675   -4.8694   -2.0362 H         1 <0>         0.0539
     46 H5         -4.7488   -6.3210   -2.9931 H         1 <0>         0.0620
     47 H6         -4.0181   -4.3602   -4.3977 H         1 <0>         0.0672
     48 H7         -2.9806   -5.7935   -4.5910 H         1 <0>         0.1117
     49 H8         -2.9994   -3.5989   -1.6008 H         1 <0>         0.0998
     50 H9         -3.2097   -2.4284   -2.9281 H         1 <0>         0.1031
     51 H10         0.5193   -0.3747   -1.9986 H         1 <0>         0.1314
     52 H11         1.6295   -0.5694   -6.1109 H         1 <0>         0.1440
     53 H12         0.0523   -2.4275   -6.4510 H         1 <0>         0.1728
     54 H13        -1.4109   -4.6220   -8.4123 H         1 <0>         0.0749
     55 H14        -2.8860   -3.6298   -8.3238 H         1 <0>         0.0739
     56 H15        -1.6156   -1.6673   -9.1502 H         1 <0>         0.0686
     57 H16        -0.1405   -2.6594   -9.2387 H         1 <0>         0.0680
     58 H17        -1.5211   -3.0208  -10.3024 H         1 <0>         0.0846
     59 H18        -1.1569   -2.1151    0.6462 H         1 <0>         0.1058
     60 H19        -2.0355   -0.5746    0.7988 H         1 <0>         0.1106
     61 H20        -0.8878    1.5450    0.5000 H         1 <0>         0.1536
     62 H21         3.3769    1.5107    0.5248 H         1 <0>         0.1524
     63 H22         1.2171   -2.1468    0.1406 H         1 <0>         0.1485
     64 H23        -3.9102    2.5991   -0.9131 H         1 <0>         0.1056
     65 H24        -3.1327    2.2267   -2.4703 H         1 <0>         0.0651
     66 H25        -4.5954    1.3432   -1.9721 H         1 <0>         0.0649
@<TRIPOS>BOND
     1    1    2 1
     2    1   44 1
     3    1   45 1
     4    1   46 1
     5    2    3 1
     6    2   47 1
     7    2   48 1
     8    3    4 1
     9    3   14 1
    10    3    5 1
    11    5    6 1
    12    5   49 1
    13    5   50 1
    14    6    7 1
    15    6    8 1
    16    6   24 1
    17    8   13 ar
    18    8    9 ar
    19    9   10 ar
    20    9   51 1
    21   10   11 ar
    22   10   20 1
    23   11   12 ar
    24   11   52 1
    25   12   13 ar
    26   12   53 1
    27   13   14 1
    28   14   15 am
    29   15   16 2
    30   15   17 1
    31   17   18 1
    32   18   19 1
    33   18   54 1
    34   18   55 1
    35   19   56 1
    36   19   57 1
    37   19   58 1
    38   20   21 1
    39   20   22 1
    40   20   23 1
    41   24   25 1
    42   24   40 am
    43   25   26 1
    44   25   59 1
    45   25   60 1
    46   26   31 ar
    47   26   27 ar
    48   27   28 ar
    49   27   61 1
    50   28   29 ar
    51   28   36 1
    52   29   30 ar
    53   29   62 1
    54   30   31 ar
    55   30   32 1
    56   31   63 1
    57   32   33 1
    58   32   34 1
    59   32   35 1
    60   36   37 1
    61   36   38 1
    62   36   39 1
    63   40   41 2
    64   40   42 1
    65   42   43 1
    66   43   64 1
    67   43   65 1
    68   43   66 1
@<TRIPOS>MOLECULE
ZINC04699664
   46    49     0     0     0
SMALL
USER_CHARGES

@<TRIPOS>ATOM
      1 C1         -2.0828    0.8396   -0.9348 C.3       1 <0>         0.0260
      2 O1         -1.4460   -0.4102   -0.6619 O.3       1 <0>        -0.3176
      3 C2         -0.7666   -0.9933   -1.6854 C.ar      1 <0>         0.0948
      4 C3         -0.7104   -0.3713   -2.9238 C.ar      1 <0>        -0.1667
      5 C4         -0.0202   -0.9636   -3.9635 C.ar      1 <0>        -0.1036
      6 C5          0.6169   -2.1802   -3.7688 C.ar      1 <0>         0.0898
      7 C6          0.5614   -2.8017   -2.5302 C.ar      1 <0>        -0.1690
      8 C7         -0.1251   -2.2073   -1.4893 C.ar      1 <0>        -0.1115
      9 O2          1.2955   -2.7637   -4.7926 O.3       1 <0>        -0.2897
     10 C8          1.9278   -4.0162   -4.5213 C.3       1 <0>         0.0437
     11 C9          2.6256   -4.5062   -5.7638 C.2       1 <0>         0.5165
     12 O3          2.5854   -3.8478   -6.7816 O.2       1 <0>        -0.4864
     13 N1          3.2942   -5.6763   -5.7442 N.am      1 <0>        -0.6710
     14 C10         3.8590   -6.1775   -6.9188 C.ar      1 <0>         0.1744
     15 C11         4.3987   -5.3042   -7.8568 C.ar      1 <0>        -0.1250
     16 C12         4.9565   -5.7953   -9.0165 C.ar      1 <0>        -0.0388
     17 C13         4.9800   -7.1724   -9.2497 C.ar      1 <0>        -0.0518
     18 C14         4.4374   -8.0469   -8.3052 C.ar      1 <0>        -0.0576
     19 C15         3.8855   -7.5494   -7.1454 C.ar      1 <0>        -0.1456
     20 C16         5.5768   -7.7025  -10.4922 C.2       1 <0>         0.3077
     21 N2          6.1154   -6.9732  -11.4371 N.2       1 <0>        -0.4684
     22 C17         6.5590   -7.7946  -12.4232 C.ar      1 <0>         0.0402
     23 C18         7.2007   -7.5756  -13.6447 C.ar      1 <0>        -0.0529
     24 C19         7.5300   -8.6476  -14.4451 C.ar      1 <0>        -0.0344
     25 C20         7.2280   -9.9421  -14.0447 C.ar      1 <0>        -0.0855
     26 C21         6.5946  -10.1724  -12.8409 C.ar      1 <0>        -0.0748
     27 C22         6.2558   -9.1060  -12.0228 C.ar      1 <0>         0.0114
     28 O4          5.6522   -9.0071  -10.8171 O.3       1 <0>        -0.2050
     29 Cl1         8.3268   -8.3780  -15.9637 Cl        1 <0>        -0.0495
     30 H1         -1.3340    1.5694   -1.2426 H         1 <0>         0.0561
     31 H2         -2.8126    0.7088   -1.7338 H         1 <0>         0.0561
     32 H3         -2.5876    1.1940   -0.0361 H         1 <0>         0.1014
     33 H4         -1.2065    0.5760   -3.0754 H         1 <0>         0.1374
     34 H5          0.0230   -0.4797   -4.9280 H         1 <0>         0.1372
     35 H6          1.0572   -3.7491   -2.3787 H         1 <0>         0.1350
     36 H7         -0.1651   -2.6894   -0.5237 H         1 <0>         0.1360
     37 H8          2.6570   -3.8893   -3.7212 H         1 <0>         0.0989
     38 H9          1.1761   -4.7440   -4.2157 H         1 <0>         0.0991
     39 H10         3.3832   -6.1701   -4.9141 H         1 <0>         0.4166
     40 H11         4.3801   -4.2396   -7.6759 H         1 <0>         0.1512
     41 H12         5.3748   -5.1164   -9.7449 H         1 <0>         0.1462
     42 H13         4.4538   -9.1121   -8.4826 H         1 <0>         0.1397
     43 H14         3.4695   -8.2252   -6.4128 H         1 <0>         0.1390
     44 H15         7.4373   -6.5702  -13.9605 H         1 <0>         0.1491
     45 H16         7.4905  -10.7749  -14.6803 H         1 <0>         0.1534
     46 H17         6.3627  -11.1824  -12.5366 H         1 <0>         0.1479
@<TRIPOS>BOND
     1    1    2 1
     2    1   30 1
     3    1   31 1
     4    1   32 1
     5    2    3 1
     6    3    8 ar
     7    3    4 ar
     8    4    5 ar
     9    4   33 1
    10    5    6 ar
    11    5   34 1
    12    6    7 ar
    13    6    9 1
    14    7    8 ar
    15    7   35 1
    16    8   36 1
    17    9   10 1
    18   10   11 1
    19   10   37 1
    20   10   38 1
    21   11   12 2
    22   11   13 am
    23   13   14 1
    24   13   39 1
    25   14   19 ar
    26   14   15 ar
    27   15   16 ar
    28   15   40 1
    29   16   17 ar
    30   16   41 1
    31   17   18 ar
    32   17   20 1
    33   18   19 ar
    34   18   42 1
    35   19   43 1
    36   20   28 1
    37   20   21 2
    38   21   22 1
    39   22   27 ar
    40   22   23 ar
    41   23   24 ar
    42   23   44 1
    43   24   25 ar
    44   24   29 1
    45   25   26 ar
    46   25   45 1
    47   26   27 ar
    48   26   46 1
    49   27   28 1
@<TRIPOS>MOLECULE
ZINC01208717
   42    45     0     0     0
SMALL
USER_CHARGES
N-[4-(5-chlorobenzooxazol-2-yl)phenyl]-2-phenoxy-acetamide
@<TRIPOS>ATOM
      1 C1          0.1371   -1.3518   -4.4599 C.ar      1 <0>        -0.1551
      2 C2         -1.2236   -1.2426   -4.2398 C.ar      1 <0>        -0.0786
      3 C3         -1.6931   -0.7794   -3.0260 C.ar      1 <0>        -0.1459
      4 C4         -0.7982   -0.4236   -2.0274 C.ar      1 <0>         0.1250
      5 C5          0.5667   -0.5286   -2.2528 C.ar      1 <0>        -0.2110
      6 C6          1.0311   -0.9982   -3.4661 C.ar      1 <0>        -0.0798
      7 O1         -1.2576    0.0324   -0.8325 O.3       1 <0>        -0.2902
      8 C7         -0.2789    0.3802    0.1489 C.3       1 <0>         0.0434
      9 C8         -0.9697    0.8613    1.3989 C.2       1 <0>         0.5162
     10 O2         -2.1810    0.9023    1.4447 O.2       1 <0>        -0.4859
     11 N1         -0.2416    1.2460    2.4658 N.am      1 <0>        -0.6710
     12 C9         -0.8754    1.7948    3.5825 C.ar      1 <0>         0.1779
     13 C10        -2.0151    2.5748    3.4197 C.ar      1 <0>        -0.1255
     14 C11        -2.6456    3.1137    4.5195 C.ar      1 <0>        -0.0549
     15 C12        -2.1329    2.8843    5.7985 C.ar      1 <0>        -0.0530
     16 C13        -0.9849    2.1047    5.9580 C.ar      1 <0>        -0.0377
     17 C14        -0.3622    1.5648    4.8543 C.ar      1 <0>        -0.1473
     18 C15        -2.8035    3.4644    6.9796 C.2       1 <0>         0.3085
     19 N2         -2.4109    3.3067    8.2188 N.2       1 <0>        -0.4698
     20 C16        -3.2609    3.9813    9.0352 C.ar      1 <0>         0.0401
     21 C17        -3.3286    4.1624   10.4189 C.ar      1 <0>        -0.0533
     22 C18        -4.3452    4.9188   10.9597 C.ar      1 <0>        -0.0343
     23 C19        -5.3008    5.5013   10.1382 C.ar      1 <0>        -0.0856
     24 C20        -5.2459    5.3300    8.7704 C.ar      1 <0>        -0.0745
     25 C21        -4.2302    4.5722    8.2087 C.ar      1 <0>         0.0117
     26 O3         -3.9118    4.2282    6.9406 O.3       1 <0>        -0.2042
     27 Cl1        -4.4315    5.1453   12.6787 Cl        1 <0>        -0.0496
     28 H1          0.5022   -1.7142   -5.4095 H         1 <0>         0.1258
     29 H2         -1.9199   -1.5201   -5.0173 H         1 <0>         0.1320
     30 H3         -2.7560   -0.6940   -2.8546 H         1 <0>         0.1334
     31 H4          1.2655   -0.2480   -1.4786 H         1 <0>         0.1274
     32 H5          2.0934   -1.0844   -3.6405 H         1 <0>         0.1268
     33 H6          0.3278   -0.4946    0.3829 H         1 <0>         0.0989
     34 H7          0.3607    1.1723   -0.2405 H         1 <0>         0.1003
     35 H8          0.7228    1.1416    2.4579 H         1 <0>         0.4169
     36 H9         -2.4088    2.7549    2.4303 H         1 <0>         0.1452
     37 H10        -3.5330    3.7160    4.3928 H         1 <0>         0.1392
     38 H11        -0.5858    1.9258    6.9454 H         1 <0>         0.1472
     39 H12         0.5255    0.9620    4.9769 H         1 <0>         0.1405
     40 H13        -2.5869    3.7117   11.0617 H         1 <0>         0.1489
     41 H14        -6.0931    6.0925   10.5731 H         1 <0>         0.1535
     42 H15        -5.9931    5.7863    8.1380 H         1 <0>         0.1482
@<TRIPOS>BOND
     1    1    6 ar
     2    1    2 ar
     3    1   28 1
     4    2    3 ar
     5    2   29 1
     6    3    4 ar
     7    3   30 1
     8    4    5 ar
     9    4    7 1
    10    5    6 ar
    11    5   31 1
    12    6   32 1
    13    7    8 1
    14    8    9 1
    15    8   33 1
    16    8   34 1
    17    9   10 2
    18    9   11 am
    19   11   12 1
    20   11   35 1
    21   12   17 ar
    22   12   13 ar
    23   13   14 ar
    24   13   36 1
    25   14   15 ar
    26   14   37 1
    27   15   16 ar
    28   15   18 1
    29   16   17 ar
    30   16   38 1
    31   17   39 1
    32   18   26 1
    33   18   19 2
    34   19   20 1
    35   20   25 ar
    36   20   21 ar
    37   21   22 ar
    38   21   40 1
    39   22   23 ar
    40   22   27 1
    41   23   24 ar
    42   23   41 1
    43   24   25 ar
    44   24   42 1
    45   25   26 1
@<TRIPOS>MOLECULE
ZINC06227152
   42    45     0     0     0
SMALL
USER_CHARGES
N-[4-(5-chlorobenzooxazol-2-yl)phenyl]-2-(2-chlorophenoxy)-acetamide
@<TRIPOS>ATOM
      1 C1         15.1118    1.0677   -0.5326 C.ar      1 <0>        -0.0742
      2 C2         15.6641   -0.0672   -1.0973 C.ar      1 <0>        -0.1420
      3 C3         14.8470   -1.0311   -1.6580 C.ar      1 <0>        -0.0715
      4 C4         13.4748   -0.8621   -1.6553 C.ar      1 <0>        -0.0656
      5 C5         12.9184    0.2765   -1.0888 C.ar      1 <0>         0.1348
      6 C6         13.7416    1.2443   -0.5322 C.ar      1 <0>        -0.2001
      7 O1         11.5697    0.4454   -1.0845 O.3       1 <0>        -0.2781
      8 C7         11.0675    1.6412   -0.4845 C.3       1 <0>         0.0413
      9 C8          9.5632    1.6539   -0.5726 C.2       1 <0>         0.5158
     10 O2          8.9786    0.7299   -1.0975 O.2       1 <0>        -0.4817
     11 N1          8.8674    2.6920   -0.0680 N.am      1 <0>        -0.6708
     12 C9          7.4716    2.6542   -0.0499 C.ar      1 <0>         0.1779
     13 C10         6.8127    1.4434    0.1342 C.ar      1 <0>        -0.1253
     14 C11         5.4360    1.4026    0.1530 C.ar      1 <0>        -0.0549
     15 C12         4.7016    2.5792   -0.0131 C.ar      1 <0>        -0.0529
     16 C13         5.3666    3.7928   -0.2036 C.ar      1 <0>        -0.0378
     17 C14         6.7435    3.8274   -0.2157 C.ar      1 <0>        -0.1472
     18 C15         3.2255    2.5392    0.0065 C.2       1 <0>         0.3084
     19 N2          2.4442    3.5800   -0.1393 N.2       1 <0>        -0.4697
     20 C16         1.1519    3.1692   -0.0673 C.ar      1 <0>         0.0401
     21 C17        -0.0761    3.8298   -0.1528 C.ar      1 <0>        -0.0533
     22 C18        -1.2470    3.1129   -0.0365 C.ar      1 <0>        -0.0343
     23 C19        -1.2128    1.7389    0.1588 C.ar      1 <0>        -0.0856
     24 C20        -0.0070    1.0750    0.2507 C.ar      1 <0>        -0.0745
     25 C21         1.1809    1.7801    0.1364 C.ar      1 <0>         0.0117
     26 O3          2.4854    1.4272    0.1765 O.3       1 <0>        -0.2041
     27 Cl1        -2.7741    3.9316   -0.1425 Cl        1 <0>        -0.0495
     28 Cl2        12.4488   -2.0723   -2.3599 Cl        1 <0>        -0.0487
     29 H1         15.7526    1.8193   -0.0956 H         1 <0>         0.1341
     30 H2         16.7358   -0.2007   -1.1007 H         1 <0>         0.1360
     31 H3         15.2808   -1.9165   -2.0988 H         1 <0>         0.1423
     32 H4         13.3114    2.1333   -0.0952 H         1 <0>         0.1369
     33 H5         11.4696    2.5077   -1.0095 H         1 <0>         0.1009
     34 H6         11.3706    1.6775    0.5619 H         1 <0>         0.1022
     35 H7          9.3361    3.4655    0.2826 H         1 <0>         0.4167
     36 H8          7.3811    0.5341    0.2623 H         1 <0>         0.1455
     37 H9          4.9249    0.4619    0.2957 H         1 <0>         0.1392
     38 H10         4.8017    4.7035   -0.3372 H         1 <0>         0.1472
     39 H11         7.2583    4.7660   -0.3585 H         1 <0>         0.1404
     40 H12        -0.1076    4.8979   -0.3097 H         1 <0>         0.1489
     41 H13        -2.1369    1.1864    0.2441 H         1 <0>         0.1535
     42 H14         0.0113    0.0065    0.4071 H         1 <0>         0.1482
@<TRIPOS>BOND
     1    1    6 ar
     2    1    2 ar
     3    1   29 1
     4    2    3 ar
     5    2   30 1
     6    3    4 ar
     7    3   31 1
     8    4    5 ar
     9    4   28 1
    10    5    6 ar
    11    5    7 1
    12    6   32 1
    13    7    8 1
    14    8    9 1
    15    8   33 1
    16    8   34 1
    17    9   10 2
    18    9   11 am
    19   11   12 1
    20   11   35 1
    21   12   17 ar
    22   12   13 ar
    23   13   14 ar
    24   13   36 1
    25   14   15 ar
    26   14   37 1
    27   15   16 ar
    28   15   18 1
    29   16   17 ar
    30   16   38 1
    31   17   39 1
    32   18   26 1
    33   18   19 2
    34   19   20 1
    35   20   25 ar
    36   20   21 ar
    37   21   22 ar
    38   21   40 1
    39   22   23 ar
    40   22   27 1
    41   23   24 ar
    42   23   41 1
    43   24   25 ar
    44   24   42 1
    45   25   26 1
@<TRIPOS>MOLECULE
ZINC01166726
   42    45     0     0     0
SMALL
USER_CHARGES
N-[4-(5-chlorobenzooxazol-2-yl)phenyl]-2-(4-chlorophenoxy)-acetamide
@<TRIPOS>ATOM
      1 C1          5.3666    3.7928   -0.2036 C.ar      1 <0>        -0.0378
      2 C2          6.7435    3.8274   -0.2157 C.ar      1 <0>        -0.1468
      3 C3          7.4716    2.6542   -0.0499 C.ar      1 <0>         0.1770
      4 C4          6.8127    1.4434    0.1342 C.ar      1 <0>        -0.1252
      5 C5          5.4360    1.4026    0.1530 C.ar      1 <0>        -0.0551
      6 C6          4.7016    2.5792   -0.0131 C.ar      1 <0>        -0.0523
      7 C7          3.2255    2.5392    0.0065 C.2       1 <0>         0.3079
      8 N1          2.4442    3.5800   -0.1393 N.2       1 <0>        -0.4694
      9 C8          1.1519    3.1692   -0.0673 C.ar      1 <0>         0.0400
     10 C9         -0.0761    3.8298   -0.1528 C.ar      1 <0>        -0.0532
     11 C10        -1.2470    3.1129   -0.0365 C.ar      1 <0>        -0.0343
     12 C11        -1.2128    1.7389    0.1588 C.ar      1 <0>        -0.0854
     13 C12        -0.0070    1.0750    0.2507 C.ar      1 <0>        -0.0745
     14 C13         1.1809    1.7801    0.1364 C.ar      1 <0>         0.0118
     15 O1          2.4854    1.4272    0.1765 O.3       1 <0>        -0.2042
     16 Cl1        -2.7741    3.9316   -0.1425 Cl        1 <0>        -0.0494
     17 N2          8.8674    2.6920   -0.0680 N.am      1 <0>        -0.6704
     18 C14         9.5632    1.6539   -0.5726 C.2       1 <0>         0.5164
     19 O2          8.9786    0.7299   -1.0975 O.2       1 <0>        -0.4853
     20 C15        11.0675    1.6412   -0.4845 C.3       1 <0>         0.0413
     21 O3         11.5697    0.4454   -1.0845 O.3       1 <0>        -0.2859
     22 C16        12.9184    0.2765   -1.0888 C.ar      1 <0>         0.1324
     23 C17        13.7413    1.2446   -0.5321 C.ar      1 <0>        -0.1989
     24 C18        15.1115    1.0689   -0.5332 C.ar      1 <0>        -0.0682
     25 C19        15.6639   -0.0669   -1.0984 C.ar      1 <0>        -0.0710
     26 C20        14.8450   -1.0312   -1.6588 C.ar      1 <0>        -0.0679
     27 C21        13.4740   -0.8615   -1.6550 C.ar      1 <0>        -0.1326
     28 Cl2        17.3864   -0.2826   -1.1038 Cl        1 <0>        -0.0663
     29 H1          4.8017    4.7035   -0.3372 H         1 <0>         0.1473
     30 H2          7.2583    4.7660   -0.3585 H         1 <0>         0.1406
     31 H3          7.3811    0.5341    0.2623 H         1 <0>         0.1453
     32 H4          4.9249    0.4619    0.2957 H         1 <0>         0.1393
     33 H5         -0.1076    4.8979   -0.3097 H         1 <0>         0.1489
     34 H6         -2.1369    1.1864    0.2441 H         1 <0>         0.1536
     35 H7          0.0113    0.0065    0.4071 H         1 <0>         0.1482
     36 H8          9.3361    3.4655    0.2826 H         1 <0>         0.4171
     37 H9         11.4696    2.5077   -1.0095 H         1 <0>         0.1011
     38 H10        11.3706    1.6775    0.5619 H         1 <0>         0.1024
     39 H11        13.3108    2.1332   -0.0945 H         1 <0>         0.1376
     40 H12        15.7523    1.8205   -0.0962 H         1 <0>         0.1385
     41 H13        15.2779   -1.9172   -2.0992 H         1 <0>         0.1434
     42 H14        12.8351   -1.6146   -2.0922 H         1 <0>         0.1441
@<TRIPOS>BOND
     1    1    6 ar
     2    1    2 ar
     3    1   29 1
     4    2    3 ar
     5    2   30 1
     6    3    4 ar
     7    3   17 1
     8    4    5 ar
     9    4   31 1
    10    5    6 ar
    11    5   32 1
    12    6    7 1
    13    7   15 1
    14    7    8 2
    15    8    9 1
    16    9   14 ar
    17    9   10 ar
    18   10   11 ar
    19   10   33 1
    20   11   12 ar
    21   11   16 1
    22   12   13 ar
    23   12   34 1
    24   13   14 ar
    25   13   35 1
    26   14   15 1
    27   17   18 am
    28   17   36 1
    29   18   19 2
    30   18   20 1
    31   20   21 1
    32   20   37 1
    33   20   38 1
    34   21   22 1
    35   22   27 ar
    36   22   23 ar
    37   23   24 ar
    38   23   39 1
    39   24   25 ar
    40   24   40 1
    41   25   26 ar
    42   25   28 1
    43   26   27 ar
    44   26   41 1
    45   27   42 1
@<TRIPOS>MOLECULE
ZINC01207720
   44    47     0     0     0
SMALL
USER_CHARGES
N-[4-(5-chloro-1,3-benzoxazol-2-yl)phenyl]-2-(2-nitrophenoxy)acetamide
@<TRIPOS>ATOM
      1 C1         15.6632   -0.0666   -1.0988 C.ar      1 <0>        -0.1530
      2 C2         15.1115    1.0687   -0.5338 C.ar      1 <0>        -0.0253
      3 C3         13.7416    1.2447   -0.5321 C.ar      1 <0>        -0.2160
      4 C4         12.9182    0.2765   -1.0888 C.ar      1 <0>         0.1934
      5 C5         13.4740   -0.8613   -1.6549 C.ar      1 <0>        -0.0763
      6 C6         14.8453   -1.0304   -1.6584 C.ar      1 <0>        -0.0180
      7 N1         12.5990   -1.8931   -2.2550 N.pl3     1 <0>         0.0289
      8 O1         13.0876   -2.8920   -2.7519 O.2       1 <0>        -0.1783
      9 O2         11.3902   -1.7433   -2.2520 O.3       1 <0>        -0.1217
     10 O3         11.5697    0.4454   -1.0845 O.3       1 <0>        -0.2565
     11 C7         11.0675    1.6412   -0.4845 C.3       1 <0>         0.0347
     12 C8          9.5632    1.6539   -0.5726 C.2       1 <0>         0.5132
     13 O4          8.9786    0.7299   -1.0975 O.2       1 <0>        -0.4697
     14 N2          8.8674    2.6920   -0.0680 N.am      1 <0>        -0.6707
     15 C9          7.4716    2.6542   -0.0499 C.ar      1 <0>         0.1771
     16 C10         6.8127    1.4434    0.1342 C.ar      1 <0>        -0.1245
     17 C11         5.4360    1.4026    0.1530 C.ar      1 <0>        -0.0543
     18 C12         4.7016    2.5792   -0.0131 C.ar      1 <0>        -0.0521
     19 C13         5.3666    3.7928   -0.2036 C.ar      1 <0>        -0.0382
     20 C14         6.7435    3.8274   -0.2157 C.ar      1 <0>        -0.1469
     21 C15         3.2255    2.5392    0.0065 C.2       1 <0>         0.3082
     22 N3          2.4442    3.5800   -0.1393 N.2       1 <0>        -0.4698
     23 C16         1.1519    3.1692   -0.0673 C.ar      1 <0>         0.0400
     24 C17        -0.0761    3.8298   -0.1528 C.ar      1 <0>        -0.0534
     25 C18        -1.2470    3.1129   -0.0365 C.ar      1 <0>        -0.0343
     26 C19        -1.2128    1.7389    0.1588 C.ar      1 <0>        -0.0855
     27 C20        -0.0070    1.0750    0.2507 C.ar      1 <0>        -0.0743
     28 C21         1.1809    1.7801    0.1364 C.ar      1 <0>         0.0120
     29 O5          2.4854    1.4272    0.1765 O.3       1 <0>        -0.2038
     30 Cl1        -2.7741    3.9316   -0.1425 Cl        1 <0>        -0.0497
     31 H1         16.7349   -0.2003   -1.1031 H         1 <0>         0.1511
     32 H2         15.7526    1.8202   -0.0972 H         1 <0>         0.1483
     33 H3         13.3114    2.1336   -0.0947 H         1 <0>         0.1518
     34 H4         15.2786   -1.9161   -2.0990 H         1 <0>         0.1618
     35 H5         11.4696    2.5077   -1.0095 H         1 <0>         0.1053
     36 H6         11.3706    1.6775    0.5619 H         1 <0>         0.1067
     37 H7          9.3361    3.4655    0.2826 H         1 <0>         0.4160
     38 H8          7.3811    0.5341    0.2623 H         1 <0>         0.1464
     39 H9          4.9249    0.4619    0.2957 H         1 <0>         0.1398
     40 H10         4.8017    4.7035   -0.3372 H         1 <0>         0.1471
     41 H11         7.2583    4.7660   -0.3585 H         1 <0>         0.1400
     42 H12        -0.1076    4.8979   -0.3097 H         1 <0>         0.1487
     43 H13        -2.1369    1.1864    0.2441 H         1 <0>         0.1535
     44 H14         0.0113    0.0065    0.4071 H         1 <0>         0.1484
@<TRIPOS>BOND
     1    1    6 ar
     2    1    2 ar
     3    1   31 1
     4    2    3 ar
     5    2   32 1
     6    3    4 ar
     7    3   33 1
     8    4    5 ar
     9    4   10 1
    10    5    6 ar
    11    5    7 1
    12    6   34 1
    13    7    8 2
    14    7    9 1
    15   10   11 1
    16   11   12 1
    17   11   35 1
    18   11   36 1
    19   12   13 2
    20   12   14 am
    21   14   15 1
    22   14   37 1
    23   15   20 ar
    24   15   16 ar
    25   16   17 ar
    26   16   38 1
    27   17   18 ar
    28   17   39 1
    29   18   19 ar
    30   18   21 1
    31   19   20 ar
    32   19   40 1
    33   20   41 1
    34   21   29 1
    35   21   22 2
    36   22   23 1
    37   23   28 ar
    38   23   24 ar
    39   24   25 ar
    40   24   42 1
    41   25   26 ar
    42   25   30 1
    43   26   27 ar
    44   26   43 1
    45   27   28 ar
    46   27   44 1
    47   28   29 1
