@<TRIPOS>MOLECULE
ZINC08587503
   57    62     0     0     0
SMALL
USER_CHARGES

@<TRIPOS>ATOM
      1 C1         -0.3037    2.2148   -0.1392 C.3       1 <0>         0.0815
      2 N1          0.0533    0.8015   -0.2852 N.am      1 <0>        -0.5250
      3 C2         -0.9037   -0.2129   -0.1333 C.2       1 <0>         0.1271
      4 C3         -0.4791   -1.6267   -0.2930 C.2       1 <0>        -0.2667
      5 C4         -1.6000   -2.3955   -0.1002 C.2       1 <0>         0.2223
      6 N2         -2.6382   -1.5526    0.1464 N.pl3     1 <0>        -0.3648
      7 C5         -2.1979   -0.2359    0.1486 C.2       1 <0>        -0.0196
      8 C6         -3.1348    0.9119    0.4564 C.3       1 <0>         0.2798
      9 H1         -2.8608    1.7819   -0.1404 H         1 <0>         0.1222
     10 N3         -4.5004    0.4845    0.1154 N.pl3     1 <0>        -0.7469
     11 C7         -4.9151   -0.8243    0.3863 C.ar      1 <0>         0.1883
     12 C8         -3.9831   -1.8673    0.3890 C.ar      1 <0>         0.0636
     13 C9         -4.3905   -3.1653    0.6294 C.ar      1 <0>        -0.0987
     14 C10        -5.7253   -3.4303    0.8827 C.ar      1 <0>        -0.1271
     15 C11        -6.6476   -2.4002    0.8955 C.ar      1 <0>        -0.0759
     16 C12        -6.2479   -1.0997    0.6484 C.ar      1 <0>        -0.1536
     17 C13        -3.0575    1.2543    1.9220 C.ar      1 <0>        -0.1065
     18 C14        -2.4773    2.4429    2.3245 C.ar      1 <0>        -0.0616
     19 C15        -2.4064    2.7569    3.6686 C.ar      1 <0>        -0.1112
     20 C16        -2.9161    1.8826    4.6106 C.ar      1 <0>        -0.0501
     21 C17        -3.4969    0.6948    4.2081 C.ar      1 <0>        -0.0457
     22 C18        -3.5717    0.3827    2.8633 C.ar      1 <0>        -0.0333
     23 N4         -4.0421   -0.2415    5.2166 N.pl3     1 <0>         0.0315
     24 O1         -3.9794    0.0328    6.3924 O.2       1 <0>        -0.1537
     25 O2         -4.5502   -1.2805    4.8646 O.3       1 <0>        -0.1523
     26 C19        -1.6663   -3.8689   -0.1518 C.ar      1 <0>        -0.0569
     27 C20        -0.8720   -4.6374    0.7026 C.ar      1 <0>        -0.0624
     28 C21        -0.9391   -6.0140    0.6489 C.ar      1 <0>        -0.1169
     29 C22        -1.7906   -6.6340   -0.2486 C.ar      1 <0>        -0.0968
     30 C23        -2.5799   -5.8790   -1.0983 C.ar      1 <0>        -0.1216
     31 C24        -2.5278   -4.5016   -1.0513 C.ar      1 <0>        -0.0901
     32 C25         0.9239   -1.9225   -0.6002 C.2       1 <0>         0.6016
     33 O3          1.3331   -3.0598   -0.7394 O.2       1 <0>        -0.4832
     34 N5          1.7351   -0.8398   -0.7191 N.am      1 <0>        -0.5608
     35 C26         1.3170    0.4217   -0.5772 C.2       1 <0>         0.7114
     36 O4          2.1443    1.3015   -0.7179 O.2       1 <0>        -0.5513
     37 C27         3.1493   -1.0676   -1.0265 C.3       1 <0>         0.0776
     38 H2          0.5556    2.8348   -0.3943 H         1 <0>         0.1086
     39 H3         -1.1329    2.4508   -0.8061 H         1 <0>         0.0740
     40 H4         -0.5996    2.4102    0.8916 H         1 <0>         0.0712
     41 H5         -5.1148    1.1111   -0.2979 H         1 <0>         0.4144
     42 H6         -3.6704   -3.9702    0.6194 H         1 <0>         0.1470
     43 H7         -6.0471   -4.4440    1.0705 H         1 <0>         0.1355
     44 H8         -7.6866   -2.6127    1.0995 H         1 <0>         0.1338
     45 H9         -6.9733   -0.2996    0.6596 H         1 <0>         0.1345
     46 H10        -2.0792    3.1259    1.5887 H         1 <0>         0.1476
     47 H11        -1.9526    3.6851    3.9831 H         1 <0>         0.1539
     48 H12        -2.8601    2.1277    5.6609 H         1 <0>         0.1568
     49 H13        -4.0289   -0.5438    2.5486 H         1 <0>         0.1493
     50 H14        -0.2068   -4.1549    1.4033 H         1 <0>         0.1251
     51 H15        -0.3254   -6.6095    1.3086 H         1 <0>         0.1310
     52 H16        -1.8391   -7.7122   -0.2864 H         1 <0>         0.1289
     53 H17        -3.2419   -6.3696   -1.7965 H         1 <0>         0.1306
     54 H18        -3.1482   -3.9135   -1.7114 H         1 <0>         0.1243
     55 H19         3.2893   -1.0766   -2.1074 H         1 <0>         0.0730
     56 H20         3.7493   -0.2697   -0.5890 H         1 <0>         0.0945
     57 H21         3.4615   -2.0261   -0.6117 H         1 <0>         0.0920
@<TRIPOS>BOND
     1    1    2 1
     2    1   38 1
     3    1   39 1
     4    1   40 1
     5    2   35 am
     6    2    3 1
     7    3    7 2
     8    3    4 1
     9    4    5 2
    10    4   32 1
    11    5    6 1
    12    5   26 1
    13    6   12 1
    14    6    7 1
    15    7    8 1
    16    8    9 1
    17    8   10 1
    18    8   17 1
    19   10   11 1
    20   10   41 1
    21   11   16 ar
    22   11   12 ar
    23   12   13 ar
    24   13   14 ar
    25   13   42 1
    26   14   15 ar
    27   14   43 1
    28   15   16 ar
    29   15   44 1
    30   16   45 1
    31   17   22 ar
    32   17   18 ar
    33   18   19 ar
    34   18   46 1
    35   19   20 ar
    36   19   47 1
    37   20   21 ar
    38   20   48 1
    39   21   22 ar
    40   21   23 1
    41   22   49 1
    42   23   24 2
    43   23   25 1
    44   26   31 ar
    45   26   27 ar
    46   27   28 ar
    47   27   50 1
    48   28   29 ar
    49   28   51 1
    50   29   30 ar
    51   29   52 1
    52   30   31 ar
    53   30   53 1
    54   31   54 1
    55   32   33 2
    56   32   34 am
    57   34   35 am
    58   34   37 1
    59   35   36 2
    60   37   55 1
    61   37   56 1
    62   37   57 1
@<TRIPOS>MOLECULE
ZINC08587504
   57    62     0     0     0
SMALL
USER_CHARGES

@<TRIPOS>ATOM
      1 C1         -0.0965    1.7150    0.4013 C.3       1 <0>         0.0813
      2 N1          0.0258    0.2619    0.5416 N.am      1 <0>        -0.5250
      3 C2         -1.0748   -0.5858    0.3466 C.2       1 <0>         0.1270
      4 C3         -0.8863   -2.0504    0.5021 C.2       1 <0>        -0.2668
      5 C4         -2.1080   -2.6292    0.2639 C.2       1 <0>         0.2224
      6 N2         -2.9899   -1.6297   -0.0054 N.pl3     1 <0>        -0.3649
      7 C5         -2.3459   -0.4001    0.0229 C.2       1 <0>        -0.0196
      8 C6         -3.0773    0.8846   -0.3006 C.3       1 <0>         0.2798
      9 H1         -2.6886    1.6954    0.3154 H         1 <0>         0.1222
     10 N3         -4.5043    0.6779   -0.0089 N.pl3     1 <0>        -0.7468
     11 C7         -5.1125   -0.5460   -0.3093 C.ar      1 <0>         0.1884
     12 C8         -4.3588   -1.7242   -0.2949 C.ar      1 <0>         0.0635
     13 C9         -4.9593   -2.9389   -0.5644 C.ar      1 <0>        -0.0988
     14 C10        -6.3099   -2.9858   -0.8637 C.ar      1 <0>        -0.1271
     15 C11        -7.0556   -1.8218   -0.8932 C.ar      1 <0>        -0.0759
     16 C12        -6.4625   -0.6034   -0.6175 C.ar      1 <0>        -0.1535
     17 C13        -2.8972    1.2206   -1.7586 C.ar      1 <0>        -0.1066
     18 C14        -2.1181    2.3014   -2.1278 C.ar      1 <0>        -0.0618
     19 C15        -1.9529    2.6096   -3.4650 C.ar      1 <0>        -0.1112
     20 C16        -2.5664    1.8368   -4.4334 C.ar      1 <0>        -0.0500
     21 C17        -3.3446    0.7558   -4.0644 C.ar      1 <0>        -0.0458
     22 C18        -3.5063    0.4449   -2.7269 C.ar      1 <0>        -0.0332
     23 N4         -4.0019   -0.0713   -5.1012 N.pl3     1 <0>         0.0316
     24 O1         -3.8581    0.1988   -6.2708 O.2       1 <0>        -0.1536
     25 O2         -4.6826   -1.0168   -4.7784 O.3       1 <0>        -0.1522
     26 C19        -2.4094   -4.0735    0.2941 C.ar      1 <0>        -0.0576
     27 C20        -1.7094   -4.9540   -0.5344 C.ar      1 <0>        -0.0617
     28 C21        -1.9965   -6.3026   -0.5009 C.ar      1 <0>        -0.1172
     29 C22        -2.9752   -6.7841    0.3507 C.ar      1 <0>        -0.0965
     30 C23        -3.6730   -5.9177    1.1738 C.ar      1 <0>        -0.1221
     31 C24        -3.3922   -4.5675    1.1554 C.ar      1 <0>        -0.0898
     32 C25         0.4408   -2.5683    0.8503 C.2       1 <0>         0.6016
     33 O3          0.6590   -3.7573    0.9877 O.2       1 <0>        -0.4832
     34 N5          1.4095   -1.6297    1.0085 N.am      1 <0>        -0.5607
     35 C26         1.2049   -0.3175    0.8588 C.2       1 <0>         0.7113
     36 O4          2.1588    0.4174    1.0270 O.2       1 <0>        -0.5514
     37 C27         2.7583   -2.0823    1.3581 C.3       1 <0>         0.0774
     38 H2          0.8442    2.1878    0.6835 H         1 <0>         0.1086
     39 H3         -0.3307    1.9616   -0.6343 H         1 <0>         0.0710
     40 H4         -0.8941    2.0768    1.0502 H         1 <0>         0.0743
     41 H5         -5.0245    1.3914    0.3927 H         1 <0>         0.4144
     42 H6         -4.3771   -3.8482   -0.5420 H         1 <0>         0.1470
     43 H7         -6.7825   -3.9339   -1.0743 H         1 <0>         0.1355
     44 H8         -8.1077   -1.8643   -1.1335 H         1 <0>         0.1338
     45 H9         -7.0507    0.3020   -0.6414 H         1 <0>         0.1345
     46 H10        -1.6388    2.9050   -1.3713 H         1 <0>         0.1477
     47 H11        -1.3448    3.4543   -3.7533 H         1 <0>         0.1539
     48 H12        -2.4379    2.0780   -5.4782 H         1 <0>         0.1568
     49 H13        -4.1114   -0.4020   -2.4387 H         1 <0>         0.1493
     50 H14        -0.9456   -4.5795   -1.1997 H         1 <0>         0.1251
     51 H15        -1.4564   -6.9844   -1.1410 H         1 <0>         0.1309
     52 H16        -3.1959   -7.8411    0.3727 H         1 <0>         0.1289
     53 H17        -4.4358   -6.3004    1.8356 H         1 <0>         0.1307
     54 H18        -3.9339   -3.8931    1.8020 H         1 <0>         0.1243
     55 H19         3.3268   -2.2679    0.4468 H         1 <0>         0.0728
     56 H20         3.2580   -1.3138    1.9479 H         1 <0>         0.0947
     57 H21         2.6936   -3.0019    1.9396 H         1 <0>         0.0921
@<TRIPOS>BOND
     1    1    2 1
     2    1   38 1
     3    1   39 1
     4    1   40 1
     5    2   35 am
     6    2    3 1
     7    3    7 2
     8    3    4 1
     9    4    5 2
    10    4   32 1
    11    5    6 1
    12    5   26 1
    13    6   12 1
    14    6    7 1
    15    7    8 1
    16    8    9 1
    17    8   10 1
    18    8   17 1
    19   10   11 1
    20   10   41 1
    21   11   16 ar
    22   11   12 ar
    23   12   13 ar
    24   13   14 ar
    25   13   42 1
    26   14   15 ar
    27   14   43 1
    28   15   16 ar
    29   15   44 1
    30   16   45 1
    31   17   22 ar
    32   17   18 ar
    33   18   19 ar
    34   18   46 1
    35   19   20 ar
    36   19   47 1
    37   20   21 ar
    38   20   48 1
    39   21   22 ar
    40   21   23 1
    41   22   49 1
    42   23   24 2
    43   23   25 1
    44   26   31 ar
    45   26   27 ar
    46   27   28 ar
    47   27   50 1
    48   28   29 ar
    49   28   51 1
    50   29   30 ar
    51   29   52 1
    52   30   31 ar
    53   30   53 1
    54   31   54 1
    55   32   33 2
    56   32   34 am
    57   34   35 am
    58   34   37 1
    59   35   36 2
    60   37   55 1
    61   37   56 1
    62   37   57 1
@<TRIPOS>MOLECULE
ZINC08587540
   61    66     0     0     0
SMALL
USER_CHARGES

@<TRIPOS>ATOM
      1 C1         -3.0636   -0.8768    1.0913 C.3       1 <0>        -0.0765
      2 C2         -1.5725   -1.0240    0.9293 C.2       1 <0>         0.0008
      3 C3         -0.6608   -0.0538    1.1211 C.2       1 <0>        -0.2141
      4 C4          0.6061   -0.6250    0.8610 C.2       1 <0>        -0.1664
      5 C5          0.3928   -1.9101    0.5258 C.2       1 <0>        -0.0508
      6 O1         -0.9282   -2.1477    0.5744 O.3       1 <0>        -0.1702
      7 C6          1.4561   -2.9144    0.1627 C.3       1 <0>         0.3216
      8 H1          0.9933   -3.8005   -0.2718 H         1 <0>         0.1209
      9 C7          2.2397   -3.2998    1.3987 C.2       1 <0>        -0.0125
     10 C8          1.9709   -4.2225    2.3107 C.2       1 <0>         0.1288
     11 C9          3.0583   -4.1516    3.3193 C.2       1 <0>        -0.2657
     12 C10         3.9155   -3.1640    2.9016 C.2       1 <0>         0.2182
     13 N1          3.4248   -2.6616    1.7364 N.pl3     1 <0>        -0.3620
     14 C11         3.9723   -1.6631    0.9178 C.ar      1 <0>         0.0685
     15 C12         5.0232   -0.8732    1.3434 C.ar      1 <0>        -0.0991
     16 C13         5.5199    0.1151    0.5119 C.ar      1 <0>        -0.0982
     17 C14         4.9657    0.3129   -0.7398 C.ar      1 <0>        -0.0476
     18 C15         3.9195   -0.4790   -1.1752 C.ar      1 <0>        -0.1491
     19 C16         3.4209   -1.4783   -0.3539 C.ar      1 <0>         0.1934
     20 N2          2.3942   -2.3193   -0.8015 N.pl3     1 <0>        -0.7381
     21 C17         5.5054    1.3988   -1.6344 C.3       1 <0>        -0.1211
     22 C18         6.6668    0.9781    0.9713 C.3       1 <0>        -0.1139
     23 C19         5.1445   -2.7263    3.5914 C.ar      1 <0>        -0.0539
     24 C20         5.0829   -2.2608    4.9071 C.ar      1 <0>        -0.0623
     25 C21         6.2357   -1.8538    5.5458 C.ar      1 <0>        -0.1180
     26 C22         7.4511   -1.9058    4.8863 C.ar      1 <0>        -0.0980
     27 C23         7.5196   -2.3655    3.5829 C.ar      1 <0>        -0.1223
     28 C24         6.3758   -2.7811    2.9338 C.ar      1 <0>        -0.0895
     29 C25         3.0284   -5.0609    4.4694 C.2       1 <0>         0.6023
     30 O2          3.8896   -5.0505    5.3288 O.2       1 <0>        -0.4859
     31 N3          1.9732   -5.9149    4.5098 N.am      1 <0>        -0.5610
     32 C26         1.0109   -5.9519    3.5831 C.2       1 <0>         0.7100
     33 O3          0.1204   -6.7651    3.7376 O.2       1 <0>        -0.5507
     34 N4          0.9436   -5.1609    2.4892 N.am      1 <0>        -0.5239
     35 C27        -0.1569   -5.2788    1.5294 C.3       1 <0>         0.0920
     36 C28         1.8851   -6.8502    5.6340 C.3       1 <0>         0.0779
     37 H2         -3.5483   -1.8288    0.8749 H         1 <0>         0.0777
     38 H3         -3.2901   -0.5781    2.1148 H         1 <0>         0.0871
     39 H4         -3.4307   -0.1170    0.4013 H         1 <0>         0.0876
     40 H5         -0.8586    0.9660    1.4165 H         1 <0>         0.1488
     41 H6          1.5617   -0.1253    0.9199 H         1 <0>         0.1406
     42 H7          5.4550   -1.0263    2.3214 H         1 <0>         0.1480
     43 H8          3.4911   -0.3191   -2.1537 H         1 <0>         0.1348
     44 H9          2.3017   -2.5106   -1.7479 H         1 <0>         0.4154
     45 H10         6.3072    0.9952   -2.2527 H         1 <0>         0.0761
     46 H11         4.7063    1.7729   -2.2744 H         1 <0>         0.0685
     47 H12         5.8930    2.2139   -1.0233 H         1 <0>         0.0753
     48 H13         7.6095    0.5141    0.6813 H         1 <0>         0.0728
     49 H14         6.5888    1.9622    0.5092 H         1 <0>         0.0733
     50 H15         6.6315    1.0821    2.0558 H         1 <0>         0.0662
     51 H16         4.1349   -2.2193    5.4228 H         1 <0>         0.1257
     52 H17         6.1895   -1.4933    6.5628 H         1 <0>         0.1303
     53 H18         8.3506   -1.5859    5.3913 H         1 <0>         0.1281
     54 H19         8.4715   -2.4030    3.0742 H         1 <0>         0.1298
     55 H20         6.4313   -3.1441    1.9181 H         1 <0>         0.1240
     56 H21         0.0873   -6.0398    0.7883 H         1 <0>         0.0715
     57 H22        -1.0686   -5.5628    2.0551 H         1 <0>         0.0940
     58 H23        -0.3083   -4.3214    1.0308 H         1 <0>         0.0827
     59 H24         1.3231   -6.3897    6.4465 H         1 <0>         0.0724
     60 H25         1.3780   -7.7595    5.3112 H         1 <0>         0.0943
     61 H26         2.8885   -7.0973    5.9806 H         1 <0>         0.0915
@<TRIPOS>BOND
     1    1    2 1
     2    1   37 1
     3    1   38 1
     4    1   39 1
     5    2    6 1
     6    2    3 2
     7    3    4 1
     8    3   40 1
     9    4    5 2
    10    4   41 1
    11    5    6 1
    12    5    7 1
    13    7    8 1
    14    7   20 1
    15    7    9 1
    16    9   13 1
    17    9   10 2
    18   10   34 1
    19   10   11 1
    20   11   12 2
    21   11   29 1
    22   12   13 1
    23   12   23 1
    24   13   14 1
    25   14   19 ar
    26   14   15 ar
    27   15   16 ar
    28   15   42 1
    29   16   17 ar
    30   16   22 1
    31   17   18 ar
    32   17   21 1
    33   18   19 ar
    34   18   43 1
    35   19   20 1
    36   20   44 1
    37   21   45 1
    38   21   46 1
    39   21   47 1
    40   22   48 1
    41   22   49 1
    42   22   50 1
    43   23   28 ar
    44   23   24 ar
    45   24   25 ar
    46   24   51 1
    47   25   26 ar
    48   25   52 1
    49   26   27 ar
    50   26   53 1
    51   27   28 ar
    52   27   54 1
    53   28   55 1
    54   29   30 2
    55   29   31 am
    56   31   32 am
    57   31   36 1
    58   32   33 2
    59   32   34 am
    60   34   35 1
    61   35   56 1
    62   35   57 1
    63   35   58 1
    64   36   59 1
    65   36   60 1
    66   36   61 1
@<TRIPOS>MOLECULE
ZINC08587541
   61    66     0     0     0
SMALL
USER_CHARGES

@<TRIPOS>ATOM
      1 C1         -1.6451    1.3331   -1.9315 C.3       1 <0>        -0.0763
      2 C2         -1.2649   -0.0554   -1.4859 C.2       1 <0>        -0.0043
      3 C3         -2.1156   -1.0782   -1.2868 C.2       1 <0>        -0.2129
      4 C4         -1.3368   -2.1849   -0.8774 C.2       1 <0>        -0.1902
      5 C5         -0.0569   -1.7722   -0.8508 C.2       1 <0>        -0.0383
      6 O1         -0.0187   -0.4832   -1.2260 O.3       1 <0>        -0.1576
      7 C6          1.1331   -2.6150   -0.4702 C.3       1 <0>         0.3198
      8 H1          0.8039   -3.4771    0.1099 H         1 <0>         0.1344
      9 C7          1.8505   -3.0814   -1.7185 C.2       1 <0>        -0.0178
     10 C8          1.6082   -4.1363   -2.4827 C.2       1 <0>         0.1276
     11 C9          2.5967   -4.0940   -3.5899 C.2       1 <0>        -0.2670
     12 C10         3.3750   -2.9833   -3.3773 C.2       1 <0>         0.2174
     13 N1          2.9297   -2.3826   -2.2407 N.pl3     1 <0>        -0.3605
     14 C11         3.4325   -1.2386   -1.6041 C.ar      1 <0>         0.0686
     15 C12         4.3555   -0.4142   -2.2190 C.ar      1 <0>        -0.0985
     16 C13         4.8100    0.7166   -1.5637 C.ar      1 <0>        -0.1002
     17 C14         4.3412    1.0217   -0.2987 C.ar      1 <0>        -0.0477
     18 C15         3.4243    0.1969    0.3259 C.ar      1 <0>        -0.1487
     19 C16         2.9695   -0.9434   -0.3181 C.ar      1 <0>         0.2009
     20 N2          2.0778   -1.8130    0.3225 N.pl3     1 <0>        -0.7462
     21 C17         4.8335    2.2610    0.4033 C.3       1 <0>        -0.1203
     22 C18         5.8175    1.6178   -2.2299 C.3       1 <0>        -0.1134
     23 C19         4.4909   -2.5244   -4.2270 C.ar      1 <0>        -0.0535
     24 C20         5.7709   -2.3795   -3.6865 C.ar      1 <0>        -0.0894
     25 C21         6.8092   -1.9505   -4.4866 C.ar      1 <0>        -0.1227
     26 C22         6.5854   -1.6639   -5.8218 C.ar      1 <0>        -0.0980
     27 C23         5.3200   -1.8047   -6.3638 C.ar      1 <0>        -0.1181
     28 C24         4.2734   -2.2383   -5.5769 C.ar      1 <0>        -0.0625
     29 C25         2.5706   -5.1439   -4.6134 C.2       1 <0>         0.6023
     30 O2          3.3534   -5.1635   -5.5446 O.2       1 <0>        -0.4858
     31 N3          1.6125   -6.0926   -4.4507 N.am      1 <0>        -0.5608
     32 C26         0.7379   -6.1001   -3.4403 C.2       1 <0>         0.7108
     33 O3         -0.0704   -7.0080   -3.4105 O.2       1 <0>        -0.5518
     34 N4          0.6754   -5.1835   -2.4491 N.am      1 <0>        -0.5238
     35 C27        -0.3246   -5.2800   -1.3828 C.3       1 <0>         0.0881
     36 C28         1.5336   -7.1703   -5.4399 C.3       1 <0>         0.0779
     37 H2         -0.7482    1.9471   -2.0123 H         1 <0>         0.0750
     38 H3         -2.1384    1.2809   -2.9021 H         1 <0>         0.0865
     39 H4         -2.3239    1.7756   -1.2023 H         1 <0>         0.0873
     40 H5         -3.1878   -1.0577   -1.4145 H         1 <0>         0.1500
     41 H6         -1.7000   -3.1721   -0.6326 H         1 <0>         0.1507
     42 H7          4.7204   -0.6514   -3.2074 H         1 <0>         0.1466
     43 H8          3.0624    0.4409    1.3138 H         1 <0>         0.1332
     44 H9          2.0830   -1.8873    1.2896 H         1 <0>         0.4135
     45 H10         4.1833    3.1005    0.1572 H         1 <0>         0.0750
     46 H11         4.8226    2.0967    1.4808 H         1 <0>         0.0681
     47 H12         5.8506    2.4821    0.0797 H         1 <0>         0.0752
     48 H13         5.2962    2.3827   -2.8054 H         1 <0>         0.0710
     49 H14         6.4373    2.0940   -1.4702 H         1 <0>         0.0731
     50 H15         6.4478    1.0284   -2.8959 H         1 <0>         0.0668
     51 H16         5.9470   -2.6025   -2.6445 H         1 <0>         0.1240
     52 H17         7.7992   -1.8377   -4.0701 H         1 <0>         0.1300
     53 H18         7.4021   -1.3284   -6.4437 H         1 <0>         0.1282
     54 H19         5.1524   -1.5789   -7.4066 H         1 <0>         0.1303
     55 H20         3.2873   -2.3524   -6.0024 H         1 <0>         0.1254
     56 H21        -1.1879   -4.6653   -1.6377 H         1 <0>         0.0740
     57 H22        -0.6379   -6.3181   -1.2715 H         1 <0>         0.1007
     58 H23         0.1079   -4.9285   -0.4461 H         1 <0>         0.0757
     59 H24         2.1661   -8.0001   -5.1245 H         1 <0>         0.0725
     60 H25         0.5018   -7.5115   -5.5239 H         1 <0>         0.0944
     61 H26         1.8741   -6.8012   -6.4074 H         1 <0>         0.0914
@<TRIPOS>BOND
     1    1    2 1
     2    1   37 1
     3    1   38 1
     4    1   39 1
     5    2    6 1
     6    2    3 2
     7    3    4 1
     8    3   40 1
     9    4    5 2
    10    4   41 1
    11    5    6 1
    12    5    7 1
    13    7    8 1
    14    7   20 1
    15    7    9 1
    16    9   13 1
    17    9   10 2
    18   10   34 1
    19   10   11 1
    20   11   12 2
    21   11   29 1
    22   12   13 1
    23   12   23 1
    24   13   14 1
    25   14   19 ar
    26   14   15 ar
    27   15   16 ar
    28   15   42 1
    29   16   17 ar
    30   16   22 1
    31   17   18 ar
    32   17   21 1
    33   18   19 ar
    34   18   43 1
    35   19   20 1
    36   20   44 1
    37   21   45 1
    38   21   46 1
    39   21   47 1
    40   22   48 1
    41   22   49 1
    42   22   50 1
    43   23   28 ar
    44   23   24 ar
    45   24   25 ar
    46   24   51 1
    47   25   26 ar
    48   25   52 1
    49   26   27 ar
    50   26   53 1
    51   27   28 ar
    52   27   54 1
    53   28   55 1
    54   29   30 2
    55   29   31 am
    56   31   32 am
    57   31   36 1
    58   32   33 2
    59   32   34 am
    60   34   35 1
    61   35   56 1
    62   35   57 1
    63   35   58 1
    64   36   59 1
    65   36   60 1
    66   36   61 1
@<TRIPOS>MOLECULE
ZINC08587515
   55    60     0     0     0
SMALL
USER_CHARGES

@<TRIPOS>ATOM
      1 C1         -3.0635   -0.8767    1.0912 C.3       1 <0>        -0.0767
      2 C2         -1.5725   -1.0240    0.9292 C.2       1 <0>         0.0012
      3 C3         -0.6608   -0.0538    1.1210 C.2       1 <0>        -0.2141
      4 C4          0.6061   -0.6250    0.8610 C.2       1 <0>        -0.1666
      5 C5          0.3928   -1.9101    0.5257 C.2       1 <0>        -0.0512
      6 O1         -0.9282   -2.1477    0.5744 O.3       1 <0>        -0.1701
      7 C6          1.4561   -2.9144    0.1627 C.3       1 <0>         0.3212
      8 H1          0.9933   -3.8005   -0.2718 H         1 <0>         0.1214
      9 C7          2.2397   -3.2998    1.3987 C.2       1 <0>        -0.0130
     10 C8          1.9709   -4.2225    2.3107 C.2       1 <0>         0.1295
     11 C9          3.0583   -4.1516    3.3193 C.2       1 <0>        -0.2651
     12 C10         3.9155   -3.1640    2.9016 C.2       1 <0>         0.2191
     13 N1          3.4248   -2.6616    1.7363 N.pl3     1 <0>        -0.3637
     14 C11         3.9724   -1.6631    0.9177 C.ar      1 <0>         0.0706
     15 C12         5.0233   -0.8732    1.3433 C.ar      1 <0>        -0.1030
     16 C13         5.5200    0.1150    0.5118 C.ar      1 <0>        -0.1317
     17 C14         4.9663    0.3122   -0.7402 C.ar      1 <0>        -0.0815
     18 C15         3.9202   -0.4797   -1.1757 C.ar      1 <0>        -0.1516
     19 C16         3.4209   -1.4784   -0.3539 C.ar      1 <0>         0.1937
     20 N2          2.3943   -2.3194   -0.8015 N.pl3     1 <0>        -0.7380
     21 C17         5.1445   -2.7264    3.5914 C.ar      1 <0>        -0.0547
     22 C18         5.0829   -2.2608    4.9071 C.ar      1 <0>        -0.0621
     23 C19         6.2357   -1.8538    5.5457 C.ar      1 <0>        -0.1178
     24 C20         7.4511   -1.9059    4.8863 C.ar      1 <0>        -0.0978
     25 C21         7.5196   -2.3655    3.5829 C.ar      1 <0>        -0.1225
     26 C22         6.3758   -2.7811    2.9338 C.ar      1 <0>        -0.0902
     27 C23         3.0284   -5.0608    4.4694 C.2       1 <0>         0.6022
     28 O2          3.8896   -5.0505    5.3288 O.2       1 <0>        -0.4854
     29 N3          1.9732   -5.9149    4.5098 N.am      1 <0>        -0.5609
     30 C24         1.0109   -5.9518    3.5831 C.2       1 <0>         0.7100
     31 O3          0.1203   -6.7650    3.7376 O.2       1 <0>        -0.5504
     32 N4          0.9436   -5.1609    2.4892 N.am      1 <0>        -0.5240
     33 C25        -0.1569   -5.2788    1.5294 C.3       1 <0>         0.0919
     34 C26         1.8850   -6.8501    5.6340 C.3       1 <0>         0.0778
     35 H2         -3.5483   -1.8287    0.8748 H         1 <0>         0.0778
     36 H3         -3.2900   -0.5780    2.1147 H         1 <0>         0.0872
     37 H4         -3.4307   -0.1169    0.4012 H         1 <0>         0.0878
     38 H5         -0.8586    0.9660    1.4164 H         1 <0>         0.1491
     39 H6          1.5618   -0.1253    0.9198 H         1 <0>         0.1407
     40 H7          5.4551   -1.0264    2.3213 H         1 <0>         0.1472
     41 H8          6.3419    0.7335    0.8411 H         1 <0>         0.1338
     42 H9          5.3536    1.0900   -1.3817 H         1 <0>         0.1324
     43 H10         3.4923   -0.3203   -2.1544 H         1 <0>         0.1351
     44 H11         2.3017   -2.5107   -1.7479 H         1 <0>         0.4159
     45 H12         4.1349   -2.2193    5.4228 H         1 <0>         0.1259
     46 H13         6.1895   -1.4933    6.5627 H         1 <0>         0.1305
     47 H14         8.3506   -1.5859    5.3913 H         1 <0>         0.1284
     48 H15         8.4715   -2.4031    3.0742 H         1 <0>         0.1303
     49 H16         6.4313   -3.1441    1.9181 H         1 <0>         0.1246
     50 H17         0.0872   -6.0398    0.7883 H         1 <0>         0.0716
     51 H18        -1.0686   -5.5628    2.0551 H         1 <0>         0.0941
     52 H19        -0.3083   -4.3214    1.0308 H         1 <0>         0.0827
     53 H20         1.3231   -6.3896    6.4465 H         1 <0>         0.0725
     54 H21         1.3779   -7.7594    5.3113 H         1 <0>         0.0944
     55 H22         2.8884   -7.0973    5.9806 H         1 <0>         0.0916
@<TRIPOS>BOND
     1    1    2 1
     2    1   35 1
     3    1   36 1
     4    1   37 1
     5    2    6 1
     6    2    3 2
     7    3    4 1
     8    3   38 1
     9    4    5 2
    10    4   39 1
    11    5    6 1
    12    5    7 1
    13    7    8 1
    14    7   20 1
    15    7    9 1
    16    9   13 1
    17    9   10 2
    18   10   32 1
    19   10   11 1
    20   11   12 2
    21   11   27 1
    22   12   13 1
    23   12   21 1
    24   13   14 1
    25   14   19 ar
    26   14   15 ar
    27   15   16 ar
    28   15   40 1
    29   16   17 ar
    30   16   41 1
    31   17   18 ar
    32   17   42 1
    33   18   19 ar
    34   18   43 1
    35   19   20 1
    36   20   44 1
    37   21   26 ar
    38   21   22 ar
    39   22   23 ar
    40   22   45 1
    41   23   24 ar
    42   23   46 1
    43   24   25 ar
    44   24   47 1
    45   25   26 ar
    46   25   48 1
    47   26   49 1
    48   27   28 2
    49   27   29 am
    50   29   30 am
    51   29   34 1
    52   30   31 2
    53   30   32 am
    54   32   33 1
    55   33   50 1
    56   33   51 1
    57   33   52 1
    58   34   53 1
    59   34   54 1
    60   34   55 1
@<TRIPOS>MOLECULE
ZINC08587516
   55    60     0     0     0
SMALL
USER_CHARGES

@<TRIPOS>ATOM
      1 C1         -1.6452    1.3331   -1.9315 C.3       1 <0>        -0.0765
      2 C2         -1.2650   -0.0554   -1.4860 C.2       1 <0>        -0.0039
      3 C3         -2.1156   -1.0782   -1.2868 C.2       1 <0>        -0.2129
      4 C4         -1.3369   -2.1849   -0.8774 C.2       1 <0>        -0.1896
      5 C5         -0.0569   -1.7722   -0.8509 C.2       1 <0>        -0.0392
      6 O1         -0.0187   -0.4832   -1.2260 O.3       1 <0>        -0.1581
      7 C6          1.1331   -2.6149   -0.4702 C.3       1 <0>         0.3196
      8 H1          0.8039   -3.4770    0.1099 H         1 <0>         0.1348
      9 C7          1.8504   -3.0814   -1.7185 C.2       1 <0>        -0.0183
     10 C8          1.6082   -4.1363   -2.4827 C.2       1 <0>         0.1284
     11 C9          2.5967   -4.0940   -3.5899 C.2       1 <0>        -0.2665
     12 C10         3.3750   -2.9833   -3.3773 C.2       1 <0>         0.2183
     13 N1          2.9297   -2.3826   -2.2407 N.pl3     1 <0>        -0.3623
     14 C11         3.4325   -1.2386   -1.6041 C.ar      1 <0>         0.0708
     15 C12         4.3554   -0.4142   -2.2190 C.ar      1 <0>        -0.1024
     16 C13         4.8100    0.7166   -1.5637 C.ar      1 <0>        -0.1337
     17 C14         4.3412    1.0217   -0.2988 C.ar      1 <0>        -0.0814
     18 C15         3.4243    0.1970    0.3259 C.ar      1 <0>        -0.1512
     19 C16         2.9694   -0.9434   -0.3181 C.ar      1 <0>         0.2012
     20 N2          2.0778   -1.8130    0.3225 N.pl3     1 <0>        -0.7461
     21 C17         4.4909   -2.5244   -4.2270 C.ar      1 <0>        -0.0544
     22 C18         5.7709   -2.3795   -3.6865 C.ar      1 <0>        -0.0900
     23 C19         6.8092   -1.9505   -4.4866 C.ar      1 <0>        -0.1223
     24 C20         6.5854   -1.6639   -5.8218 C.ar      1 <0>        -0.0980
     25 C21         5.3200   -1.8047   -6.3638 C.ar      1 <0>        -0.1180
     26 C22         4.2734   -2.2383   -5.5769 C.ar      1 <0>        -0.0625
     27 C23         2.5706   -5.1439   -4.6133 C.2       1 <0>         0.6023
     28 O2          3.3539   -5.1639   -5.5441 O.2       1 <0>        -0.4855
     29 N3          1.6126   -6.0926   -4.4507 N.am      1 <0>        -0.5608
     30 C24         0.7373   -6.0997   -3.4407 C.2       1 <0>         0.7108
     31 O3         -0.0713   -7.0071   -3.4113 O.2       1 <0>        -0.5512
     32 N4          0.6754   -5.1835   -2.4490 N.am      1 <0>        -0.5240
     33 C25        -0.3246   -5.2800   -1.3828 C.3       1 <0>         0.0881
     34 C26         1.5336   -7.1704   -5.4399 C.3       1 <0>         0.0779
     35 H2         -0.7482    1.9471   -2.0123 H         1 <0>         0.0753
     36 H3         -2.1384    1.2809   -2.9021 H         1 <0>         0.0867
     37 H4         -2.3239    1.7755   -1.2024 H         1 <0>         0.0874
     38 H5         -3.1879   -1.0578   -1.4145 H         1 <0>         0.1502
     39 H6         -1.7000   -3.1721   -0.6326 H         1 <0>         0.1508
     40 H7          4.7209   -0.6518   -3.2072 H         1 <0>         0.1458
     41 H8          5.5320    1.3625   -2.0412 H         1 <0>         0.1329
     42 H9          4.6939    1.9099    0.2043 H         1 <0>         0.1315
     43 H10         3.0624    0.4410    1.3138 H         1 <0>         0.1335
     44 H11         2.0829   -1.8873    1.2896 H         1 <0>         0.4141
     45 H12         5.9470   -2.6025   -2.6445 H         1 <0>         0.1245
     46 H13         7.7993   -1.8377   -4.0701 H         1 <0>         0.1304
     47 H14         7.4021   -1.3284   -6.4437 H         1 <0>         0.1284
     48 H15         5.1524   -1.5789   -7.4066 H         1 <0>         0.1305
     49 H16         3.2873   -2.3524   -6.0024 H         1 <0>         0.1256
     50 H17        -1.1879   -4.6653   -1.6377 H         1 <0>         0.0740
     51 H18        -0.6379   -6.3181   -1.2714 H         1 <0>         0.1008
     52 H19         0.1079   -4.9285   -0.4461 H         1 <0>         0.0757
     53 H20         2.1662   -8.0001   -5.1245 H         1 <0>         0.0726
     54 H21         0.5018   -7.5116   -5.5238 H         1 <0>         0.0945
     55 H22         1.8741   -6.8013   -6.4073 H         1 <0>         0.0914
@<TRIPOS>BOND
     1    1    2 1
     2    1   35 1
     3    1   36 1
     4    1   37 1
     5    2    6 1
     6    2    3 2
     7    3    4 1
     8    3   38 1
     9    4    5 2
    10    4   39 1
    11    5    6 1
    12    5    7 1
    13    7    8 1
    14    7   20 1
    15    7    9 1
    16    9   13 1
    17    9   10 2
    18   10   32 1
    19   10   11 1
    20   11   12 2
    21   11   27 1
    22   12   13 1
    23   12   21 1
    24   13   14 1
    25   14   19 ar
    26   14   15 ar
    27   15   16 ar
    28   15   40 1
    29   16   17 ar
    30   16   41 1
    31   17   18 ar
    32   17   42 1
    33   18   19 ar
    34   18   43 1
    35   19   20 1
    36   20   44 1
    37   21   26 ar
    38   21   22 ar
    39   22   23 ar
    40   22   45 1
    41   23   24 ar
    42   23   46 1
    43   24   25 ar
    44   24   47 1
    45   25   26 ar
    46   25   48 1
    47   26   49 1
    48   27   28 2
    49   27   29 am
    50   29   30 am
    51   29   34 1
    52   30   31 2
    53   30   32 am
    54   32   33 1
    55   33   50 1
    56   33   51 1
    57   33   52 1
    58   34   53 1
    59   34   54 1
    60   34   55 1
@<TRIPOS>MOLECULE
ZINC15834349
   60    65     0     0     0
SMALL
USER_CHARGES
dimethyl-(3-nitrophenyl)-(o-tolyl)BLAHdione
@<TRIPOS>ATOM
      1 C1         -3.5246    3.9488    4.5783 C.3       1 <0>        -0.1210
      2 C2         -4.9718    3.5301    4.6156 C.ar      1 <0>        -0.0500
      3 C3         -5.8838    4.2592    5.3502 C.ar      1 <0>        -0.1195
      4 C4         -7.2119    3.8732    5.3898 C.ar      1 <0>        -0.0948
      5 C5         -7.6363    2.7575    4.6894 C.ar      1 <0>        -0.1215
      6 C6         -6.7366    2.0219    3.9469 C.ar      1 <0>        -0.0779
      7 C7         -5.3940    2.4058    3.9024 C.ar      1 <0>        -0.0515
      8 C8         -4.4251    1.6234    3.1104 C.2       1 <0>         0.2252
      9 C9         -3.6819    0.5601    3.5588 C.2       1 <0>        -0.2645
     10 C10        -2.8497    0.1132    2.4133 C.2       1 <0>         0.1287
     11 C11        -3.1388    0.9149    1.3989 C.2       1 <0>        -0.0214
     12 N1         -4.1062    1.8253    1.8040 N.pl3     1 <0>        -0.3642
     13 C12        -4.6098    2.7904    0.9198 C.ar      1 <0>         0.0706
     14 C13        -5.3622    3.8596    1.3671 C.ar      1 <0>        -0.0976
     15 C14        -5.7984    4.8159    0.4670 C.ar      1 <0>        -0.1308
     16 C15        -5.4833    4.7018   -0.8750 C.ar      1 <0>        -0.0806
     17 C16        -4.7396    3.6293   -1.3307 C.ar      1 <0>        -0.1540
     18 C17        -4.3042    2.6616   -0.4387 C.ar      1 <0>         0.1886
     19 N2         -3.5671    1.5598   -0.8872 N.pl3     1 <0>        -0.7457
     20 C18        -2.5728    0.9304   -0.0044 C.3       1 <0>         0.2784
     21 H1         -2.3789   -0.0897   -0.3359 H         1 <0>         0.1214
     22 C19        -1.2932    1.7260   -0.0291 C.ar      1 <0>        -0.1042
     23 C20        -1.3384    3.1079   -0.0372 C.ar      1 <0>        -0.0464
     24 C21        -0.1649    3.8375   -0.0651 C.ar      1 <0>        -0.1120
     25 C22         1.0542    3.1857   -0.0800 C.ar      1 <0>        -0.0480
     26 C23         1.0995    1.8043   -0.0674 C.ar      1 <0>        -0.0395
     27 C24        -0.0744    1.0744   -0.0391 C.ar      1 <0>        -0.0518
     28 N3          2.4047    1.1064   -0.0839 N.pl3     1 <0>         0.0260
     29 O1          2.4446   -0.1109   -0.0724 O.2       1 <0>        -0.1536
     30 O2          3.4389    1.7494   -0.1089 O.3       1 <0>        -0.1536
     31 N4         -1.9830   -0.9754    2.5917 N.am      1 <0>        -0.5253
     32 C25        -1.9584   -1.5532    3.8133 C.2       1 <0>         0.7102
     33 O3         -1.2058   -2.4956    3.9680 O.2       1 <0>        -0.5480
     34 N5         -2.6909   -1.1761    4.8655 N.am      1 <0>        -0.5608
     35 C26        -3.5729   -0.1437    4.8408 C.2       1 <0>         0.6009
     36 O4         -4.2273    0.1757    5.8154 O.2       1 <0>        -0.4815
     37 C27        -2.5339   -1.9199    6.1179 C.3       1 <0>         0.0738
     38 C28        -1.1397   -1.4660    1.4988 C.3       1 <0>         0.0850
     39 H2         -3.3678    4.6409    3.7510 H         1 <0>         0.0719
     40 H3         -3.2639    4.4388    5.5164 H         1 <0>         0.0755
     41 H4         -2.8954    3.0694    4.4406 H         1 <0>         0.0653
     42 H5         -5.5597    5.1312    5.8989 H         1 <0>         0.1304
     43 H6         -7.9208    4.4456    5.9696 H         1 <0>         0.1290
     44 H7         -8.6745    2.4620    4.7248 H         1 <0>         0.1300
     45 H8         -7.0691    1.1511    3.4015 H         1 <0>         0.1245
     46 H9         -5.6091    3.9484    2.4147 H         1 <0>         0.1431
     47 H10        -6.3859    5.6534    0.8131 H         1 <0>         0.1343
     48 H11        -5.8206    5.4553   -1.5713 H         1 <0>         0.1335
     49 H12        -4.4986    3.5452   -2.3801 H         1 <0>         0.1362
     50 H13        -3.7117    1.2112   -1.7808 H         1 <0>         0.4156
     51 H14        -2.2908    3.6171   -0.0252 H         1 <0>         0.1399
     52 H15        -0.2003    4.9169   -0.0749 H         1 <0>         0.1507
     53 H16         1.9712    3.7558   -0.1018 H         1 <0>         0.1572
     54 H17        -0.0390   -0.0049   -0.0293 H         1 <0>         0.1567
     55 H18        -1.7976   -2.7117    5.9804 H         1 <0>         0.1063
     56 H19        -2.1970   -1.2428    6.9028 H         1 <0>         0.0779
     57 H20        -3.4904   -2.3585    6.4023 H         1 <0>         0.0783
     58 H21        -0.2075   -0.9015    1.4777 H         1 <0>         0.0722
     59 H22        -0.9213   -2.5224    1.6546 H         1 <0>         0.1047
     60 H23        -1.6629   -1.3390    0.5511 H         1 <0>         0.0776
@<TRIPOS>BOND
     1    1    2 1
     2    1   39 1
     3    1   40 1
     4    1   41 1
     5    2    7 ar
     6    2    3 ar
     7    3    4 ar
     8    3   42 1
     9    4    5 ar
    10    4   43 1
    11    5    6 ar
    12    5   44 1
    13    6    7 ar
    14    6   45 1
    15    7    8 1
    16    8   12 1
    17    8    9 2
    18    9   35 1
    19    9   10 1
    20   10   11 2
    21   10   31 1
    22   11   20 1
    23   11   12 1
    24   12   13 1
    25   13   18 ar
    26   13   14 ar
    27   14   15 ar
    28   14   46 1
    29   15   16 ar
    30   15   47 1
    31   16   17 ar
    32   16   48 1
    33   17   18 ar
    34   17   49 1
    35   18   19 1
    36   19   20 1
    37   19   50 1
    38   20   21 1
    39   20   22 1
    40   22   27 ar
    41   22   23 ar
    42   23   24 ar
    43   23   51 1
    44   24   25 ar
    45   24   52 1
    46   25   26 ar
    47   25   53 1
    48   26   27 ar
    49   26   28 1
    50   27   54 1
    51   28   29 2
    52   28   30 1
    53   31   32 am
    54   31   38 1
    55   32   33 2
    56   32   34 am
    57   34   35 am
    58   34   37 1
    59   35   36 2
    60   37   55 1
    61   37   56 1
    62   37   57 1
    63   38   58 1
    64   38   59 1
    65   38   60 1
@<TRIPOS>MOLECULE
ZINC15834353
   60    65     0     0     0
SMALL
USER_CHARGES
dimethyl-(3-nitrophenyl)-(o-tolyl)BLAHdione
@<TRIPOS>ATOM
      1 C1          1.2679    4.5531    4.1410 C.3       1 <0>        -0.1202
      2 C2          1.5525    5.6858    3.1886 C.ar      1 <0>        -0.0442
      3 C3          2.5405    6.6031    3.4808 C.ar      1 <0>        -0.1184
      4 C4          2.7990    7.6472    2.6106 C.ar      1 <0>        -0.0948
      5 C5          2.0734    7.7762    1.4391 C.ar      1 <0>        -0.1230
      6 C6          1.0869    6.8631    1.1311 C.ar      1 <0>        -0.0836
      7 C7          0.8204    5.8062    2.0051 C.ar      1 <0>        -0.0517
      8 C8         -0.2336    4.8251    1.6824 C.2       1 <0>         0.2249
      9 C9         -1.5577    4.9114    2.0341 C.2       1 <0>        -0.2645
     10 C10        -2.2216    3.7036    1.4819 C.2       1 <0>         0.1292
     11 C11        -1.2830    3.0075    0.8575 C.2       1 <0>        -0.0215
     12 N1         -0.0702    3.6703    0.9817 N.pl3     1 <0>        -0.3647
     13 C12         1.1084    3.1400    0.4370 C.ar      1 <0>         0.0681
     14 C13         2.2630    3.8928    0.3388 C.ar      1 <0>        -0.0980
     15 C14         3.3880    3.3494   -0.2560 C.ar      1 <0>        -0.1314
     16 C15         3.3575    2.0578   -0.7497 C.ar      1 <0>        -0.0802
     17 C16         2.2092    1.2952   -0.6446 C.ar      1 <0>        -0.1529
     18 C17         1.0793    1.8268   -0.0424 C.ar      1 <0>         0.1909
     19 N2         -0.0830    1.0590    0.0905 N.pl3     1 <0>        -0.7446
     20 C18        -1.4026    1.7088    0.0832 C.3       1 <0>         0.2794
     21 H1         -2.1357    1.0600    0.5625 H         1 <0>         0.1206
     22 C19        -1.8229    1.9931   -1.3359 C.ar      1 <0>        -0.1058
     23 C20        -0.9940    2.7205   -2.1697 C.ar      1 <0>        -0.0434
     24 C21        -1.3793    2.9809   -3.4713 C.ar      1 <0>        -0.1115
     25 C22        -2.5937    2.5143   -3.9393 C.ar      1 <0>        -0.0466
     26 C23        -3.4221    1.7867   -3.1058 C.ar      1 <0>        -0.0393
     27 C24        -3.0344    1.5218   -1.8054 C.ar      1 <0>        -0.0482
     28 N3         -4.7220    1.2868   -3.6070 N.pl3     1 <0>         0.0261
     29 O1         -5.0617    1.5166   -4.7538 O.2       1 <0>        -0.1534
     30 O2         -5.4520    0.6455   -2.8725 O.3       1 <0>        -0.1533
     31 N4         -3.5968    3.5301    1.6974 N.am      1 <0>        -0.5251
     32 C25        -4.2390    4.4893    2.4004 C.2       1 <0>         0.7096
     33 O3         -5.4313    4.3394    2.5855 O.2       1 <0>        -0.5478
     34 N5         -3.6742    5.5881    2.9099 N.am      1 <0>        -0.5607
     35 C26        -2.3556    5.8873    2.7834 C.2       1 <0>         0.6008
     36 O4         -1.8694    6.8959    3.2596 O.2       1 <0>        -0.4829
     37 C27        -4.5268    6.5240    3.6469 C.3       1 <0>         0.0771
     38 C28        -4.3078    2.3579    1.1810 C.3       1 <0>         0.0846
     39 H2          1.8909    3.6966    3.8834 H         1 <0>         0.0724
     40 H3          1.4898    4.8705    5.1598 H         1 <0>         0.0747
     41 H4          0.2170    4.2728    4.0685 H         1 <0>         0.0655
     42 H5          3.1104    6.5088    4.3934 H         1 <0>         0.1300
     43 H6          3.5704    8.3652    2.8467 H         1 <0>         0.1289
     44 H7          2.2805    8.5937    0.7644 H         1 <0>         0.1303
     45 H8          0.5219    6.9646    0.2162 H         1 <0>         0.1248
     46 H9          2.2873    4.9011    0.7251 H         1 <0>         0.1433
     47 H10         4.2920    3.9350   -0.3346 H         1 <0>         0.1341
     48 H11         4.2364    1.6422   -1.2201 H         1 <0>         0.1331
     49 H12         2.1924    0.2869   -1.0313 H         1 <0>         0.1353
     50 H13        -0.0186    0.0957    0.1837 H         1 <0>         0.4149
     51 H14        -0.0454    3.0850   -1.8042 H         1 <0>         0.1364
     52 H15        -0.7318    3.5492   -4.1227 H         1 <0>         0.1510
     53 H16        -2.8949    2.7180   -4.9562 H         1 <0>         0.1577
     54 H17        -3.6798    0.9498   -1.1554 H         1 <0>         0.1575
     55 H18        -4.9367    7.2622    2.9576 H         1 <0>         0.0728
     56 H19        -5.3420    5.9771    4.1206 H         1 <0>         0.0952
     57 H20        -3.9360    7.0292    4.4111 H         1 <0>         0.0918
     58 H21        -4.2042    1.5313    1.8838 H         1 <0>         0.0747
     59 H22        -5.3635    2.5989    1.0566 H         1 <0>         0.1022
     60 H23        -3.8847    2.0714    0.2182 H         1 <0>         0.0737
@<TRIPOS>BOND
     1    1    2 1
     2    1   39 1
     3    1   40 1
     4    1   41 1
     5    2    7 ar
     6    2    3 ar
     7    3    4 ar
     8    3   42 1
     9    4    5 ar
    10    4   43 1
    11    5    6 ar
    12    5   44 1
    13    6    7 ar
    14    6   45 1
    15    7    8 1
    16    8   12 1
    17    8    9 2
    18    9   35 1
    19    9   10 1
    20   10   11 2
    21   10   31 1
    22   11   20 1
    23   11   12 1
    24   12   13 1
    25   13   18 ar
    26   13   14 ar
    27   14   15 ar
    28   14   46 1
    29   15   16 ar
    30   15   47 1
    31   16   17 ar
    32   16   48 1
    33   17   18 ar
    34   17   49 1
    35   18   19 1
    36   19   20 1
    37   19   50 1
    38   20   21 1
    39   20   22 1
    40   22   27 ar
    41   22   23 ar
    42   23   24 ar
    43   23   51 1
    44   24   25 ar
    45   24   52 1
    46   25   26 ar
    47   25   53 1
    48   26   27 ar
    49   26   28 1
    50   27   54 1
    51   28   29 2
    52   28   30 1
    53   31   32 am
    54   31   38 1
    55   32   33 2
    56   32   34 am
    57   34   35 am
    58   34   37 1
    59   35   36 2
    60   37   55 1
    61   37   56 1
    62   37   57 1
    63   38   58 1
    64   38   59 1
    65   38   60 1
@<TRIPOS>MOLECULE
ZINC15859008
   55    60     0     0     0
SMALL
USER_CHARGES
(3-chlorophenyl)-(2-fluorophenyl)-dimethyl-BLAHdione
@<TRIPOS>ATOM
      1 C1          0.9501    4.2779    0.0085 C.3       1 <0>         0.0827
      2 N1          1.7644    3.0617    0.0715 N.am      1 <0>        -0.5228
      3 C2          1.1749    1.7891    0.1102 C.2       1 <0>         0.1253
      4 C3          2.0549    0.5945    0.1743 C.2       1 <0>        -0.2559
      5 C4          1.2267   -0.5001    0.2050 C.2       1 <0>         0.2098
      6 N2         -0.0552   -0.0451    0.1743 N.pl3     1 <0>        -0.3610
      7 C5         -0.0715    1.3414    0.1033 C.2       1 <0>        -0.0091
      8 C6         -1.3695    2.1150    0.0182 C.3       1 <0>         0.2767
      9 H1         -1.2747    3.0557    0.5606 H         1 <0>         0.1168
     10 N3         -2.4254    1.2925    0.6287 N.pl3     1 <0>        -0.7435
     11 C7         -2.4433   -0.0919    0.4259 C.ar      1 <0>         0.1990
     12 C8         -1.2453   -0.7856    0.2225 C.ar      1 <0>         0.0661
     13 C9         -1.2503   -2.1604    0.0927 C.ar      1 <0>        -0.0991
     14 C10        -2.4499   -2.8501    0.1313 C.ar      1 <0>        -0.1342
     15 C11        -3.6387   -2.1658    0.3053 C.ar      1 <0>        -0.0788
     16 C12        -3.6397   -0.7910    0.4536 C.ar      1 <0>        -0.1549
     17 C13        -1.7065    2.3889   -1.4249 C.ar      1 <0>        -0.0955
     18 C14        -1.9903    1.3397   -2.2795 C.ar      1 <0>        -0.0893
     19 C15        -2.2994    1.5901   -3.6032 C.ar      1 <0>        -0.1024
     20 C16        -2.3250    2.8898   -4.0734 C.ar      1 <0>        -0.1015
     21 C17        -2.0411    3.9399   -3.2188 C.ar      1 <0>        -0.0312
     22 C18        -1.7372    3.6889   -1.8924 C.ar      1 <0>        -0.1024
     23 Cl1        -2.0725    5.5723   -3.8087 Cl        1 <0>        -0.0616
     24 C19         1.6496   -1.9123    0.2611 C.ar      1 <0>        -0.0800
     25 C20         1.8586   -2.6301   -0.9192 C.ar      1 <0>        -0.0596
     26 C21         2.2581   -3.9485   -0.8594 C.ar      1 <0>        -0.1270
     27 C22         2.4427   -4.5656    0.3658 C.ar      1 <0>        -0.0706
     28 C23         2.2336   -3.8649    1.5397 C.ar      1 <0>        -0.1521
     29 C24         1.8378   -2.5414    1.4964 C.ar      1 <0>         0.1338
     30 F1          1.6328   -1.8575    2.6434 F         1 <0>        -0.1289
     31 C25         3.5094    0.7773    0.1930 C.2       1 <0>         0.6021
     32 O1          4.2818   -0.1614    0.2432 O.2       1 <0>        -0.4849
     33 N4          3.9355    2.0661    0.1493 N.am      1 <0>        -0.5604
     34 C26         3.1145    3.1191    0.0944 C.2       1 <0>         0.7107
     35 O2          3.6253    4.2220    0.0618 O.2       1 <0>        -0.5512
     36 C27         5.3789    2.3165    0.1647 C.3       1 <0>         0.0741
     37 H2          0.6512    4.5677    1.0158 H         1 <0>         0.0715
     38 H3          1.5317    5.0815   -0.4433 H         1 <0>         0.1003
     39 H4          0.0616    4.0894   -0.5941 H         1 <0>         0.0808
     40 H5         -3.1108    1.7108    1.1730 H         1 <0>         0.4140
     41 H6         -0.3215   -2.6957   -0.0389 H         1 <0>         0.1382
     42 H7         -2.4572   -3.9249    0.0256 H         1 <0>         0.1338
     43 H8         -4.5723   -2.7084    0.3251 H         1 <0>         0.1328
     44 H9         -4.5715   -0.2627    0.5911 H         1 <0>         0.1354
     45 H10        -1.9708    0.3241   -1.9125 H         1 <0>         0.1237
     46 H11        -2.5214    0.7702   -4.2702 H         1 <0>         0.1345
     47 H12        -2.5669    3.0853   -5.1076 H         1 <0>         0.1367
     48 H13        -1.5198    4.5086   -1.2237 H         1 <0>         0.1379
     49 H14         1.7110   -2.1523   -1.8764 H         1 <0>         0.1363
     50 H15         2.4234   -4.5027   -1.7715 H         1 <0>         0.1390
     51 H16         2.7520   -5.5996    0.4054 H         1 <0>         0.1402
     52 H17         2.3797   -4.3529    2.4920 H         1 <0>         0.1436
     53 H18         5.5618    3.3903    0.1264 H         1 <0>         0.1061
     54 H19         5.8089    1.9071    1.0788 H         1 <0>         0.0778
     55 H20         5.8398    1.8383   -0.6996 H         1 <0>         0.0781
@<TRIPOS>BOND
     1    1    2 1
     2    1   37 1
     3    1   38 1
     4    1   39 1
     5    2   34 am
     6    2    3 1
     7    3    7 2
     8    3    4 1
     9    4    5 2
    10    4   31 1
    11    5    6 1
    12    5   24 1
    13    6   12 1
    14    6    7 1
    15    7    8 1
    16    8    9 1
    17    8   10 1
    18    8   17 1
    19   10   11 1
    20   10   40 1
    21   11   16 ar
    22   11   12 ar
    23   12   13 ar
    24   13   14 ar
    25   13   41 1
    26   14   15 ar
    27   14   42 1
    28   15   16 ar
    29   15   43 1
    30   16   44 1
    31   17   22 ar
    32   17   18 ar
    33   18   19 ar
    34   18   45 1
    35   19   20 ar
    36   19   46 1
    37   20   21 ar
    38   20   47 1
    39   21   22 ar
    40   21   23 1
    41   22   48 1
    42   24   29 ar
    43   24   25 ar
    44   25   26 ar
    45   25   49 1
    46   26   27 ar
    47   26   50 1
    48   27   28 ar
    49   27   51 1
    50   28   29 ar
    51   28   52 1
    52   29   30 1
    53   31   32 2
    54   31   33 am
    55   33   34 am
    56   33   36 1
    57   34   35 2
    58   36   53 1
    59   36   54 1
    60   36   55 1
@<TRIPOS>MOLECULE
ZINC15859009
   55    60     0     0     0
SMALL
USER_CHARGES
(3-chlorophenyl)-(2-fluorophenyl)-dimethyl-BLAHdione
@<TRIPOS>ATOM
      1 C1          6.5703   -1.1740    1.0439 C.3       1 <0>         0.0862
      2 N1          5.3467   -0.5026    1.4892 N.am      1 <0>        -0.5232
      3 C2          4.3880   -0.0474    0.5716 C.2       1 <0>         0.1250
      4 C3          3.1701    0.6291    1.0858 C.2       1 <0>        -0.2559
      5 C4          2.4134    0.9587   -0.0115 C.2       1 <0>         0.2105
      6 N2          3.0848    0.5348   -1.1154 N.pl3     1 <0>        -0.3605
      7 C5          4.2863   -0.0583   -0.7489 C.2       1 <0>        -0.0092
      8 C6          5.2586   -0.5834   -1.7828 C.3       1 <0>         0.2766
      9 H1          5.7492   -1.4807   -1.4055 H         1 <0>         0.1181
     10 N3          4.4952   -0.9071   -2.9980 N.pl3     1 <0>        -0.7449
     11 C7          3.4471   -0.0764   -3.4103 C.ar      1 <0>         0.1975
     12 C8          2.7140    0.6465   -2.4634 C.ar      1 <0>         0.0683
     13 C9          1.6608    1.4472   -2.8607 C.ar      1 <0>        -0.0964
     14 C10         1.3416    1.5454   -4.2039 C.ar      1 <0>        -0.1332
     15 C11         2.0740    0.8454   -5.1448 C.ar      1 <0>        -0.0791
     16 C12         3.1240    0.0352   -4.7533 C.ar      1 <0>        -0.1556
     17 C13         6.2901    0.4702   -2.0941 C.ar      1 <0>        -0.0956
     18 C14         5.9858    1.4989   -2.9664 C.ar      1 <0>        -0.0917
     19 C15         6.9298    2.4683   -3.2487 C.ar      1 <0>        -0.1029
     20 C16         8.1822    2.4041   -2.6672 C.ar      1 <0>        -0.1024
     21 C17         8.4890    1.3722   -1.7985 C.ar      1 <0>        -0.0319
     22 C18         7.5418    0.4049   -1.5122 C.ar      1 <0>        -0.1054
     23 Cl1        10.0618    1.2904   -1.0682 Cl        1 <0>        -0.0626
     24 C19         1.1115    1.6523    0.0040 C.ar      1 <0>        -0.0802
     25 C20        -0.0747    0.9176    0.0756 C.ar      1 <0>        -0.0543
     26 C21        -1.2883    1.5722    0.0849 C.ar      1 <0>        -0.1262
     27 C22        -1.3345    2.9548    0.0335 C.ar      1 <0>        -0.0705
     28 C23        -0.1658    3.6908   -0.0371 C.ar      1 <0>        -0.1533
     29 C24         1.0583    3.0491   -0.0525 C.ar      1 <0>         0.1293
     30 F1          2.1997    3.7685   -0.1224 F         1 <0>        -0.1286
     31 C25         3.0001    0.7944    2.5325 C.2       1 <0>         0.6021
     32 O1          2.0235    1.3370    3.0144 O.2       1 <0>        -0.4849
     33 N4          4.0100    0.3057    3.2977 N.am      1 <0>        -0.5602
     34 C26         5.0950   -0.2959    2.8008 C.2       1 <0>         0.7111
     35 O2          5.9261   -0.6900    3.5959 O.2       1 <0>        -0.5508
     36 C27         3.9036    0.4456    4.7521 C.3       1 <0>         0.0741
     37 H2          7.3435   -0.4301    0.8517 H         1 <0>         0.0744
     38 H3          6.9110   -1.8602    1.8192 H         1 <0>         0.1002
     39 H4          6.3669   -1.7311    0.1294 H         1 <0>         0.0785
     40 H5          4.7184   -1.6975   -3.5140 H         1 <0>         0.4143
     41 H6          1.0885    1.9942   -2.1260 H         1 <0>         0.1347
     42 H7          0.5187    2.1705   -4.5179 H         1 <0>         0.1339
     43 H8          1.8243    0.9317   -6.1920 H         1 <0>         0.1333
     44 H9          3.6912   -0.5102   -5.4931 H         1 <0>         0.1363
     45 H10         5.0089    1.5471   -3.4245 H         1 <0>         0.1270
     46 H11         6.6903    3.2737   -3.9273 H         1 <0>         0.1342
     47 H12         8.9212    3.1591   -2.8913 H         1 <0>         0.1362
     48 H13         7.7808   -0.4012   -0.8343 H         1 <0>         0.1375
     49 H14        -0.0414   -0.1610    0.1191 H         1 <0>         0.1355
     50 H15        -2.2057    1.0046    0.1358 H         1 <0>         0.1386
     51 H16        -2.2883    3.4612    0.0450 H         1 <0>         0.1402
     52 H17        -0.2097    4.7690   -0.0806 H         1 <0>         0.1439
     53 H18         4.7833    0.0083    5.2245 H         1 <0>         0.1062
     54 H19         3.8393    1.5023    5.0117 H         1 <0>         0.0778
     55 H20         3.0092   -0.0697    5.1022 H         1 <0>         0.0781
@<TRIPOS>BOND
     1    1    2 1
     2    1   37 1
     3    1   38 1
     4    1   39 1
     5    2   34 am
     6    2    3 1
     7    3    7 2
     8    3    4 1
     9    4    5 2
    10    4   31 1
    11    5    6 1
    12    5   24 1
    13    6   12 1
    14    6    7 1
    15    7    8 1
    16    8    9 1
    17    8   10 1
    18    8   17 1
    19   10   11 1
    20   10   40 1
    21   11   16 ar
    22   11   12 ar
    23   12   13 ar
    24   13   14 ar
    25   13   41 1
    26   14   15 ar
    27   14   42 1
    28   15   16 ar
    29   15   43 1
    30   16   44 1
    31   17   22 ar
    32   17   18 ar
    33   18   19 ar
    34   18   45 1
    35   19   20 ar
    36   19   46 1
    37   20   21 ar
    38   20   47 1
    39   21   22 ar
    40   21   23 1
    41   22   48 1
    42   24   29 ar
    43   24   25 ar
    44   25   26 ar
    45   25   49 1
    46   26   27 ar
    47   26   50 1
    48   27   28 ar
    49   27   51 1
    50   28   29 ar
    51   28   52 1
    52   29   30 1
    53   31   32 2
    54   31   33 am
    55   33   34 am
    56   33   36 1
    57   34   35 2
    58   36   53 1
    59   36   54 1
    60   36   55 1
@<TRIPOS>MOLECULE
ZINC15834250
   58    63     0     0     0
SMALL
USER_CHARGES
(2-fluorophenyl)-dimethyl-(m-tolyl)BLAHdione
@<TRIPOS>ATOM
      1 C1         -0.4283    4.2955   -8.2556 C.3       1 <0>        -0.1161
      2 C2         -0.6281    4.9689   -6.9223 C.ar      1 <0>        -0.0830
      3 C3         -1.5853    5.9591   -6.7856 C.ar      1 <0>        -0.0997
      4 C4         -1.7753    6.5831   -5.5654 C.ar      1 <0>        -0.1175
      5 C5         -1.0103    6.2218   -4.4757 C.ar      1 <0>        -0.0963
      6 C6         -0.0424    5.2232   -4.6064 C.ar      1 <0>        -0.0495
      7 C7          0.1475    4.6012   -5.8430 C.ar      1 <0>        -0.0637
      8 C8          0.7797    4.8313   -3.4453 C.2       1 <0>         0.2158
      9 C9          2.1493    4.8820   -3.3666 C.2       1 <0>        -0.2653
     10 C10         2.5143    4.3817   -2.0171 C.2       1 <0>         0.1237
     11 C11         1.3795    4.0652   -1.4110 C.2       1 <0>        -0.0114
     12 N1          0.3186    4.3533   -2.2579 N.pl3     1 <0>        -0.3649
     13 C12        -1.0101    4.1639   -1.8509 C.ar      1 <0>         0.0659
     14 C13        -2.0619    4.2575   -2.7416 C.ar      1 <0>        -0.1015
     15 C14        -3.3567    4.0483   -2.3004 C.ar      1 <0>        -0.1361
     16 C15        -3.5977    3.7520   -0.9709 C.ar      1 <0>        -0.0793
     17 C16        -2.5518    3.6749   -0.0704 C.ar      1 <0>        -0.1562
     18 C17        -1.2518    3.8918   -0.5004 C.ar      1 <0>         0.2016
     19 N2         -0.1901    3.8701    0.4107 N.pl3     1 <0>        -0.7432
     20 C18         1.1569    3.4799   -0.0332 C.3       1 <0>         0.2788
     21 H1          1.9023    3.8717    0.6589 H         1 <0>         0.1160
     22 C19         1.2583    1.9775   -0.0949 C.ar      1 <0>        -0.1451
     23 C20         1.1844    1.3291   -1.3133 C.ar      1 <0>        -0.0665
     24 C21         1.2778   -0.0488   -1.3702 C.ar      1 <0>        -0.1279
     25 C22         1.4457   -0.7800   -0.2088 C.ar      1 <0>        -0.0803
     26 C23         1.5194   -0.1340    1.0104 C.ar      1 <0>        -0.1537
     27 C24         1.4255    1.2464    1.0687 C.ar      1 <0>         0.1177
     28 F1          1.4971    1.8791    2.2603 F         1 <0>        -0.1357
     29 N3          3.8696    4.3313   -1.6586 N.am      1 <0>        -0.5234
     30 C25         4.7689    4.7469   -2.5780 C.2       1 <0>         0.7112
     31 O1          5.9433    4.7057   -2.2661 O.2       1 <0>        -0.5534
     32 N4          4.4762    5.1997   -3.8009 N.am      1 <0>        -0.5608
     33 C26         3.2116    5.3047   -4.2849 C.2       1 <0>         0.6016
     34 O2          2.9763    5.7204   -5.4038 O.2       1 <0>        -0.4837
     35 C27         5.5835    5.6068   -4.6694 C.3       1 <0>         0.0744
     36 C28         4.2929    3.8486   -0.3418 C.3       1 <0>         0.0893
     37 H2          0.3181    4.8431   -8.8310 H         1 <0>         0.0749
     38 H3         -0.0870    3.2723   -8.0984 H         1 <0>         0.0674
     39 H4         -1.3716    4.2840   -8.8018 H         1 <0>         0.0691
     40 H5         -2.1865    6.2465   -7.6355 H         1 <0>         0.1278
     41 H6         -2.5240    7.3550   -5.4658 H         1 <0>         0.1304
     42 H7         -1.1592    6.7102   -3.5240 H         1 <0>         0.1241
     43 H8          0.8971    3.8314   -5.9522 H         1 <0>         0.1254
     44 H9         -1.8744    4.4935   -3.7787 H         1 <0>         0.1471
     45 H10        -4.1805    4.1161   -2.9954 H         1 <0>         0.1325
     46 H11        -4.6094    3.5803   -0.6343 H         1 <0>         0.1310
     47 H12        -2.7470    3.4459    0.9668 H         1 <0>         0.1331
     48 H13        -0.3427    4.1131    1.3373 H         1 <0>         0.4123
     49 H14         1.0581    1.8995   -2.2216 H         1 <0>         0.1262
     50 H15         1.2199   -0.5547   -2.3227 H         1 <0>         0.1310
     51 H16         1.5189   -1.8566   -0.2545 H         1 <0>         0.1358
     52 H17         1.6498   -0.7054    1.9176 H         1 <0>         0.1391
     53 H18         6.5281    5.4655   -4.1441 H         1 <0>         0.1054
     54 H19         5.5771    5.0001   -5.5749 H         1 <0>         0.0777
     55 H20         5.4693    6.6577   -4.9353 H         1 <0>         0.0775
     56 H21         4.0369    2.7938   -0.2420 H         1 <0>         0.0715
     57 H22         5.3709    3.9722   -0.2387 H         1 <0>         0.1065
     58 H23         3.7857    4.4207    0.4351 H         1 <0>         0.0721
@<TRIPOS>BOND
     1    1    2 1
     2    1   37 1
     3    1   38 1
     4    1   39 1
     5    2    7 ar
     6    2    3 ar
     7    3    4 ar
     8    3   40 1
     9    4    5 ar
    10    4   41 1
    11    5    6 ar
    12    5   42 1
    13    6    7 ar
    14    6    8 1
    15    7   43 1
    16    8   12 1
    17    8    9 2
    18    9   33 1
    19    9   10 1
    20   10   11 2
    21   10   29 1
    22   11   20 1
    23   11   12 1
    24   12   13 1
    25   13   18 ar
    26   13   14 ar
    27   14   15 ar
    28   14   44 1
    29   15   16 ar
    30   15   45 1
    31   16   17 ar
    32   16   46 1
    33   17   18 ar
    34   17   47 1
    35   18   19 1
    36   19   20 1
    37   19   48 1
    38   20   21 1
    39   20   22 1
    40   22   27 ar
    41   22   23 ar
    42   23   24 ar
    43   23   49 1
    44   24   25 ar
    45   24   50 1
    46   25   26 ar
    47   25   51 1
    48   26   27 ar
    49   26   52 1
    50   27   28 1
    51   29   30 am
    52   29   36 1
    53   30   31 2
    54   30   32 am
    55   32   33 am
    56   32   35 1
    57   33   34 2
    58   35   53 1
    59   35   54 1
    60   35   55 1
    61   36   56 1
    62   36   57 1
    63   36   58 1
@<TRIPOS>MOLECULE
ZINC15834253
   58    63     0     0     0
SMALL
USER_CHARGES
(2-fluorophenyl)-dimethyl-(m-tolyl)BLAHdione
@<TRIPOS>ATOM
      1 C1          4.7772    4.5223    4.1217 C.3       1 <0>        -0.1161
      2 C2          3.5850    5.2218    3.5212 C.ar      1 <0>        -0.0873
      3 C3          3.5749    6.6018    3.4163 C.ar      1 <0>        -0.0994
      4 C4          2.4848    7.2524    2.8660 C.ar      1 <0>        -0.1133
      5 C5          1.3991    6.5286    2.4186 C.ar      1 <0>        -0.0685
      6 C6          1.4022    5.1356    2.5217 C.ar      1 <0>        -0.0498
      7 C7          2.5044    4.4857    3.0829 C.ar      1 <0>        -0.0909
      8 C8          0.2442    4.3544    2.0457 C.2       1 <0>         0.2167
      9 C9         -1.0547    4.4897    2.4688 C.2       1 <0>        -0.2657
     10 C10        -1.8549    3.5043    1.6986 C.2       1 <0>         0.1235
     11 C11        -1.0098    2.8750    0.8955 C.2       1 <0>        -0.0133
     12 N1          0.2699    3.3695    1.1082 N.pl3     1 <0>        -0.3648
     13 C12         1.3692    2.8679    0.3963 C.ar      1 <0>         0.0674
     14 C13         2.5911    3.5133    0.4022 C.ar      1 <0>        -0.1004
     15 C14         3.6369    3.0097   -0.3512 C.ar      1 <0>        -0.1349
     16 C15         3.4606    1.8645   -1.1066 C.ar      1 <0>        -0.0801
     17 C16         2.2436    1.2086   -1.1097 C.ar      1 <0>        -0.1542
     18 C17         1.1916    1.7007   -0.3530 C.ar      1 <0>         0.2004
     19 N2         -0.0404    1.0372   -0.3314 N.pl3     1 <0>        -0.7443
     20 C18        -1.2840    1.7990   -0.1382 C.3       1 <0>         0.2789
     21 H1         -2.0711    1.1355    0.2201 H         1 <0>         0.1166
     22 C19        -1.7023    2.4313   -1.4406 C.ar      1 <0>        -0.1478
     23 C20        -1.5035    3.7833   -1.6481 C.ar      1 <0>        -0.0660
     24 C21        -1.8866    4.3633   -2.8428 C.ar      1 <0>        -0.1277
     25 C22        -2.4687    3.5920   -3.8317 C.ar      1 <0>        -0.0796
     26 C23        -2.6689    2.2404   -3.6264 C.ar      1 <0>        -0.1535
     27 C24        -2.2807    1.6571   -2.4319 C.ar      1 <0>         0.1182
     28 F1         -2.4704    0.3344   -2.2323 F         1 <0>        -0.1354
     29 N3         -3.2354    3.4229    1.9341 N.am      1 <0>        -0.5232
     30 C25        -3.7559    4.2595    2.8592 C.2       1 <0>         0.7103
     31 O1         -4.9523    4.1884    3.0634 O.2       1 <0>        -0.5518
     32 N4         -3.0665    5.1581    3.5687 N.am      1 <0>        -0.5608
     33 C26        -1.7273    5.3487    3.4487 C.2       1 <0>         0.6017
     34 O2         -1.1266    6.1752    4.1092 O.2       1 <0>        -0.4840
     35 C27        -3.7979    5.9853    4.5315 C.3       1 <0>         0.0744
     36 C28        -4.0781    2.4699    1.2076 C.3       1 <0>         0.0937
     37 H2          4.6353    4.4214    5.1977 H         1 <0>         0.0729
     38 H3          4.8816    3.5338    3.6746 H         1 <0>         0.0675
     39 H4          5.6770    5.1060    3.9270 H         1 <0>         0.0700
     40 H5          4.4220    7.1736    3.7653 H         1 <0>         0.1277
     41 H6          2.4838    8.3295    2.7869 H         1 <0>         0.1306
     42 H7          0.5489    7.0377    1.9892 H         1 <0>         0.1255
     43 H8          2.5117    3.4092    3.1695 H         1 <0>         0.1237
     44 H9          2.7294    4.4069    0.9928 H         1 <0>         0.1455
     45 H10         4.5931    3.5117   -0.3490 H         1 <0>         0.1323
     46 H11         4.2787    1.4804   -1.6978 H         1 <0>         0.1311
     47 H12         2.1127    0.3144   -1.7010 H         1 <0>         0.1331
     48 H13        -0.0747    0.0748   -0.4480 H         1 <0>         0.4123
     49 H14        -1.0489    4.3867   -0.8763 H         1 <0>         0.1266
     50 H15        -1.7309    5.4198   -3.0041 H         1 <0>         0.1313
     51 H16        -2.7673    4.0463   -4.7649 H         1 <0>         0.1360
     52 H17        -3.1238    1.6381   -4.3989 H         1 <0>         0.1393
     53 H18        -4.8542    5.7171    4.5125 H         1 <0>         0.1053
     54 H19        -3.3984    5.8178    5.5318 H         1 <0>         0.0775
     55 H20        -3.6851    7.0367    4.2667 H         1 <0>         0.0778
     56 H21        -4.1814    1.5563    1.7932 H         1 <0>         0.0718
     57 H22        -5.0622    2.9082    1.0415 H         1 <0>         0.0939
     58 H23        -3.6178    2.2361    0.2477 H         1 <0>         0.0791
@<TRIPOS>BOND
     1    1    2 1
     2    1   37 1
     3    1   38 1
     4    1   39 1
     5    2    7 ar
     6    2    3 ar
     7    3    4 ar
     8    3   40 1
     9    4    5 ar
    10    4   41 1
    11    5    6 ar
    12    5   42 1
    13    6    7 ar
    14    6    8 1
    15    7   43 1
    16    8   12 1
    17    8    9 2
    18    9   33 1
    19    9   10 1
    20   10   11 2
    21   10   29 1
    22   11   20 1
    23   11   12 1
    24   12   13 1
    25   13   18 ar
    26   13   14 ar
    27   14   15 ar
    28   14   44 1
    29   15   16 ar
    30   15   45 1
    31   16   17 ar
    32   16   46 1
    33   17   18 ar
    34   17   47 1
    35   18   19 1
    36   19   20 1
    37   19   48 1
    38   20   21 1
    39   20   22 1
    40   22   27 ar
    41   22   23 ar
    42   23   24 ar
    43   23   49 1
    44   24   25 ar
    45   24   50 1
    46   25   26 ar
    47   25   51 1
    48   26   27 ar
    49   26   52 1
    50   27   28 1
    51   29   30 am
    52   29   36 1
    53   30   31 2
    54   30   32 am
    55   32   33 am
    56   32   35 1
    57   33   34 2
    58   35   53 1
    59   35   54 1
    60   35   55 1
    61   36   56 1
    62   36   57 1
    63   36   58 1
@<TRIPOS>MOLECULE
ZINC15834309
   62    67     0     0     0
SMALL
USER_CHARGES
(3-methoxyphenyl)-dimethyl-(o-tolyl)BLAHdione
@<TRIPOS>ATOM
      1 C1         -1.3061    2.1129   -2.3124 C.3       1 <0>        -0.1208
      2 C2         -1.8472    2.5845   -0.9873 C.ar      1 <0>        -0.0497
      3 C3         -2.9728    3.3808   -0.9440 C.ar      1 <0>        -0.1201
      4 C4         -3.4676    3.8194    0.2714 C.ar      1 <0>        -0.0963
      5 C5         -2.8413    3.4589    1.4518 C.ar      1 <0>        -0.1222
      6 C6         -1.7181    2.6593    1.4240 C.ar      1 <0>        -0.0786
      7 C7         -1.2128    2.2127    0.2003 C.ar      1 <0>        -0.0483
      8 C8         -0.0109    1.3572    0.1624 C.2       1 <0>         0.2207
      9 C9          1.2890    1.7885    0.0706 C.2       1 <0>        -0.2659
     10 C10         2.1381    0.5706    0.0533 C.2       1 <0>         0.1236
     11 C11         1.3157   -0.4656    0.1238 C.2       1 <0>        -0.0112
     12 N1          0.0096   -0.0017    0.2060 N.pl3     1 <0>        -0.3620
     13 C12        -1.0702   -0.8913    0.3030 C.ar      1 <0>         0.0689
     14 C13        -2.3743   -0.4687    0.1292 C.ar      1 <0>        -0.0967
     15 C14        -3.4092   -1.3835    0.2127 C.ar      1 <0>        -0.1360
     16 C15        -3.1396   -2.7158    0.4685 C.ar      1 <0>        -0.0803
     17 C16        -1.8380   -3.1439    0.6519 C.ar      1 <0>        -0.1574
     18 C17        -0.7945   -2.2343    0.5780 C.ar      1 <0>         0.1993
     19 N2          0.5265   -2.6497    0.7801 N.pl3     1 <0>        -0.7449
     20 C18         1.6316   -1.9455    0.1115 C.3       1 <0>         0.2759
     21 H1          2.5631   -2.1281    0.6473 H         1 <0>         0.1161
     22 C19         1.7587   -2.4278   -1.3105 C.ar      1 <0>        -0.0678
     23 C20         0.6235   -2.7029   -2.0508 C.ar      1 <0>        -0.1334
     24 C21         0.7367   -3.1455   -3.3556 C.ar      1 <0>        -0.0767
     25 C22         1.9851   -3.3142   -3.9232 C.ar      1 <0>        -0.2014
     26 C23         3.1253   -3.0386   -3.1829 C.ar      1 <0>         0.1313
     27 C24         3.0088   -2.5894   -1.8753 C.ar      1 <0>        -0.1467
     28 O1          4.3543   -3.2041   -3.7388 O.3       1 <0>        -0.3157
     29 C25         4.3980   -3.6652   -5.0907 C.3       1 <0>         0.0267
     30 N3          3.5304    0.7189   -0.0335 N.am      1 <0>        -0.5229
     31 C26         4.0159    1.9784   -0.0990 C.2       1 <0>         0.7106
     32 O2          5.2226    2.1064   -0.1755 O.2       1 <0>        -0.5531
     33 N4          3.2819    3.0951   -0.0873 N.am      1 <0>        -0.5612
     34 C27         1.9263    3.1070   -0.0054 C.2       1 <0>         0.6013
     35 O3          1.2847    4.1407    0.0038 O.2       1 <0>        -0.4843
     36 C28         3.9798    4.3807   -0.1669 C.3       1 <0>         0.0745
     37 C29         4.4214   -0.4439   -0.0528 C.3       1 <0>         0.0867
     38 H2         -1.7696    1.1624   -2.5766 H         1 <0>         0.0723
     39 H3         -1.5309    2.8527   -3.0807 H         1 <0>         0.0743
     40 H4         -0.2265    1.9825   -2.2383 H         1 <0>         0.0663
     41 H5         -3.4667    3.6657   -1.8612 H         1 <0>         0.1296
     42 H6         -4.3469    4.4458    0.2992 H         1 <0>         0.1280
     43 H7         -3.2330    3.8048    2.3969 H         1 <0>         0.1292
     44 H8         -1.2300    2.3793    2.3458 H         1 <0>         0.1242
     45 H9         -2.5850    0.5715   -0.0710 H         1 <0>         0.1412
     46 H10        -4.4296   -1.0566    0.0775 H         1 <0>         0.1322
     47 H11        -3.9511   -3.4261    0.5256 H         1 <0>         0.1315
     48 H12        -1.6345   -4.1853    0.8529 H         1 <0>         0.1347
     49 H13         0.7138   -3.4027    1.3622 H         1 <0>         0.4132
     50 H14        -0.3532   -2.5720   -1.6088 H         1 <0>         0.1227
     51 H15        -0.1513   -3.3600   -3.9316 H         1 <0>         0.1259
     52 H16         2.0730   -3.6600   -4.9426 H         1 <0>         0.1295
     53 H17         3.8950   -2.3702   -1.2982 H         1 <0>         0.1355
     54 H18         3.9124   -4.6387   -5.1585 H         1 <0>         0.0565
     55 H19         3.8789   -2.9547   -5.7339 H         1 <0>         0.0561
     56 H20         5.4362   -3.7540   -5.4109 H         1 <0>         0.1027
     57 H21         5.0543    4.2077   -0.2267 H         1 <0>         0.1054
     58 H22         3.6486    4.9196   -1.0546 H         1 <0>         0.0771
     59 H23         3.7557    4.9714    0.7214 H         1 <0>         0.0773
     60 H24         4.5618   -0.7769   -1.0811 H         1 <0>         0.0767
     61 H25         5.3856   -0.1699    0.3753 H         1 <0>         0.0978
     62 H26         3.9796   -1.2499    0.5330 H         1 <0>         0.0782
@<TRIPOS>BOND
     1    1    2 1
     2    1   38 1
     3    1   39 1
     4    1   40 1
     5    2    7 ar
     6    2    3 ar
     7    3    4 ar
     8    3   41 1
     9    4    5 ar
    10    4   42 1
    11    5    6 ar
    12    5   43 1
    13    6    7 ar
    14    6   44 1
    15    7    8 1
    16    8   12 1
    17    8    9 2
    18    9   34 1
    19    9   10 1
    20   10   11 2
    21   10   30 1
    22   11   20 1
    23   11   12 1
    24   12   13 1
    25   13   18 ar
    26   13   14 ar
    27   14   15 ar
    28   14   45 1
    29   15   16 ar
    30   15   46 1
    31   16   17 ar
    32   16   47 1
    33   17   18 ar
    34   17   48 1
    35   18   19 1
    36   19   20 1
    37   19   49 1
    38   20   21 1
    39   20   22 1
    40   22   27 ar
    41   22   23 ar
    42   23   24 ar
    43   23   50 1
    44   24   25 ar
    45   24   51 1
    46   25   26 ar
    47   25   52 1
    48   26   27 ar
    49   26   28 1
    50   27   53 1
    51   28   29 1
    52   29   54 1
    53   29   55 1
    54   29   56 1
    55   30   31 am
    56   30   37 1
    57   31   32 2
    58   31   33 am
    59   33   34 am
    60   33   36 1
    61   34   35 2
    62   36   57 1
    63   36   58 1
    64   36   59 1
    65   37   60 1
    66   37   61 1
    67   37   62 1
@<TRIPOS>MOLECULE
ZINC15834312
   62    67     0     0     0
SMALL
USER_CHARGES
(3-methoxyphenyl)-dimethyl-(o-tolyl)BLAHdione
@<TRIPOS>ATOM
      1 C1          4.0532   -0.9952    0.1240 C.3       1 <0>        -0.1176
      2 C2          2.6890   -0.3549    0.1262 C.ar      1 <0>        -0.0452
      3 C3          1.5561   -1.1416    0.1468 C.ar      1 <0>        -0.1190
      4 C4          0.3028   -0.5555    0.1479 C.ar      1 <0>        -0.0963
      5 C5          0.1760    0.8226    0.1289 C.ar      1 <0>        -0.1233
      6 C6          1.2998    1.6215    0.1087 C.ar      1 <0>        -0.0837
      7 C7          2.5687    1.0366    0.1069 C.ar      1 <0>        -0.0483
      8 C8          3.7760    1.8849    0.0853 C.2       1 <0>         0.2209
      9 C9          4.4344    2.3301   -1.0339 C.2       1 <0>        -0.2655
     10 C10         5.5734    3.1533   -0.5545 C.2       1 <0>         0.1231
     11 C11         5.5203    3.1392    0.7692 C.2       1 <0>        -0.0122
     12 N1          4.4417    2.3626    1.1705 N.pl3     1 <0>        -0.3628
     13 C12         4.1543    2.1691    2.5295 C.ar      1 <0>         0.0668
     14 C13         2.9566    1.6193    2.9449 C.ar      1 <0>        -0.0963
     15 C14         2.7046    1.4650    4.2967 C.ar      1 <0>        -0.1353
     16 C15         3.6473    1.8594    5.2288 C.ar      1 <0>        -0.0795
     17 C16         4.8512    2.4021    4.8198 C.ar      1 <0>        -0.1554
     18 C17         5.1171    2.5538    3.4677 C.ar      1 <0>         0.1998
     19 N2          6.3392    3.0835    3.0385 N.pl3     1 <0>        -0.7447
     20 C18         6.4166    3.8306    1.7736 C.3       1 <0>         0.2769
     21 H1          7.4441    3.8343    1.4099 H         1 <0>         0.1162
     22 C19         5.9455    5.2459    1.9878 C.ar      1 <0>        -0.0697
     23 C20         6.7549    6.3061    1.6228 C.ar      1 <0>        -0.1494
     24 C21         6.3253    7.6057    1.8171 C.ar      1 <0>        -0.0746
     25 C22         5.0856    7.8483    2.3768 C.ar      1 <0>        -0.2016
     26 C23         4.2720    6.7866    2.7441 C.ar      1 <0>         0.1310
     27 C24         4.7033    5.4832    2.5432 C.ar      1 <0>        -0.1256
     28 O1          3.0520    7.0226    3.2943 O.3       1 <0>        -0.3156
     29 C25         2.6709    8.3892    3.4656 C.3       1 <0>         0.0264
     30 N3          6.4260    3.7430   -1.4997 N.am      1 <0>        -0.5227
     31 C26         6.1559    3.5150   -2.8043 C.2       1 <0>         0.7101
     32 O2          6.8970    4.0236   -3.6231 O.2       1 <0>        -0.5532
     33 N4          5.1386    2.7843   -3.2706 N.am      1 <0>        -0.5613
     34 C27         4.2325    2.1578   -2.4762 C.2       1 <0>         0.6017
     35 O3          3.3163    1.4983   -2.9300 O.2       1 <0>        -0.4860
     36 C28         4.9920    2.6521   -4.7222 C.3       1 <0>         0.0779
     37 C29         7.5715    4.5588   -1.0892 C.3       1 <0>         0.0813
     38 H2          4.3736   -1.1642   -0.9041 H         1 <0>         0.0762
     39 H3          4.7645   -0.3366    0.6226 H         1 <0>         0.0614
     40 H4          4.0084   -1.9478    0.6518 H         1 <0>         0.0724
     41 H5          1.6476   -2.2176    0.1617 H         1 <0>         0.1292
     42 H6         -0.5808   -1.1763    0.1634 H         1 <0>         0.1280
     43 H7         -0.8055    1.2732    0.1254 H         1 <0>         0.1295
     44 H8          1.1994    2.6967    0.0935 H         1 <0>         0.1250
     45 H9          2.2202    1.3112    2.2175 H         1 <0>         0.1413
     46 H10         1.7697    1.0352    4.6247 H         1 <0>         0.1322
     47 H11         3.4417    1.7424    6.2826 H         1 <0>         0.1312
     48 H12         5.5834    2.7077    5.5526 H         1 <0>         0.1338
     49 H13         7.1367    2.9582    3.5763 H         1 <0>         0.4124
     50 H14         7.7242    6.1186    1.1849 H         1 <0>         0.1294
     51 H15         6.9591    8.4320    1.5309 H         1 <0>         0.1301
     52 H16         4.7501    8.8637    2.5277 H         1 <0>         0.1301
     53 H17         4.0697    4.6548    2.8240 H         1 <0>         0.1260
     54 H18         3.3879    8.8872    4.1184 H         1 <0>         0.0567
     55 H19         2.6560    8.8865    2.4958 H         1 <0>         0.0563
     56 H20         1.6783    8.4362    3.9134 H         1 <0>         0.1022
     57 H21         4.3615    3.4576   -5.0987 H         1 <0>         0.0719
     58 H22         5.9735    2.7085   -5.1931 H         1 <0>         0.0942
     59 H23         4.5321    1.6917   -4.9550 H         1 <0>         0.0908
     60 H24         8.4241    3.9112   -0.8848 H         1 <0>         0.0692
     61 H25         7.8271    5.2545   -1.8884 H         1 <0>         0.0980
     62 H26         7.3157    5.1176   -0.1890 H         1 <0>         0.0853
@<TRIPOS>BOND
     1    1    2 1
     2    1   38 1
     3    1   39 1
     4    1   40 1
     5    2    7 ar
     6    2    3 ar
     7    3    4 ar
     8    3   41 1
     9    4    5 ar
    10    4   42 1
    11    5    6 ar
    12    5   43 1
    13    6    7 ar
    14    6   44 1
    15    7    8 1
    16    8   12 1
    17    8    9 2
    18    9   34 1
    19    9   10 1
    20   10   11 2
    21   10   30 1
    22   11   20 1
    23   11   12 1
    24   12   13 1
    25   13   18 ar
    26   13   14 ar
    27   14   15 ar
    28   14   45 1
    29   15   16 ar
    30   15   46 1
    31   16   17 ar
    32   16   47 1
    33   17   18 ar
    34   17   48 1
    35   18   19 1
    36   19   20 1
    37   19   49 1
    38   20   21 1
    39   20   22 1
    40   22   27 ar
    41   22   23 ar
    42   23   24 ar
    43   23   50 1
    44   24   25 ar
    45   24   51 1
    46   25   26 ar
    47   25   52 1
    48   26   27 ar
    49   26   28 1
    50   27   53 1
    51   28   29 1
    52   29   54 1
    53   29   55 1
    54   29   56 1
    55   30   31 am
    56   30   37 1
    57   31   32 2
    58   31   33 am
    59   33   34 am
    60   33   36 1
    61   34   35 2
    62   36   57 1
    63   36   58 1
    64   36   59 1
    65   37   60 1
    66   37   61 1
    67   37   62 1
@<TRIPOS>MOLECULE
ZINC15834297
   61    66     0     0     0
SMALL
USER_CHARGES
dimethyl-(m-tolyl)-(o-tolyl)BLAHdione
@<TRIPOS>ATOM
      1 C1          2.4195    1.0758    0.0543 C.3       1 <0>        -0.1175
      2 C2          1.1187    1.8364    0.0696 C.ar      1 <0>        -0.0817
      3 C3         -0.0822    1.1518    0.0977 C.ar      1 <0>        -0.1134
      4 C4         -1.2753    1.8493    0.1064 C.ar      1 <0>        -0.1135
      5 C5         -1.2679    3.2319    0.0968 C.ar      1 <0>        -0.1015
      6 C6         -0.0674    3.9163    0.0696 C.ar      1 <0>        -0.1021
      7 C7          1.1260    3.2185    0.0560 C.ar      1 <0>        -0.1143
      8 C8         -0.0594    5.4232    0.0543 C.3       1 <0>         0.2756
      9 H1          0.9166    5.7898    0.3723 H         1 <0>         0.1132
     10 C9         -0.3649    5.9224   -1.3412 C.2       1 <0>        -0.0091
     11 C10         0.4531    6.1020   -2.3678 C.2       1 <0>         0.1212
     12 C11        -0.3815    6.5844   -3.4971 C.2       1 <0>        -0.2659
     13 C12        -1.6692    6.6584   -3.0274 C.2       1 <0>         0.2201
     14 N1         -1.6533    6.2728   -1.7234 N.pl3     1 <0>        -0.3626
     15 C13        -2.7249    6.1912   -0.8223 C.ar      1 <0>         0.0691
     16 C14        -4.0368    6.2756   -1.2480 C.ar      1 <0>        -0.0974
     17 C15        -5.0653    6.1411   -0.3321 C.ar      1 <0>        -0.1357
     18 C16        -4.7816    5.9239    1.0042 C.ar      1 <0>        -0.0807
     19 C17        -3.4713    5.8487    1.4384 C.ar      1 <0>        -0.1570
     20 C18        -2.4334    5.9898    0.5303 C.ar      1 <0>         0.1986
     21 N2         -1.1018    5.9355    0.9572 N.pl3     1 <0>        -0.7464
     22 C19        -2.8555    7.0794   -3.7977 C.ar      1 <0>        -0.0485
     23 C20        -3.2317    8.4247   -3.8278 C.ar      1 <0>        -0.0788
     24 C21        -4.3411    8.8110   -4.5501 C.ar      1 <0>        -0.1222
     25 C22        -5.0810    7.8698   -5.2445 C.ar      1 <0>        -0.0962
     26 C23        -4.7143    6.5359   -5.2192 C.ar      1 <0>        -0.1201
     27 C24        -3.6041    6.1357   -4.5049 C.ar      1 <0>        -0.0496
     28 C25        -3.2030    4.6833   -4.4832 C.3       1 <0>        -0.1207
     29 C26         0.2545    6.8678   -4.7876 C.2       1 <0>         0.6012
     30 O1         -0.3758    7.2644   -5.7498 O.2       1 <0>        -0.4840
     31 N3          1.5952    6.6568   -4.8354 N.am      1 <0>        -0.5612
     32 C27         2.3167    6.2234   -3.7972 C.2       1 <0>         0.7109
     33 O2          3.5109    6.0763   -3.9722 O.2       1 <0>        -0.5541
     34 N4          1.8312    5.9343   -2.5695 N.am      1 <0>        -0.5229
     35 C28         2.7080    5.4656   -1.4935 C.3       1 <0>         0.0871
     36 C29         2.2909    6.9202   -6.0975 C.3       1 <0>         0.0745
     37 H2          2.7150    0.8820   -0.9768 H         1 <0>         0.0722
     38 H3          3.1912    1.6658    0.5487 H         1 <0>         0.0680
     39 H4          2.2932    0.1293    0.5800 H         1 <0>         0.0682
     40 H5         -0.0879    0.0718    0.1084 H         1 <0>         0.1230
     41 H6         -2.2134    1.3145    0.1239 H         1 <0>         0.1223
     42 H7         -2.2002    3.7770    0.1070 H         1 <0>         0.1193
     43 H8          2.0641    3.7533    0.0344 H         1 <0>         0.1258
     44 H9         -4.2585    6.4461   -2.2912 H         1 <0>         0.1414
     45 H10        -6.0919    6.2056   -0.6613 H         1 <0>         0.1324
     46 H11        -5.5889    5.8126    1.7129 H         1 <0>         0.1316
     47 H12        -3.2567    5.6808    2.4834 H         1 <0>         0.1344
     48 H13        -0.8659    6.2356    1.8490 H         1 <0>         0.4124
     49 H14        -2.6548    9.1603   -3.2869 H         1 <0>         0.1240
     50 H15        -4.6330    9.8505   -4.5743 H         1 <0>         0.1292
     51 H16        -5.9489    8.1780   -5.8086 H         1 <0>         0.1282
     52 H17        -5.2965    5.8068   -5.7632 H         1 <0>         0.1297
     53 H18        -3.6974    4.1822   -3.6509 H         1 <0>         0.0722
     54 H19        -3.4992    4.2105   -5.4196 H         1 <0>         0.0745
     55 H20        -2.1224    4.6065   -4.3634 H         1 <0>         0.0661
     56 H21         2.7151    4.3758   -1.4793 H         1 <0>         0.0747
     57 H22         3.7200    5.8334   -1.6633 H         1 <0>         0.0985
     58 H23         2.3413    5.8391   -0.5374 H         1 <0>         0.0774
     59 H24         3.3531    6.7063   -5.9784 H         1 <0>         0.1054
     60 H25         1.8776    6.2836   -6.8798 H         1 <0>         0.0772
     61 H26         2.1597    7.9665   -6.3732 H         1 <0>         0.0773
@<TRIPOS>BOND
     1    1    2 1
     2    1   37 1
     3    1   38 1
     4    1   39 1
     5    2    7 ar
     6    2    3 ar
     7    3    4 ar
     8    3   40 1
     9    4    5 ar
    10    4   41 1
    11    5    6 ar
    12    5   42 1
    13    6    7 ar
    14    6    8 1
    15    7   43 1
    16    8    9 1
    17    8   21 1
    18    8   10 1
    19   10   14 1
    20   10   11 2
    21   11   34 1
    22   11   12 1
    23   12   13 2
    24   12   29 1
    25   13   14 1
    26   13   22 1
    27   14   15 1
    28   15   20 ar
    29   15   16 ar
    30   16   17 ar
    31   16   44 1
    32   17   18 ar
    33   17   45 1
    34   18   19 ar
    35   18   46 1
    36   19   20 ar
    37   19   47 1
    38   20   21 1
    39   21   48 1
    40   22   27 ar
    41   22   23 ar
    42   23   24 ar
    43   23   49 1
    44   24   25 ar
    45   24   50 1
    46   25   26 ar
    47   25   51 1
    48   26   27 ar
    49   26   52 1
    50   27   28 1
    51   28   53 1
    52   28   54 1
    53   28   55 1
    54   29   30 2
    55   29   31 am
    56   31   32 am
    57   31   36 1
    58   32   33 2
    59   32   34 am
    60   34   35 1
    61   35   56 1
    62   35   57 1
    63   35   58 1
    64   36   59 1
    65   36   60 1
    66   36   61 1
@<TRIPOS>MOLECULE
ZINC15834300
   61    66     0     0     0
SMALL
USER_CHARGES
dimethyl-(m-tolyl)-(o-tolyl)BLAHdione
@<TRIPOS>ATOM
      1 C1         -2.3669    1.0508    4.6082 C.3       1 <0>        -0.1166
      2 C2         -2.0836   -0.1163    3.6979 C.ar      1 <0>        -0.0825
      3 C3         -2.0438   -1.3995    4.2110 C.ar      1 <0>        -0.1129
      4 C4         -1.7836   -2.4698    3.3762 C.ar      1 <0>        -0.1115
      5 C5         -1.5640   -2.2574    2.0278 C.ar      1 <0>        -0.1173
      6 C6         -1.6043   -0.9747    1.5147 C.ar      1 <0>        -0.1043
      7 C7         -1.8589    0.0966    2.3508 C.ar      1 <0>        -0.0933
      8 C8         -1.3644   -0.7431    0.0451 C.3       1 <0>         0.2761
      9 H1         -1.2733   -1.6996   -0.4696 H         1 <0>         0.1129
     10 C9         -0.0985    0.0638   -0.1461 C.2       1 <0>        -0.0104
     11 C10         1.1592   -0.3476   -0.2108 C.2       1 <0>         0.1221
     12 C11         1.9958    0.8687   -0.3704 C.2       1 <0>        -0.2660
     13 C12         1.1334    1.9365   -0.3917 C.2       1 <0>         0.2199
     14 N1         -0.1294    1.4460   -0.2664 N.pl3     1 <0>        -0.3627
     15 C13        -1.3431    2.1485   -0.2660 C.ar      1 <0>         0.0665
     16 C14        -1.3826    3.5251   -0.1525 C.ar      1 <0>        -0.0970
     17 C15        -2.6028    4.1774   -0.1310 C.ar      1 <0>        -0.1370
     18 C16        -3.7786    3.4547   -0.2229 C.ar      1 <0>        -0.0797
     19 C17        -3.7460    2.0782   -0.3469 C.ar      1 <0>        -0.1575
     20 C18        -2.5286    1.4155   -0.3790 C.ar      1 <0>         0.2010
     21 N2         -2.4812    0.0249   -0.5263 N.pl3     1 <0>        -0.7443
     22 C19         1.5077    3.3576   -0.5265 C.ar      1 <0>        -0.0481
     23 C20         1.7693    4.1255    0.6110 C.ar      1 <0>        -0.0838
     24 C21         2.1186    5.4529    0.4775 C.ar      1 <0>        -0.1233
     25 C22         2.2098    6.0248   -0.7795 C.ar      1 <0>        -0.0963
     26 C23         1.9522    5.2704   -1.9104 C.ar      1 <0>        -0.1189
     27 C24         1.6078    3.9398   -1.7922 C.ar      1 <0>        -0.0451
     28 C25         1.3341    3.1180   -3.0254 C.3       1 <0>        -0.1196
     29 C26         3.4523    0.7279   -0.4660 C.2       1 <0>         0.6012
     30 O1          4.1907    1.6860   -0.5971 O.2       1 <0>        -0.4856
     31 N3          3.9206   -0.5450   -0.3988 N.am      1 <0>        -0.5611
     32 C27         3.1374   -1.6184   -0.2562 C.2       1 <0>         0.7099
     33 O2          3.6837   -2.7036   -0.2095 O.2       1 <0>        -0.5530
     34 N4          1.7895   -1.5997   -0.1599 N.am      1 <0>        -0.5227
     35 C28         1.0186   -2.8361   -0.0074 C.3       1 <0>         0.0819
     36 C29         5.3680   -0.7535   -0.4871 C.3       1 <0>         0.0778
     37 H2         -1.4288    1.4356    5.0082 H         1 <0>         0.0711
     38 H3         -2.8714    1.8364    4.0456 H         1 <0>         0.0660
     39 H4         -3.0053    0.7246    5.4292 H         1 <0>         0.0687
     40 H5         -2.2157   -1.5654    5.2642 H         1 <0>         0.1238
     41 H6         -1.7522   -3.4722    3.7771 H         1 <0>         0.1267
     42 H7         -1.3607   -3.0938    1.3754 H         1 <0>         0.1260
     43 H8         -1.8860    1.0994    1.9507 H         1 <0>         0.1169
     44 H9         -0.4648    4.0897   -0.0802 H         1 <0>         0.1413
     45 H10        -2.6372    5.2532   -0.0427 H         1 <0>         0.1321
     46 H11        -4.7280    3.9689   -0.1979 H         1 <0>         0.1312
     47 H12        -4.6677    1.5198   -0.4185 H         1 <0>         0.1336
     48 H13        -3.1876   -0.4345   -1.0068 H         1 <0>         0.4118
     49 H14         1.6978    3.6807    1.5926 H         1 <0>         0.1247
     50 H15         2.3211    6.0476    1.3559 H         1 <0>         0.1295
     51 H16         2.4838    7.0648   -0.8782 H         1 <0>         0.1281
     52 H17         2.0253    5.7232   -2.8882 H         1 <0>         0.1293
     53 H18         0.2762    3.1850   -3.2793 H         1 <0>         0.0721
     54 H19         1.9314    3.4972   -3.8547 H         1 <0>         0.0738
     55 H20         1.5968    2.0775   -2.8344 H         1 <0>         0.0656
     56 H21         0.6732   -3.1718   -0.9851 H         1 <0>         0.0695
     57 H22         1.6494   -3.6049    0.4388 H         1 <0>         0.0982
     58 H23         0.1596   -2.6514    0.6377 H         1 <0>         0.0842
     59 H24         5.8011   -0.7240    0.5127 H         1 <0>         0.0721
     60 H25         5.5683   -1.7240   -0.9413 H         1 <0>         0.0943
     61 H26         5.8117    0.0322   -1.0986 H         1 <0>         0.0910
@<TRIPOS>BOND
     1    1    2 1
     2    1   37 1
     3    1   38 1
     4    1   39 1
     5    2    7 ar
     6    2    3 ar
     7    3    4 ar
     8    3   40 1
     9    4    5 ar
    10    4   41 1
    11    5    6 ar
    12    5   42 1
    13    6    7 ar
    14    6    8 1
    15    7   43 1
    16    8    9 1
    17    8   21 1
    18    8   10 1
    19   10   14 1
    20   10   11 2
    21   11   34 1
    22   11   12 1
    23   12   13 2
    24   12   29 1
    25   13   14 1
    26   13   22 1
    27   14   15 1
    28   15   20 ar
    29   15   16 ar
    30   16   17 ar
    31   16   44 1
    32   17   18 ar
    33   17   45 1
    34   18   19 ar
    35   18   46 1
    36   19   20 ar
    37   19   47 1
    38   20   21 1
    39   21   48 1
    40   22   27 ar
    41   22   23 ar
    42   23   24 ar
    43   23   49 1
    44   24   25 ar
    45   24   50 1
    46   25   26 ar
    47   25   51 1
    48   26   27 ar
    49   26   52 1
    50   27   28 1
    51   28   53 1
    52   28   54 1
    53   28   55 1
    54   29   30 2
    55   29   31 am
    56   31   32 am
    57   31   36 1
    58   32   33 2
    59   32   34 am
    60   34   35 1
    61   35   56 1
    62   35   57 1
    63   35   58 1
    64   36   59 1
    65   36   60 1
    66   36   61 1
@<TRIPOS>MOLECULE
ZINC15834285
   58    63     0     0     0
SMALL
USER_CHARGES
dimethyl-(o-tolyl)-phenyl-BLAHdione
@<TRIPOS>ATOM
      1 C1          4.7376   -2.1298   -0.4300 C.3       1 <0>        -0.1205
      2 C2          4.1154   -2.5919   -1.7224 C.ar      1 <0>        -0.0494
      3 C3          4.3224   -3.8811   -2.1674 C.ar      1 <0>        -0.1200
      4 C4          3.7565   -4.3053   -3.3566 C.ar      1 <0>        -0.0962
      5 C5          2.9751   -3.4425   -4.1053 C.ar      1 <0>        -0.1222
      6 C6          2.7557   -2.1524   -3.6703 C.ar      1 <0>        -0.0791
      7 C7          3.3239   -1.7172   -2.4704 C.ar      1 <0>        -0.0485
      8 C8          3.0940   -0.3379   -1.9986 C.2       1 <0>         0.2196
      9 C9          3.8679    0.7583   -2.2881 C.2       1 <0>        -0.2656
     10 C10         3.2485    1.9107   -1.5860 C.2       1 <0>         0.1211
     11 C11         2.1928    1.4376   -0.9402 C.2       1 <0>        -0.0093
     12 N1          2.0765    0.0789   -1.1975 N.pl3     1 <0>        -0.3625
     13 C12         1.0177   -0.6739   -0.6691 C.ar      1 <0>         0.0687
     14 C13         1.0184   -2.0550   -0.7149 C.ar      1 <0>        -0.0972
     15 C14        -0.0211   -2.7614   -0.1359 C.ar      1 <0>        -0.1358
     16 C15        -1.0572   -2.0880    0.4854 C.ar      1 <0>        -0.0805
     17 C16        -1.0695   -0.7062    0.5257 C.ar      1 <0>        -0.1574
     18 C17        -0.0370    0.0114   -0.0582 C.ar      1 <0>         0.1984
     19 N2         -0.0472    1.4107   -0.0431 N.pl3     1 <0>        -0.7463
     20 C18         1.2194    2.1587   -0.0329 C.3       1 <0>         0.2752
     21 H1          1.0529    3.1710   -0.4011 H         1 <0>         0.1137
     22 C19         1.7705    2.2091    1.3688 C.ar      1 <0>        -0.1066
     23 C20         1.6862    1.0967    2.1851 C.ar      1 <0>        -0.0956
     24 C21         2.1956    1.1416    3.4693 C.ar      1 <0>        -0.1181
     25 C22         2.7807    2.3019    3.9406 C.ar      1 <0>        -0.1121
     26 C23         2.8607    3.4159    3.1260 C.ar      1 <0>        -0.1169
     27 C24         2.3552    3.3696    1.8402 C.ar      1 <0>        -0.1127
     28 N3          3.8396    3.1764   -1.7129 N.am      1 <0>        -0.5231
     29 C25         4.9507    3.2669   -2.4770 C.2       1 <0>         0.7109
     30 O1          5.4617    4.3645   -2.5882 O.2       1 <0>        -0.5540
     31 N4          5.5349    2.2521   -3.1212 N.am      1 <0>        -0.5612
     32 C26         5.0762    0.9742   -3.0905 C.2       1 <0>         0.6011
     33 O2          5.6298    0.0704   -3.6880 O.2       1 <0>        -0.4839
     34 C27         6.7393    2.5346   -3.9059 C.3       1 <0>         0.0744
     35 C28         3.2761    4.3518   -1.0442 C.3       1 <0>         0.0869
     36 H2          4.0549   -2.3329    0.3950 H         1 <0>         0.0722
     37 H3          5.6740   -2.6633   -0.2665 H         1 <0>         0.0744
     38 H4          4.9342   -1.0591   -0.4838 H         1 <0>         0.0661
     39 H5          4.9307   -4.5598   -1.5880 H         1 <0>         0.1297
     40 H6          3.9256   -5.3143   -3.7024 H         1 <0>         0.1282
     41 H7          2.5365   -3.7803   -5.0326 H         1 <0>         0.1293
     42 H8          2.1457   -1.4802   -4.2556 H         1 <0>         0.1240
     43 H9          1.8271   -2.5809   -1.2004 H         1 <0>         0.1415
     44 H10        -0.0235   -3.8408   -0.1694 H         1 <0>         0.1324
     45 H11        -1.8619   -2.6452    0.9420 H         1 <0>         0.1316
     46 H12        -1.8825   -0.1866    1.0109 H         1 <0>         0.1345
     47 H13        -0.8913    1.8885   -0.0435 H         1 <0>         0.4123
     48 H14         1.2254    0.1914    1.8182 H         1 <0>         0.1196
     49 H15         2.1334    0.2712    4.1057 H         1 <0>         0.1223
     50 H16         3.1757    2.3381    4.9452 H         1 <0>         0.1236
     51 H17         3.3179    4.3224    3.4942 H         1 <0>         0.1258
     52 H18         2.4174    4.2400    1.2039 H         1 <0>         0.1260
     53 H19         6.9800    3.5951   -3.8331 H         1 <0>         0.1054
     54 H20         7.5712    1.9458   -3.5194 H         1 <0>         0.0773
     55 H21         6.5628    2.2729   -4.9492 H         1 <0>         0.0773
     56 H22         3.6631    4.4115   -0.0269 H         1 <0>         0.0745
     57 H23         3.5563    5.2511   -1.5928 H         1 <0>         0.0990
     58 H24         2.1898    4.2675   -1.0153 H         1 <0>         0.0775
@<TRIPOS>BOND
     1    1    2 1
     2    1   36 1
     3    1   37 1
     4    1   38 1
     5    2    7 ar
     6    2    3 ar
     7    3    4 ar
     8    3   39 1
     9    4    5 ar
    10    4   40 1
    11    5    6 ar
    12    5   41 1
    13    6    7 ar
    14    6   42 1
    15    7    8 1
    16    8   12 1
    17    8    9 2
    18    9   32 1
    19    9   10 1
    20   10   11 2
    21   10   28 1
    22   11   20 1
    23   11   12 1
    24   12   13 1
    25   13   18 ar
    26   13   14 ar
    27   14   15 ar
    28   14   43 1
    29   15   16 ar
    30   15   44 1
    31   16   17 ar
    32   16   45 1
    33   17   18 ar
    34   17   46 1
    35   18   19 1
    36   19   20 1
    37   19   47 1
    38   20   21 1
    39   20   22 1
    40   22   27 ar
    41   22   23 ar
    42   23   24 ar
    43   23   48 1
    44   24   25 ar
    45   24   49 1
    46   25   26 ar
    47   25   50 1
    48   26   27 ar
    49   26   51 1
    50   27   52 1
    51   28   29 am
    52   28   35 1
    53   29   30 2
    54   29   31 am
    55   31   32 am
    56   31   34 1
    57   32   33 2
    58   34   53 1
    59   34   54 1
    60   34   55 1
    61   35   56 1
    62   35   57 1
    63   35   58 1
@<TRIPOS>MOLECULE
ZINC15834288
   58    63     0     0     0
SMALL
USER_CHARGES
dimethyl-(o-tolyl)-phenyl-BLAHdione
@<TRIPOS>ATOM
      1 C1          0.2545    1.1079   -0.3526 C.3       1 <0>        -0.1177
      2 C2         -0.3517    1.5801    0.9438 C.ar      1 <0>        -0.0452
      3 C3          0.4515    1.7979    2.0439 C.ar      1 <0>        -0.1190
      4 C4         -0.1033    2.2323    3.2346 C.ar      1 <0>        -0.0961
      5 C5         -1.4665    2.4510    3.3314 C.ar      1 <0>        -0.1234
      6 C6         -2.2818    2.2366    2.2401 C.ar      1 <0>        -0.0836
      7 C7         -1.7276    1.8039    1.0326 C.ar      1 <0>        -0.0485
      8 C8         -2.5927    1.5790   -0.1416 C.2       1 <0>         0.2195
      9 C9         -3.2193    0.4038   -0.4742 C.2       1 <0>        -0.2648
     10 C10        -3.9807    0.6689   -1.7210 C.2       1 <0>         0.1220
     11 C11        -3.7674    1.9390   -2.0323 C.2       1 <0>        -0.0112
     12 N1         -2.9186    2.4999   -1.0878 N.pl3     1 <0>        -0.3637
     13 C12        -2.5156    3.8401   -1.1796 C.ar      1 <0>         0.0663
     14 C13        -1.8667    4.4744   -0.1375 C.ar      1 <0>        -0.0971
     15 C14        -1.5021    5.8033   -0.2632 C.ar      1 <0>        -0.1363
     16 C15        -1.7869    6.4948   -1.4267 C.ar      1 <0>        -0.0799
     17 C16        -2.4296    5.8646   -2.4758 C.ar      1 <0>        -0.1567
     18 C17        -2.7915    4.5311   -2.3635 C.ar      1 <0>         0.2003
     19 N2         -3.4029    3.8682   -3.4337 N.pl3     1 <0>        -0.7443
     20 C18        -4.3217    2.7515   -3.1823 C.3       1 <0>         0.2757
     21 H1         -4.4037    2.1252   -4.0706 H         1 <0>         0.1135
     22 C19        -5.6776    3.2966   -2.8146 C.ar      1 <0>        -0.1083
     23 C20        -5.8008    4.2005   -1.7759 C.ar      1 <0>        -0.0930
     24 C21        -7.0440    4.7038   -1.4415 C.ar      1 <0>        -0.1171
     25 C22        -8.1653    4.2964   -2.1397 C.ar      1 <0>        -0.1111
     26 C23        -8.0429    3.3885   -3.1749 C.ar      1 <0>        -0.1160
     27 C24        -6.7991    2.8885   -3.5122 C.ar      1 <0>        -0.1115
     28 N3         -4.7220   -0.3744   -2.2953 N.am      1 <0>        -0.5225
     29 C25        -4.6956   -1.5709   -1.6674 C.2       1 <0>         0.7105
     30 O1         -5.3372   -2.4754   -2.1659 O.2       1 <0>        -0.5541
     31 N4         -4.0235   -1.8439   -0.5450 N.am      1 <0>        -0.5613
     32 C26        -3.2656   -0.9354    0.1216 C.2       1 <0>         0.6014
     33 O2         -2.6648   -1.2138    1.1423 O.2       1 <0>        -0.4846
     34 C27        -4.1103   -3.2017   -0.0017 C.3       1 <0>         0.0744
     35 C28        -5.4927   -0.1754   -3.5252 C.3       1 <0>         0.0818
     36 H2          0.2652    0.0182   -0.3730 H         1 <0>         0.0764
     37 H3          1.2747    1.4829   -0.4344 H         1 <0>         0.0726
     38 H4         -0.3379    1.4812   -1.1880 H         1 <0>         0.0612
     39 H5          1.5161    1.6292    1.9754 H         1 <0>         0.1293
     40 H6          0.5305    2.4019    4.0925 H         1 <0>         0.1282
     41 H7         -1.8928    2.7901    4.2640 H         1 <0>         0.1297
     42 H8         -3.3454    2.4074    2.3171 H         1 <0>         0.1248
     43 H9         -1.6446    3.9350    0.7714 H         1 <0>         0.1416
     44 H10        -0.9941    6.3018    0.5491 H         1 <0>         0.1323
     45 H11        -1.5050    7.5335   -1.5163 H         1 <0>         0.1313
     46 H12        -2.6498    6.4103   -3.3814 H         1 <0>         0.1339
     47 H13        -3.2162    4.1437   -4.3448 H         1 <0>         0.4120
     48 H14        -4.9252    4.5159   -1.2280 H         1 <0>         0.1164
     49 H15        -7.1396    5.4134   -0.6329 H         1 <0>         0.1227
     50 H16        -9.1370    4.6876   -1.8766 H         1 <0>         0.1243
     51 H17        -8.9189    3.0702   -3.7205 H         1 <0>         0.1266
     52 H18        -6.7034    2.1792   -4.3210 H         1 <0>         0.1265
     53 H19        -4.7501   -3.8090   -0.6418 H         1 <0>         0.1054
     54 H20        -3.1137   -3.6415    0.0381 H         1 <0>         0.0773
     55 H21        -4.5314   -3.1648    1.0030 H         1 <0>         0.0772
     56 H22        -4.8405   -0.3092   -4.3883 H         1 <0>         0.0696
     57 H23        -6.3043   -0.9018   -3.5670 H         1 <0>         0.0983
     58 H24        -5.9066    0.8329   -3.5354 H         1 <0>         0.0842
@<TRIPOS>BOND
     1    1    2 1
     2    1   36 1
     3    1   37 1
     4    1   38 1
     5    2    7 ar
     6    2    3 ar
     7    3    4 ar
     8    3   39 1
     9    4    5 ar
    10    4   40 1
    11    5    6 ar
    12    5   41 1
    13    6    7 ar
    14    6   42 1
    15    7    8 1
    16    8   12 1
    17    8    9 2
    18    9   32 1
    19    9   10 1
    20   10   11 2
    21   10   28 1
    22   11   20 1
    23   11   12 1
    24   12   13 1
    25   13   18 ar
    26   13   14 ar
    27   14   15 ar
    28   14   43 1
    29   15   16 ar
    30   15   44 1
    31   16   17 ar
    32   16   45 1
    33   17   18 ar
    34   17   46 1
    35   18   19 1
    36   19   20 1
    37   19   47 1
    38   20   21 1
    39   20   22 1
    40   22   27 ar
    41   22   23 ar
    42   23   24 ar
    43   23   48 1
    44   24   25 ar
    45   24   49 1
    46   25   26 ar
    47   25   50 1
    48   26   27 ar
    49   26   51 1
    50   27   52 1
    51   28   29 am
    52   28   35 1
    53   29   30 2
    54   29   31 am
    55   31   32 am
    56   31   34 1
    57   32   33 2
    58   34   53 1
    59   34   54 1
    60   34   55 1
    61   35   56 1
    62   35   57 1
    63   35   58 1
@<TRIPOS>MOLECULE
ZINC15834244
   58    63     0     0     0
SMALL
USER_CHARGES
(3-fluorophenyl)-dimethyl-(m-tolyl)BLAHdione
@<TRIPOS>ATOM
      1 C1          4.2365    5.2027   -4.3766 C.3       1 <0>        -0.1157
      2 C2          3.0714    5.7621   -3.6017 C.ar      1 <0>        -0.0875
      3 C3          3.0089    7.1182   -3.3321 C.ar      1 <0>        -0.0994
      4 C4          1.9428    7.6407   -2.6217 C.ar      1 <0>        -0.1130
      5 C5          0.9339    6.8119   -2.1766 C.ar      1 <0>        -0.0684
      6 C6          0.9903    5.4423   -2.4450 C.ar      1 <0>        -0.0495
      7 C7          2.0724    4.9210   -3.1587 C.ar      1 <0>        -0.0917
      8 C8         -0.0850    4.5492   -1.9717 C.2       1 <0>         0.2176
      9 C9         -1.4196    4.6543   -2.2756 C.2       1 <0>        -0.2644
     10 C10        -2.1033    3.5434   -1.5663 C.2       1 <0>         0.1241
     11 C11        -1.1654    2.8841   -0.9021 C.2       1 <0>        -0.0113
     12 N1          0.0659    3.4718   -1.1546 N.pl3     1 <0>        -0.3645
     13 C12         1.2472    2.9508   -0.6065 C.ar      1 <0>         0.0674
     14 C13         2.4370    3.6520   -0.6510 C.ar      1 <0>        -0.1014
     15 C14         3.5674    3.1249   -0.0520 C.ar      1 <0>        -0.1341
     16 C15         3.5074    1.9006    0.5886 C.ar      1 <0>        -0.0803
     17 C16         2.3233    1.1885    0.6275 C.ar      1 <0>        -0.1563
     18 C17         1.1868    1.7035    0.0231 C.ar      1 <0>         0.1960
     19 N2         -0.0126    0.9831    0.0360 N.pl3     1 <0>        -0.7450
     20 C18        -1.3012    1.6919    0.0144 C.3       1 <0>         0.2754
     21 H1         -2.0812    1.0276   -0.3578 H         1 <0>         0.1172
     22 C19        -1.6491    2.1597    1.4041 C.ar      1 <0>        -0.0784
     23 C20        -0.6624    2.6652    2.2303 C.ar      1 <0>        -0.1068
     24 C21        -0.9808    3.0992    3.5034 C.ar      1 <0>        -0.0867
     25 C22        -2.2844    3.0185    3.9558 C.ar      1 <0>        -0.1467
     26 C23        -3.2722    2.5076    3.1313 C.ar      1 <0>         0.1033
     27 C24        -2.9529    2.0780    1.8541 C.ar      1 <0>        -0.1490
     28 F1         -4.5466    2.4278    3.5726 F         1 <0>        -0.1355
     29 N3         -3.4923    3.4059   -1.7051 N.am      1 <0>        -0.5237
     30 C25        -4.1287    4.3072   -2.4858 C.2       1 <0>         0.7109
     31 O1         -5.3326    4.1875   -2.6064 O.2       1 <0>        -0.5520
     32 N4         -3.5460    5.3191   -3.1360 N.am      1 <0>        -0.5608
     33 C26        -2.2129    5.5751   -3.0960 C.2       1 <0>         0.6017
     34 O2         -1.7112    6.5049   -3.6993 O.2       1 <0>        -0.4838
     35 C27        -4.3946    6.2032   -3.9387 C.3       1 <0>         0.0743
     36 C28        -4.2232    2.3299   -1.0312 C.3       1 <0>         0.0860
     37 H2          5.0291    4.9167   -3.6851 H         1 <0>         0.0732
     38 H3          3.9119    4.3274   -4.9393 H         1 <0>         0.0670
     39 H4          4.6113    5.9593   -5.0660 H         1 <0>         0.0700
     40 H5          3.7960    7.7718   -3.6782 H         1 <0>         0.1279
     41 H6          1.9005    8.6999   -2.4150 H         1 <0>         0.1308
     42 H7          0.1022    7.2211   -1.6222 H         1 <0>         0.1255
     43 H8          2.1244    3.8624   -3.3663 H         1 <0>         0.1239
     44 H9          2.4843    4.6080   -1.1511 H         1 <0>         0.1467
     45 H10         4.4987    3.6708   -0.0845 H         1 <0>         0.1328
     46 H11         4.3913    1.4984    1.0611 H         1 <0>         0.1320
     47 H12         2.2836    0.2321    1.1277 H         1 <0>         0.1351
     48 H13         0.0058    0.0135    0.0553 H         1 <0>         0.4138
     49 H14         0.3572    2.7249    1.8792 H         1 <0>         0.1274
     50 H15        -0.2100    3.4977    4.1465 H         1 <0>         0.1348
     51 H16        -2.5322    3.3534    4.9522 H         1 <0>         0.1381
     52 H17        -3.7227    1.6790    1.2102 H         1 <0>         0.1398
     53 H18        -5.4308    5.8716   -3.8717 H         1 <0>         0.1055
     54 H19        -4.3146    7.2233   -3.5629 H         1 <0>         0.0778
     55 H20        -4.0699    6.1726   -4.9788 H         1 <0>         0.0778
     56 H21        -4.4946    2.6497   -0.0251 H         1 <0>         0.0736
     57 H22        -5.1268    2.0964   -1.5943 H         1 <0>         0.1004
     58 H23        -3.5921    1.4431   -0.9728 H         1 <0>         0.0781
@<TRIPOS>BOND
     1    1    2 1
     2    1   37 1
     3    1   38 1
     4    1   39 1
     5    2    7 ar
     6    2    3 ar
     7    3    4 ar
     8    3   40 1
     9    4    5 ar
    10    4   41 1
    11    5    6 ar
    12    5   42 1
    13    6    7 ar
    14    6    8 1
    15    7   43 1
    16    8   12 1
    17    8    9 2
    18    9   33 1
    19    9   10 1
    20   10   11 2
    21   10   29 1
    22   11   20 1
    23   11   12 1
    24   12   13 1
    25   13   18 ar
    26   13   14 ar
    27   14   15 ar
    28   14   44 1
    29   15   16 ar
    30   15   45 1
    31   16   17 ar
    32   16   46 1
    33   17   18 ar
    34   17   47 1
    35   18   19 1
    36   19   20 1
    37   19   48 1
    38   20   21 1
    39   20   22 1
    40   22   27 ar
    41   22   23 ar
    42   23   24 ar
    43   23   49 1
    44   24   25 ar
    45   24   50 1
    46   25   26 ar
    47   25   51 1
    48   26   27 ar
    49   26   28 1
    50   27   52 1
    51   29   30 am
    52   29   36 1
    53   30   31 2
    54   30   32 am
    55   32   33 am
    56   32   35 1
    57   33   34 2
    58   35   53 1
    59   35   54 1
    60   35   55 1
    61   36   56 1
    62   36   57 1
    63   36   58 1
@<TRIPOS>MOLECULE
ZINC15834247
   58    63     0     0     0
SMALL
USER_CHARGES
(3-fluorophenyl)-dimethyl-(m-tolyl)BLAHdione
@<TRIPOS>ATOM
      1 C1          5.3675   -1.3735   -3.6478 C.3       1 <0>        -0.1160
      2 C2          4.9634   -2.3353   -2.5603 C.ar      1 <0>        -0.0877
      3 C3          5.9213   -3.1184   -1.9402 C.ar      1 <0>        -0.0993
      4 C4          5.5593   -4.0045   -0.9411 C.ar      1 <0>        -0.1132
      5 C5          4.2391   -4.1134   -0.5564 C.ar      1 <0>        -0.0683
      6 C6          3.2669   -3.3262   -1.1778 C.ar      1 <0>        -0.0498
      7 C7          3.6390   -2.4374   -2.1896 C.ar      1 <0>        -0.0912
      8 C8          1.8524   -3.4370   -0.7717 C.2       1 <0>         0.2177
      9 C9          1.0871   -4.5763   -0.7995 C.2       1 <0>        -0.2647
     10 C10        -0.2557   -4.1962   -0.2922 C.2       1 <0>         0.1246
     11 C11        -0.1961   -2.9072    0.0076 C.2       1 <0>        -0.0120
     12 N1          1.0694   -2.4288   -0.3014 N.pl3     1 <0>        -0.3649
     13 C12         1.3950   -1.0748   -0.1391 C.ar      1 <0>         0.0651
     14 C13         2.7000   -0.6289   -0.2270 C.ar      1 <0>        -0.1017
     15 C14         2.9824    0.7113   -0.0296 C.ar      1 <0>        -0.1349
     16 C15         1.9621    1.6019    0.2515 C.ar      1 <0>        -0.0796
     17 C16         0.6532    1.1645    0.3302 C.ar      1 <0>        -0.1558
     18 C17         0.3589   -0.1758    0.1324 C.ar      1 <0>         0.1978
     19 N2         -0.9648   -0.6265    0.1828 N.pl3     1 <0>        -0.7439
     20 C18        -1.2617   -2.0070    0.5946 C.3       1 <0>         0.2763
     21 H1         -2.2414   -2.3014    0.2183 H         1 <0>         0.1161
     22 C19        -1.2425   -2.1058    2.0982 C.ar      1 <0>        -0.0794
     23 C20        -0.1424   -1.6582    2.8062 C.ar      1 <0>        -0.1041
     24 C21        -0.1235   -1.7478    4.1854 C.ar      1 <0>        -0.0858
     25 C22        -1.2046   -2.2851    4.8584 C.ar      1 <0>        -0.1454
     26 C23        -2.3064   -2.7340    4.1506 C.ar      1 <0>         0.1042
     27 C24        -2.3265   -2.6386    2.7692 C.ar      1 <0>        -0.1464
     28 F1         -3.3635   -3.2598    4.8074 F         1 <0>        -0.1351
     29 N3         -1.2537   -5.1794   -0.2190 N.am      1 <0>        -0.5232
     30 C25        -0.9241   -6.4270   -0.6207 C.2       1 <0>         0.7105
     31 O1         -1.7903   -7.2781   -0.5605 O.2       1 <0>        -0.5524
     32 N4          0.2735   -6.8044   -1.0782 N.am      1 <0>        -0.5608
     33 C26         1.3331   -5.9643   -1.2037 C.2       1 <0>         0.6015
     34 O2          2.4125   -6.3375   -1.6232 O.2       1 <0>        -0.4840
     35 C27         0.4539   -8.2055   -1.4663 C.3       1 <0>         0.0744
     36 C28        -2.5977   -4.8666    0.2730 C.3       1 <0>         0.0826
     37 H2          5.3198   -1.8763   -4.6137 H         1 <0>         0.0729
     38 H3          4.6895   -0.5201   -3.6486 H         1 <0>         0.0676
     39 H4          6.3857   -1.0284   -3.4677 H         1 <0>         0.0700
     40 H5          6.9564   -3.0378   -2.2379 H         1 <0>         0.1278
     41 H6          6.3121   -4.6125   -0.4615 H         1 <0>         0.1307
     42 H7          3.9578   -4.8059    0.2231 H         1 <0>         0.1255
     43 H8          2.8919   -1.8289   -2.6774 H         1 <0>         0.1239
     44 H9          3.4966   -1.3238   -0.4486 H         1 <0>         0.1470
     45 H10         4.0015    1.0627   -0.0956 H         1 <0>         0.1328
     46 H11         2.1896    2.6456    0.4104 H         1 <0>         0.1317
     47 H12        -0.1398    1.8667    0.5412 H         1 <0>         0.1343
     48 H13        -1.6891   -0.0266   -0.0549 H         1 <0>         0.4133
     49 H14         0.7027   -1.2379    2.2812 H         1 <0>         0.1245
     50 H15         0.7362   -1.3975    4.7373 H         1 <0>         0.1352
     51 H16        -1.1900   -2.3543    5.9361 H         1 <0>         0.1387
     52 H17        -3.1877   -2.9837    2.2163 H         1 <0>         0.1402
     53 H18        -0.4778   -8.7489   -1.3091 H         1 <0>         0.1054
     54 H19         0.7321   -8.2581   -2.5189 H         1 <0>         0.0777
     55 H20         1.2417   -8.6520   -0.8595 H         1 <0>         0.0778
     56 H21        -3.2011   -4.4717   -0.5444 H         1 <0>         0.0714
     57 H22        -3.0620   -5.7727    0.6624 H         1 <0>         0.0997
     58 H23        -2.5300   -4.1229    1.0669 H         1 <0>         0.0807
@<TRIPOS>BOND
     1    1    2 1
     2    1   37 1
     3    1   38 1
     4    1   39 1
     5    2    7 ar
     6    2    3 ar
     7    3    4 ar
     8    3   40 1
     9    4    5 ar
    10    4   41 1
    11    5    6 ar
    12    5   42 1
    13    6    7 ar
    14    6    8 1
    15    7   43 1
    16    8   12 1
    17    8    9 2
    18    9   33 1
    19    9   10 1
    20   10   11 2
    21   10   29 1
    22   11   20 1
    23   11   12 1
    24   12   13 1
    25   13   18 ar
    26   13   14 ar
    27   14   15 ar
    28   14   44 1
    29   15   16 ar
    30   15   45 1
    31   16   17 ar
    32   16   46 1
    33   17   18 ar
    34   17   47 1
    35   18   19 1
    36   19   20 1
    37   19   48 1
    38   20   21 1
    39   20   22 1
    40   22   27 ar
    41   22   23 ar
    42   23   24 ar
    43   23   49 1
    44   24   25 ar
    45   24   50 1
    46   25   26 ar
    47   25   51 1
    48   26   27 ar
    49   26   28 1
    50   27   52 1
    51   29   30 am
    52   29   36 1
    53   30   31 2
    54   30   32 am
    55   32   33 am
    56   32   35 1
    57   33   34 2
    58   35   53 1
    59   35   54 1
    60   35   55 1
    61   36   56 1
    62   36   57 1
    63   36   58 1
@<TRIPOS>MOLECULE
ZINC22115071
   41    43     0     0     0
SMALL
USER_CHARGES

@<TRIPOS>ATOM
      1 C1          0.0824    1.3519    1.1993 C.ar      1 <0>        -0.1415
      2 C2          1.2742    2.0560    1.3621 C.ar      1 <0>        -0.1051
      3 C3          2.4768    1.4230    1.2906 C.ar      1 <0>        -0.1231
      4 C4          2.5211    0.0386    1.0492 C.ar      1 <0>         0.0015
      5 C5          3.7442   -0.6469    0.9698 C.ar      1 <0>        -0.2034
      6 C6          3.7471   -2.0037    0.7322 C.ar      1 <0>         0.2249
      7 C7          2.5449   -2.7030    0.5694 C.ar      1 <0>        -0.1723
      8 C8          1.3488   -2.0619    0.6420 C.ar      1 <0>        -0.0612
      9 C9          1.3090   -0.6774    0.8837 C.ar      1 <0>        -0.0993
     10 C10         0.0867    0.0113    0.9643 C.ar      1 <0>        -0.0892
     11 N1          4.9611   -2.6886    0.6526 N.pl3     1 <0>        -0.7345
     12 C11         4.9728   -4.1316    0.4002 C.3       1 <0>         0.1183
     13 C12         6.3969   -4.6233    0.3614 C.2       1 <0>         0.5042
     14 O1          7.3119   -3.8449    0.5281 O.2       1 <0>        -0.5103
     15 N2          6.6536   -5.9279    0.1414 N.am      1 <0>        -0.5358
     16 N3          7.9775   -6.3850    0.1053 N.pl3     1 <0>        -0.4620
     17 C13         8.2333   -7.6851   -0.1139 C.2       1 <0>         0.2383
     18 C14         9.5502   -8.1257   -0.2335 C.ar      1 <0>        -0.2967
     19 C15         9.8402   -9.5045   -0.3503 C.ar      1 <0>         0.0005
     20 C16        11.1264   -9.9208   -0.4667 C.ar      1 <0>        -0.1528
     21 C17        12.1897   -9.0106   -0.4743 C.ar      1 <0>         0.3459
     22 C18        11.9710   -7.6537   -0.3638 C.ar      1 <0>        -0.4195
     23 C19        10.6621   -7.1655   -0.2466 C.ar      1 <0>         0.4258
     24 O2         10.4501   -5.9638   -0.1523 O.3       1 <0>        -0.5718
     25 Br1        13.4325   -6.4538   -0.3774 Br        1 <0>        -0.0923
     26 O3         13.4596   -9.4722   -0.5923 O.3       1 <0>        -0.6368
     27 Br2        11.4902  -11.7700   -0.6211 Br        1 <0>        -0.0756
     28 H1         -0.8589    1.8773    1.2652 H         1 <0>         0.1185
     29 H2          1.2429    3.1195    1.5472 H         1 <0>         0.1194
     30 H3          3.3924    1.9813    1.4183 H         1 <0>         0.1242
     31 H4          4.6755   -0.1142    1.0936 H         1 <0>         0.1263
     32 H5          2.5685   -3.7666    0.3831 H         1 <0>         0.1245
     33 H6          0.4301   -2.6151    0.5139 H         1 <0>         0.1284
     34 H7         -0.8450   -0.5207    0.8407 H         1 <0>         0.1227
     35 H8          5.7968   -2.2090    0.7643 H         1 <0>         0.4152
     36 H9          4.4331   -4.6441    1.1966 H         1 <0>         0.0979
     37 H10         4.4913   -4.3372   -0.5558 H         1 <0>         0.0979
     38 H11         5.9218   -6.5505    0.0081 H         1 <0>         0.4225
     39 H12         8.7093   -5.7624    0.2387 H         1 <0>         0.4539
     40 H13         7.4186   -8.3892   -0.1974 H         1 <0>         0.1532
     41 H14         9.0375  -10.2270   -0.3467 H         1 <0>         0.1194
@<TRIPOS>BOND
     1    1   10 ar
     2    1    2 ar
     3    1   28 1
     4    2    3 ar
     5    2   29 1
     6    3    4 ar
     7    3   30 1
     8    4    9 ar
     9    4    5 ar
    10    5    6 ar
    11    5   31 1
    12    6    7 ar
    13    6   11 1
    14    7    8 ar
    15    7   32 1
    16    8    9 ar
    17    8   33 1
    18    9   10 ar
    19   10   34 1
    20   11   12 1
    21   11   35 1
    22   12   13 1
    23   12   36 1
    24   12   37 1
    25   13   14 2
    26   13   15 am
    27   15   16 1
    28   15   38 1
    29   16   17 2
    30   16   39 1
    31   17   18 1
    32   17   40 1
    33   18   23 ar
    34   18   19 ar
    35   19   20 ar
    36   19   41 1
    37   20   21 ar
    38   20   27 1
    39   21   22 ar
    40   21   26 1
    41   22   23 ar
    42   22   25 1
    43   23   24 1
@<TRIPOS>MOLECULE
ZINC22115071
   41    43     0     0     0
SMALL
USER_CHARGES

@<TRIPOS>ATOM
      1 C1         -0.0164    1.3568    0.0095 C.ar      1 <0>        -0.1448
      2 C2          1.1684    2.0908    0.0021 C.ar      1 <0>        -0.1065
      3 C3          2.3781    1.4677   -0.0128 C.ar      1 <0>        -0.1234
      4 C4          2.4371    0.0630   -0.0208 C.ar      1 <0>         0.0033
      5 C5          3.6679   -0.6130   -0.0357 C.ar      1 <0>        -0.2090
      6 C6          3.6852   -1.9904   -0.0428 C.ar      1 <0>         0.2293
      7 C7          2.4899   -2.7199   -0.0359 C.ar      1 <0>        -0.1715
      8 C8          1.2866   -2.0884   -0.0216 C.ar      1 <0>        -0.0625
      9 C9          1.2321   -0.6835   -0.0134 C.ar      1 <0>        -0.1020
     10 C10         0.0021   -0.0041    0.0020 C.ar      1 <0>        -0.0882
     11 N1          4.9069   -2.6660   -0.0576 N.pl3     1 <0>        -0.7306
     12 C11         4.9340   -4.1307   -0.0653 C.3       1 <0>         0.1101
     13 C12         6.3637   -4.6067   -0.0809 C.2       1 <0>         0.5185
     14 O1          7.2711   -3.8014   -0.0852 O.2       1 <0>        -0.4908
     15 N2          6.6344   -5.9269   -0.0901 N.am      1 <0>        -0.5936
     16 N3          7.9636   -6.3694   -0.1047 N.2       1 <0>        -0.1937
     17 C13         8.2243   -7.6413   -0.1135 C.2       1 <0>         0.1324
     18 C14         9.6219   -8.1065   -0.1288 C.ar      1 <0>        -0.2121
     19 C15         9.9055   -9.4750   -0.1443 C.ar      1 <0>         0.0143
     20 C16        11.2145   -9.9063   -0.1590 C.ar      1 <0>        -0.2459
     21 C17        12.2552   -8.9841   -0.1582 C.ar      1 <0>         0.2147
     22 C18        11.9836   -7.6234   -0.1424 C.ar      1 <0>        -0.2402
     23 C19        10.6725   -7.1783   -0.1338 C.ar      1 <0>         0.3215
     24 O2         10.4051   -5.8466   -0.1242 O.3       1 <0>        -0.6075
     25 Br1        13.4049   -6.3762   -0.1408 Br        1 <0>        -0.0698
     26 O3         13.5430   -9.4170   -0.1723 O.3       1 <0>        -0.4889
     27 Br2        11.5963  -11.7583   -0.1799 Br        1 <0>        -0.0846
     28 H1         -0.9634    1.8758    0.0259 H         1 <0>         0.1172
     29 H2          1.1257    3.1700    0.0080 H         1 <0>         0.1181
     30 H3          3.2882    2.0492   -0.0187 H         1 <0>         0.1235
     31 H4          4.5939   -0.0572   -0.0418 H         1 <0>         0.1260
     32 H5          2.5248   -3.7993   -0.0425 H         1 <0>         0.1244
     33 H6          0.3734   -2.6650   -0.0168 H         1 <0>         0.1272
     34 H7         -0.9243   -0.5592    0.0082 H         1 <0>         0.1215
     35 H8          5.7379   -2.1655   -0.0627 H         1 <0>         0.4150
     36 H9          4.4352   -4.5080    0.8275 H         1 <0>         0.0907
     37 H10         4.4187   -4.4989   -0.9524 H         1 <0>         0.0906
     38 H11         5.9089   -6.5708   -0.0867 H         1 <0>         0.3680
     39 H12         7.4165   -8.3581   -0.1097 H         1 <0>         0.0981
     40 H13         9.0996  -10.1939   -0.1443 H         1 <0>         0.1168
     41 H14        13.9089   -9.5338   -1.0597 H         1 <0>         0.3843
@<TRIPOS>BOND
     1    1   10 ar
     2    1    2 ar
     3    1   28 1
     4    2    3 ar
     5    2   29 1
     6    3    4 ar
     7    3   30 1
     8    4    9 ar
     9    4    5 ar
    10    5    6 ar
    11    5   31 1
    12    6    7 ar
    13    6   11 1
    14    7    8 ar
    15    7   32 1
    16    8    9 ar
    17    8   33 1
    18    9   10 ar
    19   10   34 1
    20   11   12 1
    21   11   35 1
    22   12   13 1
    23   12   36 1
    24   12   37 1
    25   13   14 2
    26   13   15 am
    27   15   16 1
    28   15   38 1
    29   16   17 2
    30   17   18 1
    31   17   39 1
    32   18   23 ar
    33   18   19 ar
    34   19   20 ar
    35   19   40 1
    36   20   21 ar
    37   20   27 1
    38   21   22 ar
    39   21   26 1
    40   22   23 ar
    41   22   25 1
    42   23   24 1
    43   26   41 1
@<TRIPOS>MOLECULE
ZINC22115071
   41    43     0     0     0
SMALL
USER_CHARGES

@<TRIPOS>ATOM
      1 C1         -0.0164    1.3568    0.0095 C.ar      1 <0>        -0.1433
      2 C2          1.1684    2.0908    0.0021 C.ar      1 <0>        -0.1057
      3 C3          2.3781    1.4677   -0.0128 C.ar      1 <0>        -0.1235
      4 C4          2.4371    0.0630   -0.0208 C.ar      1 <0>         0.0024
      5 C5          3.6679   -0.6130   -0.0357 C.ar      1 <0>        -0.2069
      6 C6          3.6852   -1.9904   -0.0428 C.ar      1 <0>         0.2272
      7 C7          2.4899   -2.7199   -0.0359 C.ar      1 <0>        -0.1720
      8 C8          1.2866   -2.0884   -0.0216 C.ar      1 <0>        -0.0618
      9 C9          1.2321   -0.6835   -0.0134 C.ar      1 <0>        -0.1007
     10 C10         0.0021   -0.0041    0.0020 C.ar      1 <0>        -0.0885
     11 N1          4.9069   -2.6660   -0.0576 N.pl3     1 <0>        -0.7321
     12 C11         4.9340   -4.1307   -0.0653 C.3       1 <0>         0.1101
     13 C12         6.3637   -4.6067   -0.0809 C.2       1 <0>         0.5227
     14 O1          7.2711   -3.8014   -0.0852 O.2       1 <0>        -0.5005
     15 N2          6.6344   -5.9269   -0.0901 N.am      1 <0>        -0.5864
     16 N3          7.9636   -6.3694   -0.1047 N.2       1 <0>        -0.2515
     17 C13         8.2243   -7.6413   -0.1135 C.2       1 <0>         0.1588
     18 C14         9.6219   -8.1065   -0.1288 C.ar      1 <0>        -0.2334
     19 C15         9.9055   -9.4750   -0.1443 C.ar      1 <0>         0.0162
     20 C16        11.2145   -9.9063   -0.1590 C.ar      1 <0>        -0.2250
     21 C17        12.2552   -8.9841   -0.1582 C.ar      1 <0>         0.3300
     22 C18        11.9836   -7.6234   -0.1424 C.ar      1 <0>        -0.2544
     23 C19        10.6725   -7.1783   -0.1338 C.ar      1 <0>         0.2373
     24 O2         10.4051   -5.8466   -0.1242 O.3       1 <0>        -0.4709
     25 Br1        13.4049   -6.3762   -0.1408 Br        1 <0>        -0.0690
     26 O3         13.5430   -9.4170   -0.1723 O.3       1 <0>        -0.6427
     27 Br2        11.5963  -11.7583   -0.1799 Br        1 <0>        -0.0785
     28 H1         -0.9634    1.8758    0.0259 H         1 <0>         0.1179
     29 H2          1.1257    3.1700    0.0080 H         1 <0>         0.1187
     30 H3          3.2882    2.0492   -0.0187 H         1 <0>         0.1238
     31 H4          4.5939   -0.0572   -0.0418 H         1 <0>         0.1259
     32 H5          2.5248   -3.7993   -0.0425 H         1 <0>         0.1241
     33 H6          0.3734   -2.6650   -0.0168 H         1 <0>         0.1277
     34 H7         -0.9243   -0.5592    0.0082 H         1 <0>         0.1221
     35 H8          5.7379   -2.1655   -0.0627 H         1 <0>         0.4144
     36 H9          4.4352   -4.5080    0.8275 H         1 <0>         0.0918
     37 H10         4.4187   -4.4989   -0.9524 H         1 <0>         0.0917
     38 H11         5.9089   -6.5708   -0.0867 H         1 <0>         0.3754
     39 H12         7.4165   -8.3581   -0.1097 H         1 <0>         0.1053
     40 H13         9.0996  -10.1939   -0.1443 H         1 <0>         0.1185
     41 H14        10.3361   -5.4657    0.7620 H         1 <0>         0.3848
@<TRIPOS>BOND
     1    1   10 ar
     2    1    2 ar
     3    1   28 1
     4    2    3 ar
     5    2   29 1
     6    3    4 ar
     7    3   30 1
     8    4    9 ar
     9    4    5 ar
    10    5    6 ar
    11    5   31 1
    12    6    7 ar
    13    6   11 1
    14    7    8 ar
    15    7   32 1
    16    8    9 ar
    17    8   33 1
    18    9   10 ar
    19   10   34 1
    20   11   12 1
    21   11   35 1
    22   12   13 1
    23   12   36 1
    24   12   37 1
    25   13   14 2
    26   13   15 am
    27   15   16 1
    28   15   38 1
    29   16   17 2
    30   17   18 1
    31   17   39 1
    32   18   23 ar
    33   18   19 ar
    34   19   20 ar
    35   19   40 1
    36   20   21 ar
    37   20   27 1
    38   21   22 ar
    39   21   26 1
    40   22   23 ar
    41   22   25 1
    42   23   24 1
    43   24   41 1
@<TRIPOS>MOLECULE
ZINC21524911
   58    63     0     0     0
SMALL
USER_CHARGES
dimethyl-(5-methyl-2-furyl)-(m-tolyl)BLAHdione
@<TRIPOS>ATOM
      1 C1         -0.4091    0.6118    2.5515 C.3       1 <0>        -0.1180
      2 C2          0.4201    0.6351    1.2934 C.ar      1 <0>        -0.0873
      3 C3         -0.0105   -0.0490    0.1700 C.ar      1 <0>        -0.0993
      4 C4          0.7413   -0.0281   -0.9914 C.ar      1 <0>        -0.1133
      5 C5          1.9267    0.6760   -1.0370 C.ar      1 <0>        -0.0687
      6 C6          2.3677    1.3684    0.0931 C.ar      1 <0>        -0.0490
      7 C7          1.6034    1.3427    1.2624 C.ar      1 <0>        -0.0915
      8 C8          3.6345    2.1242    0.0520 C.2       1 <0>         0.2185
      9 C9          3.9429    3.1437   -0.8140 C.2       1 <0>        -0.2661
     10 C10         5.3247    3.5753   -0.4836 C.2       1 <0>         0.1285
     11 C11         5.7303    2.8114    0.5200 C.2       1 <0>        -0.0099
     12 N1          4.7064    1.9413    0.8689 N.pl3     1 <0>        -0.3628
     13 C12         4.8556    1.0300    1.9246 C.ar      1 <0>         0.0665
     14 C13         3.9435    0.0153    2.1415 C.ar      1 <0>        -0.1018
     15 C14         4.1368   -0.8700    3.1873 C.ar      1 <0>        -0.1353
     16 C15         5.2364   -0.7369    4.0157 C.ar      1 <0>        -0.0811
     17 C16         6.1447    0.2856    3.8141 C.ar      1 <0>        -0.1550
     18 C17         5.9559    1.1828    2.7744 C.ar      1 <0>         0.2006
     19 N2          6.8404    2.2512    2.5883 N.pl3     1 <0>        -0.7502
     20 C18         7.0640    2.7936    1.2350 C.3       1 <0>         0.3237
     21 H1          7.4885    3.8047    1.3214 H         1 <0>         0.1204
     22 C19         8.0372    1.9271    0.4778 C.2       1 <0>        -0.0483
     23 C20         8.0221    0.5829    0.4310 C.2       1 <0>        -0.1696
     24 C21         9.1057    0.1894   -0.3875 C.2       1 <0>        -0.2144
     25 C22         9.7181    1.3167   -0.7919 C.2       1 <0>        -0.0003
     26 O1          9.0631    2.3663   -0.2694 O.3       1 <0>        -0.1696
     27 C23        10.9302    1.3896   -1.6844 C.3       1 <0>        -0.0793
     28 N3          5.9021    4.6180   -1.2234 N.am      1 <0>        -0.5237
     29 C24         5.1526    5.1710   -2.2026 C.2       1 <0>         0.7104
     30 O2          5.6525    6.0763   -2.8420 O.2       1 <0>        -0.5515
     31 N4          3.9087    4.8066   -2.5279 N.am      1 <0>        -0.5606
     32 C25         3.2241    3.8147   -1.9018 C.2       1 <0>         0.6025
     33 O3          2.0920    3.5044   -2.2214 O.2       1 <0>        -0.4868
     34 C26         3.2453    5.5179   -3.6235 C.3       1 <0>         0.0756
     35 C27         7.2616    5.0881   -0.9458 C.3       1 <0>         0.0831
     36 H2         -1.3091    0.0014    2.3862 H         1 <0>         0.0692
     37 H3         -0.7053    1.6380    2.8145 H         1 <0>         0.0715
     38 H4          0.1818    0.1790    3.3721 H         1 <0>         0.0719
     39 H5         -0.9379   -0.6016    0.1999 H         1 <0>         0.1278
     40 H6          0.3990   -0.5639   -1.8644 H         1 <0>         0.1307
     41 H7          2.5121    0.6921   -1.9444 H         1 <0>         0.1253
     42 H8          1.9380    1.8764    2.1397 H         1 <0>         0.1240
     43 H9          3.0829   -0.0868    1.4970 H         1 <0>         0.1462
     44 H10         3.4273   -1.6664    3.3573 H         1 <0>         0.1323
     45 H11         5.3865   -1.4363    4.8249 H         1 <0>         0.1312
     46 H12         7.0004    0.3850    4.4655 H         1 <0>         0.1344
     47 H13         7.3685    2.6865    3.4495 H         1 <0>         0.4388
     48 H14         7.3178   -0.0704    0.9245 H         1 <0>         0.1401
     49 H15         9.3874   -0.8222   -0.6399 H         1 <0>         0.1482
     50 H16        11.2058    2.4426   -1.8431 H         1 <0>         0.0784
     51 H17        10.7013    0.9205   -2.6527 H         1 <0>         0.0878
     52 H18        11.7682    0.8589   -1.2088 H         1 <0>         0.0886
     53 H19         2.2357    5.1064   -3.7696 H         1 <0>         0.1017
     54 H20         3.8290    5.3941   -4.5476 H         1 <0>         0.0792
     55 H21         3.1731    6.5872   -3.3758 H         1 <0>         0.0794
     56 H22         7.5151    5.9057   -1.6367 H         1 <0>         0.1074
     57 H23         7.9714    4.2590   -1.0828 H         1 <0>         0.0782
     58 H24         7.3191    5.4526    0.0905 H         1 <0>         0.0716
@<TRIPOS>BOND
     1    1    2 1
     2    1   36 1
     3    1   37 1
     4    1   38 1
     5    2    7 ar
     6    2    3 ar
     7    3    4 ar
     8    3   39 1
     9    4    5 ar
    10    4   40 1
    11    5    6 ar
    12    5   41 1
    13    6    7 ar
    14    6    8 1
    15    7   42 1
    16    8   12 1
    17    8    9 2
    18    9   32 1
    19    9   10 1
    20   10   11 2
    21   10   28 1
    22   11   20 1
    23   11   12 1
    24   12   13 1
    25   13   18 ar
    26   13   14 ar
    27   14   15 ar
    28   14   43 1
    29   15   16 ar
    30   15   44 1
    31   16   17 ar
    32   16   45 1
    33   17   18 ar
    34   17   46 1
    35   18   19 1
    36   19   20 1
    37   19   47 1
    38   20   21 1
    39   20   22 1
    40   22   26 1
    41   22   23 2
    42   23   24 1
    43   23   48 1
    44   24   25 2
    45   24   49 1
    46   25   26 1
    47   25   27 1
    48   27   50 1
    49   27   51 1
    50   27   52 1
    51   28   29 am
    52   28   35 1
    53   29   30 2
    54   29   31 am
    55   31   32 am
    56   31   34 1
    57   32   33 2
    58   34   53 1
    59   34   54 1
    60   34   55 1
    61   35   56 1
    62   35   57 1
    63   35   58 1
@<TRIPOS>MOLECULE
ZINC21524914
   58    63     0     0     0
SMALL
USER_CHARGES
dimethyl-(5-methyl-2-furyl)-(m-tolyl)BLAHdione
@<TRIPOS>ATOM
      1 C1          7.0932   -3.6742   -1.3419 C.3       1 <0>        -0.1180
      2 C2          5.9025   -3.3024   -0.4963 C.ar      1 <0>        -0.0875
      3 C3          5.3394   -4.2391    0.3530 C.ar      1 <0>        -0.0991
      4 C4          4.2458   -3.9067    1.1327 C.ar      1 <0>        -0.1133
      5 C5          3.7092   -2.6375    1.0688 C.ar      1 <0>        -0.0687
      6 C6          4.2722   -1.6871    0.2140 C.ar      1 <0>        -0.0491
      7 C7          5.3726   -2.0317   -0.5751 C.ar      1 <0>        -0.0913
      8 C8          3.7038   -0.3273    0.1401 C.2       1 <0>         0.2181
      9 C9          2.4128   -0.0047   -0.1969 C.2       1 <0>        -0.2658
     10 C10         2.3115    1.4744   -0.1159 C.2       1 <0>         0.1285
     11 C11         3.5058    1.9162    0.2497 C.2       1 <0>        -0.0101
     12 N1          4.3638    0.8351    0.3937 N.pl3     1 <0>        -0.3628
     13 C12         5.7106    1.0156    0.7409 C.ar      1 <0>         0.0659
     14 C13         6.5212   -0.0499    1.0815 C.ar      1 <0>        -0.1020
     15 C14         7.8408    0.1754    1.4321 C.ar      1 <0>        -0.1358
     16 C15         8.3483    1.4621    1.4358 C.ar      1 <0>        -0.0807
     17 C16         7.5479    2.5310    1.0788 C.ar      1 <0>        -0.1556
     18 C17         6.2271    2.3153    0.7170 C.ar      1 <0>         0.2009
     19 N2          5.4216    3.3814    0.3016 N.pl3     1 <0>        -0.7497
     20 C18         3.9665    3.3337    0.5124 C.3       1 <0>         0.3243
     21 H1          3.4809    4.0447   -0.1722 H         1 <0>         0.1209
     22 C19         3.6438    3.7200    1.9328 C.2       1 <0>        -0.0484
     23 C20         4.2849    3.2832    3.0318 C.2       1 <0>        -0.1697
     24 C21         3.6597    3.8966    4.1416 C.2       1 <0>        -0.2144
     25 C22         2.6687    4.6651    3.6551 C.2       1 <0>        -0.0005
     26 O1          2.6638    4.5542    2.3167 O.3       1 <0>        -0.1698
     27 C23         1.7238    5.5072    4.4731 C.3       1 <0>        -0.0793
     28 N3          1.0840    2.0852   -0.4128 N.am      1 <0>        -0.5238
     29 C24         0.0579    1.2765   -0.7586 C.2       1 <0>         0.7104
     30 O2         -1.0040    1.8066   -1.0223 O.2       1 <0>        -0.5514
     31 N4          0.1133   -0.0563   -0.8404 N.am      1 <0>        -0.5606
     32 C25         1.2311   -0.7831   -0.5818 C.2       1 <0>         0.6024
     33 O3          1.2505   -1.9968   -0.6635 O.2       1 <0>        -0.4868
     34 C26        -1.1021   -0.7749   -1.2312 C.3       1 <0>         0.0756
     35 C27         0.9213    3.5398   -0.3511 C.3       1 <0>         0.0832
     36 H2          7.3710   -4.7200   -1.1443 H         1 <0>         0.0692
     37 H3          7.9393   -3.0167   -1.0931 H         1 <0>         0.0719
     38 H4          6.8384   -3.5572   -2.4056 H         1 <0>         0.0715
     39 H5          5.7554   -5.2343    0.4070 H         1 <0>         0.1279
     40 H6          3.8115   -4.6426    1.7931 H         1 <0>         0.1307
     41 H7          2.8560   -2.3793    1.6784 H         1 <0>         0.1253
     42 H8          5.8102   -1.3031   -1.2415 H         1 <0>         0.1241
     43 H9          6.1266   -1.0552    1.0739 H         1 <0>         0.1467
     44 H10         8.4755   -0.6551    1.7037 H         1 <0>         0.1323
     45 H11         9.3763    1.6326    1.7198 H         1 <0>         0.1311
     46 H12         7.9508    3.5330    1.0820 H         1 <0>         0.1344
     47 H13         5.8787    4.2565   -0.1835 H         1 <0>         0.4385
     48 H14         5.1187    2.5974    3.0606 H         1 <0>         0.1400
     49 H15         3.9246    3.7696    5.1809 H         1 <0>         0.1481
     50 H16         1.0208    6.0247    3.8038 H         1 <0>         0.0784
     51 H17         2.2976    6.2497    5.0471 H         1 <0>         0.0885
     52 H18         1.1633    4.8619    5.1655 H         1 <0>         0.0878
     53 H19        -0.8980   -1.8556   -1.2532 H         1 <0>         0.1018
     54 H20        -1.4201   -0.4414   -2.2300 H         1 <0>         0.0794
     55 H21        -1.9007   -0.5673   -0.5038 H         1 <0>         0.0792
     56 H22        -0.1120    3.8049   -0.6194 H         1 <0>         0.1074
     57 H23         1.6172    4.0168   -1.0569 H         1 <0>         0.0716
     58 H24         1.1365    3.8899    0.6693 H         1 <0>         0.0781
@<TRIPOS>BOND
     1    1    2 1
     2    1   36 1
     3    1   37 1
     4    1   38 1
     5    2    7 ar
     6    2    3 ar
     7    3    4 ar
     8    3   39 1
     9    4    5 ar
    10    4   40 1
    11    5    6 ar
    12    5   41 1
    13    6    7 ar
    14    6    8 1
    15    7   42 1
    16    8   12 1
    17    8    9 2
    18    9   32 1
    19    9   10 1
    20   10   11 2
    21   10   28 1
    22   11   20 1
    23   11   12 1
    24   12   13 1
    25   13   18 ar
    26   13   14 ar
    27   14   15 ar
    28   14   43 1
    29   15   16 ar
    30   15   44 1
    31   16   17 ar
    32   16   45 1
    33   17   18 ar
    34   17   46 1
    35   18   19 1
    36   19   20 1
    37   19   47 1
    38   20   21 1
    39   20   22 1
    40   22   26 1
    41   22   23 2
    42   23   24 1
    43   23   48 1
    44   24   25 2
    45   24   49 1
    46   25   26 1
    47   25   27 1
    48   27   50 1
    49   27   51 1
    50   27   52 1
    51   28   29 am
    52   28   35 1
    53   29   30 2
    54   29   31 am
    55   31   32 am
    56   31   34 1
    57   32   33 2
    58   34   53 1
    59   34   54 1
    60   34   55 1
    61   35   56 1
    62   35   57 1
    63   35   58 1
@<TRIPOS>MOLECULE
ZINC21524927
   58    63     0     0     0
SMALL
USER_CHARGES
dimethyl-(5-methyl-2-furyl)-(o-tolyl)BLAHdione
@<TRIPOS>ATOM
      1 C1          5.3201   -1.5569   -2.4221 C.3       1 <0>        -0.1209
      2 C2          5.6622   -2.1716   -1.0894 C.ar      1 <0>        -0.0494
      3 C3          6.4068   -3.3315   -1.0338 C.ar      1 <0>        -0.1194
      4 C4          6.7226   -3.8968    0.1890 C.ar      1 <0>        -0.0962
      5 C5          6.2942   -3.3043    1.3641 C.ar      1 <0>        -0.1220
      6 C6          5.5535   -2.1417    1.3238 C.ar      1 <0>        -0.0785
      7 C7          5.2264   -1.5681    0.0925 C.ar      1 <0>        -0.0490
      8 C8          4.4293   -0.3272    0.0411 C.2       1 <0>         0.2222
      9 C9          3.0607   -0.2442   -0.0237 C.2       1 <0>        -0.2657
     10 C10         2.7266    1.2019   -0.0700 C.2       1 <0>         0.1286
     11 C11         3.8769    1.8580   -0.0291 C.2       1 <0>        -0.0116
     12 N1          4.9171    0.9427    0.0505 N.pl3     1 <0>        -0.3616
     13 C12         6.2521    1.3634    0.1394 C.ar      1 <0>         0.0681
     14 C13         7.3018    0.4809   -0.0291 C.ar      1 <0>        -0.0977
     15 C14         8.6039    0.9477    0.0112 C.ar      1 <0>        -0.1350
     16 C15         8.8536    2.2920    0.2196 C.ar      1 <0>        -0.0814
     17 C16         7.8083    3.1784    0.4008 C.ar      1 <0>        -0.1539
     18 C17         6.5004    2.7199    0.3712 C.ar      1 <0>         0.1998
     19 N2          5.4329    3.6015    0.5750 N.pl3     1 <0>        -0.7505
     20 C18         4.1335    3.3489   -0.0664 C.3       1 <0>         0.3247
     21 H1          3.3526    3.9010    0.4770 H         1 <0>         0.1202
     22 C19         4.1700    3.8241   -1.4961 C.2       1 <0>        -0.0476
     23 C20         5.1674    3.6069   -2.3720 C.2       1 <0>        -0.1697
     24 C21         4.7869    4.2221   -3.5868 C.2       1 <0>        -0.2143
     25 C22         3.5835    4.7856   -3.3780 C.2       1 <0>        -0.0005
     26 O1          3.2147    4.5413   -2.1099 O.3       1 <0>        -0.1699
     27 C23         2.7847    5.5601   -4.3945 C.3       1 <0>        -0.0795
     28 N3          1.3782    1.5820   -0.1427 N.am      1 <0>        -0.5238
     29 C24         0.4569    0.5935   -0.1689 C.2       1 <0>         0.7104
     30 O2         -0.7113    0.9231   -0.2390 O.2       1 <0>        -0.5515
     31 N4          0.7219   -0.7158   -0.1295 N.am      1 <0>        -0.5608
     32 C25         1.9763   -1.2309   -0.0564 C.2       1 <0>         0.6019
     33 O3          2.1861   -2.4288   -0.0199 O.2       1 <0>        -0.4864
     34 C26        -0.4064   -1.6496   -0.1671 C.3       1 <0>         0.0754
     35 C27         0.9849    2.9925   -0.1881 C.3       1 <0>         0.0832
     36 H2          5.7472   -2.1702   -3.2292 H         1 <0>         0.0735
     37 H3          5.7366   -0.5401   -2.4746 H         1 <0>         0.0671
     38 H4          4.2269   -1.5117   -2.5352 H         1 <0>         0.0725
     39 H5          6.7445   -3.7992   -1.9468 H         1 <0>         0.1299
     40 H6          7.3059   -4.8050    0.2266 H         1 <0>         0.1283
     41 H7          6.5446   -3.7509    2.3150 H         1 <0>         0.1295
     42 H8          5.2237   -1.6780    2.2417 H         1 <0>         0.1244
     43 H9          7.1068   -0.5688   -0.1916 H         1 <0>         0.1415
     44 H10         9.4269    0.2609   -0.1208 H         1 <0>         0.1324
     45 H11         9.8718    2.6516    0.2412 H         1 <0>         0.1314
     46 H12         8.0103    4.2265    0.5648 H         1 <0>         0.1345
     47 H13         5.5671    4.4849    1.2165 H         1 <0>         0.4382
     48 H14         6.0822    3.0645   -2.1842 H         1 <0>         0.1398
     49 H15         5.3552    4.2395   -4.5051 H         1 <0>         0.1479
     50 H16         1.8428    5.8999   -3.9390 H         1 <0>         0.0783
     51 H17         2.5629    4.9136   -5.2564 H         1 <0>         0.0878
     52 H18         3.3653    6.4321   -4.7300 H         1 <0>         0.0883
     53 H19        -0.0292   -2.6822   -0.1276 H         1 <0>         0.1015
     54 H20        -0.9738   -1.5018   -1.0978 H         1 <0>         0.0793
     55 H21        -1.0633   -1.4659    0.6959 H         1 <0>         0.0795
     56 H22        -0.1113    3.0659   -0.2428 H         1 <0>         0.1072
     57 H23         1.4290    3.4686   -1.0747 H         1 <0>         0.0782
     58 H24         1.3417    3.5020    0.7192 H         1 <0>         0.0714
@<TRIPOS>BOND
     1    1    2 1
     2    1   36 1
     3    1   37 1
     4    1   38 1
     5    2    7 ar
     6    2    3 ar
     7    3    4 ar
     8    3   39 1
     9    4    5 ar
    10    4   40 1
    11    5    6 ar
    12    5   41 1
    13    6    7 ar
    14    6   42 1
    15    7    8 1
    16    8   12 1
    17    8    9 2
    18    9   32 1
    19    9   10 1
    20   10   11 2
    21   10   28 1
    22   11   20 1
    23   11   12 1
    24   12   13 1
    25   13   18 ar
    26   13   14 ar
    27   14   15 ar
    28   14   43 1
    29   15   16 ar
    30   15   44 1
    31   16   17 ar
    32   16   45 1
    33   17   18 ar
    34   17   46 1
    35   18   19 1
    36   19   20 1
    37   19   47 1
    38   20   21 1
    39   20   22 1
    40   22   26 1
    41   22   23 2
    42   23   24 1
    43   23   48 1
    44   24   25 2
    45   24   49 1
    46   25   26 1
    47   25   27 1
    48   27   50 1
    49   27   51 1
    50   27   52 1
    51   28   29 am
    52   28   35 1
    53   29   30 2
    54   29   31 am
    55   31   32 am
    56   31   34 1
    57   32   33 2
    58   34   53 1
    59   34   54 1
    60   34   55 1
    61   35   56 1
    62   35   57 1
    63   35   58 1
@<TRIPOS>MOLECULE
ZINC21524930
   58    63     0     0     0
SMALL
USER_CHARGES
dimethyl-(5-methyl-2-furyl)-(o-tolyl)BLAHdione
@<TRIPOS>ATOM
      1 C1         -2.2452    3.7440   -0.6081 C.3       1 <0>        -0.1198
      2 C2         -1.0194    2.9203   -0.3080 C.ar      1 <0>        -0.0449
      3 C3          0.2250    3.5153   -0.2859 C.ar      1 <0>        -0.1182
      4 C4          1.3514    2.7608   -0.0096 C.ar      1 <0>        -0.0962
      5 C5          1.2388    1.4052    0.2460 C.ar      1 <0>        -0.1231
      6 C6          0.0013    0.7969    0.2264 C.ar      1 <0>        -0.0838
      7 C7         -1.1399    1.5515   -0.0571 C.ar      1 <0>        -0.0490
      8 C8         -2.4669    0.9065   -0.0859 C.2       1 <0>         0.2229
      9 C9         -3.0716    0.3440   -1.1823 C.2       1 <0>        -0.2661
     10 C10        -4.3810   -0.1813   -0.7196 C.2       1 <0>         0.1290
     11 C11        -4.4636    0.0931    0.5739 C.2       1 <0>        -0.0125
     12 N1         -3.3151    0.7667    0.9676 N.pl3     1 <0>        -0.3612
     13 C12        -3.1423    1.1898    2.2935 C.ar      1 <0>         0.0671
     14 C13        -1.9170    1.6261    2.7603 C.ar      1 <0>        -0.0971
     15 C14        -1.7850    2.0152    4.0816 C.ar      1 <0>        -0.1355
     16 C15        -2.8747    1.9672    4.9321 C.ar      1 <0>        -0.0809
     17 C16        -4.1053    1.5396    4.4696 C.ar      1 <0>        -0.1547
     18 C17        -4.2504    1.1549    3.1457 C.ar      1 <0>         0.2008
     19 N2         -5.4942    0.7376    2.6587 N.pl3     1 <0>        -0.7501
     20 C18        -5.5664   -0.2346    1.5570 C.3       1 <0>         0.3248
     21 H1         -6.5565   -0.1661    1.0826 H         1 <0>         0.1205
     22 C19        -5.3726   -1.6292    2.0942 C.2       1 <0>        -0.0480
     23 C20        -4.4355   -2.0070    2.9822 C.2       1 <0>        -0.1699
     24 C21        -4.6153   -3.3918    3.2033 C.2       1 <0>        -0.2144
     25 C22        -5.6515   -3.7774    2.4372 C.2       1 <0>        -0.0005
     26 O1         -6.1100   -2.7045    1.7721 O.3       1 <0>        -0.1699
     27 C23        -6.2074   -5.1752    2.3453 C.3       1 <0>        -0.0794
     28 N3         -5.2194   -0.8179   -1.6469 N.am      1 <0>        -0.5238
     29 C24        -4.7717   -0.9201   -2.9179 C.2       1 <0>         0.7104
     30 O2         -5.4983   -1.4725   -3.7211 O.2       1 <0>        -0.5516
     31 N4         -3.5980   -0.4651   -3.3668 N.am      1 <0>        -0.5608
     32 C25        -2.6867    0.1717   -2.5868 C.2       1 <0>         0.6019
     33 O3         -1.6258    0.5757   -3.0244 O.2       1 <0>        -0.4864
     34 C26        -3.2757   -0.6652   -4.7818 C.3       1 <0>         0.0755
     35 C27        -6.5266   -1.3496   -1.2537 C.3       1 <0>         0.0832
     36 H2         -1.9514    4.7905   -0.7768 H         1 <0>         0.0727
     37 H3         -2.9401    3.6908    0.2430 H         1 <0>         0.0672
     38 H4         -2.7388    3.3519   -1.5095 H         1 <0>         0.0724
     39 H5          0.3202    4.5726   -0.4844 H         1 <0>         0.1295
     40 H6          2.3230    3.2319    0.0071 H         1 <0>         0.1283
     41 H7          2.1223    0.8224    0.4609 H         1 <0>         0.1298
     42 H8         -0.0849   -0.2611    0.4253 H         1 <0>         0.1248
     43 H9         -1.0659    1.6632    2.0966 H         1 <0>         0.1413
     44 H10        -0.8290    2.3574    4.4496 H         1 <0>         0.1323
     45 H11        -2.7635    2.2654    5.9641 H         1 <0>         0.1313
     46 H12        -4.9523    1.5050    5.1387 H         1 <0>         0.1345
     47 H13        -6.4187    1.1375    3.1008 H         1 <0>         0.4382
     48 H14        -3.6886   -1.3740    3.4382 H         1 <0>         0.1400
     49 H15        -4.0326   -4.0195    3.8613 H         1 <0>         0.1480
     50 H16        -7.0517   -5.1884    1.6404 H         1 <0>         0.0783
     51 H17        -6.5536   -5.4981    3.3382 H         1 <0>         0.0883
     52 H18        -5.4226   -5.8593    1.9902 H         1 <0>         0.0878
     53 H19        -2.2843   -0.2393   -4.9958 H         1 <0>         0.1015
     54 H20        -4.0320   -0.1648   -5.4044 H         1 <0>         0.0796
     55 H21        -3.2688   -1.7418   -5.0076 H         1 <0>         0.0791
     56 H22        -7.0155   -1.8044   -2.1279 H         1 <0>         0.1072
     57 H23        -7.1534   -0.5326   -0.8668 H         1 <0>         0.0716
     58 H24        -6.3924   -2.1110   -0.4712 H         1 <0>         0.0779
@<TRIPOS>BOND
     1    1    2 1
     2    1   36 1
     3    1   37 1
     4    1   38 1
     5    2    7 ar
     6    2    3 ar
     7    3    4 ar
     8    3   39 1
     9    4    5 ar
    10    4   40 1
    11    5    6 ar
    12    5   41 1
    13    6    7 ar
    14    6   42 1
    15    7    8 1
    16    8   12 1
    17    8    9 2
    18    9   32 1
    19    9   10 1
    20   10   11 2
    21   10   28 1
    22   11   20 1
    23   11   12 1
    24   12   13 1
    25   13   18 ar
    26   13   14 ar
    27   14   15 ar
    28   14   43 1
    29   15   16 ar
    30   15   44 1
    31   16   17 ar
    32   16   45 1
    33   17   18 ar
    34   17   46 1
    35   18   19 1
    36   19   20 1
    37   19   47 1
    38   20   21 1
    39   20   22 1
    40   22   26 1
    41   22   23 2
    42   23   24 1
    43   23   48 1
    44   24   25 2
    45   24   49 1
    46   25   26 1
    47   25   27 1
    48   27   50 1
    49   27   51 1
    50   27   52 1
    51   28   29 am
    52   28   35 1
    53   29   30 2
    54   29   31 am
    55   31   32 am
    56   31   34 1
    57   32   33 2
    58   34   53 1
    59   34   54 1
    60   34   55 1
    61   35   56 1
    62   35   57 1
    63   35   58 1
@<TRIPOS>MOLECULE
ZINC15859028
   61    66     0     0     0
SMALL
USER_CHARGES
(2-fluorophenyl)-tetramethyl-(5-methyl-2-furyl)BLAHdione
@<TRIPOS>ATOM
      1 C1          1.3715   -1.6925    5.2842 C.3       1 <0>        -0.0761
      2 C2          0.8888   -2.4708    4.0874 C.2       1 <0>        -0.0033
      3 C3          0.4409   -3.7391    4.1023 C.2       1 <0>        -0.2126
      4 C4          0.0942   -4.0667    2.7714 C.2       1 <0>        -0.1898
      5 C5          0.3510   -2.9790    2.0227 C.2       1 <0>        -0.0395
      6 O1          0.8375   -2.0174    2.8242 O.3       1 <0>        -0.1576
      7 C6          0.1355   -2.8616    0.5359 C.3       1 <0>         0.3202
      8 H1          0.0962   -3.8552    0.0894 H         1 <0>         0.1354
      9 C7         -1.1585   -2.1258    0.2625 C.2       1 <0>        -0.0149
     10 C8         -2.3956   -2.5948    0.2006 C.2       1 <0>         0.1282
     11 C9         -3.2786   -1.4298   -0.0618 C.2       1 <0>        -0.2582
     12 C10        -2.4607   -0.3301   -0.1455 C.2       1 <0>         0.2105
     13 N1         -1.1817   -0.7556    0.0398 N.pl3     1 <0>        -0.3565
     14 C11         0.0005   -0.0014    0.0194 C.ar      1 <0>         0.0689
     15 C12        -0.0192    1.3797    0.0298 C.ar      1 <0>        -0.0930
     16 C13         1.1719    2.0840    0.0274 C.ar      1 <0>        -0.0999
     17 C14         2.3783    1.4075    0.0130 C.ar      1 <0>        -0.0462
     18 C15         2.4055    0.0257   -0.0086 C.ar      1 <0>        -0.1478
     19 C16         1.2179   -0.6896   -0.0148 C.ar      1 <0>         0.2027
     20 N2          1.2313   -2.0877   -0.0675 N.pl3     1 <0>        -0.7451
     21 C17         3.6711    2.1819    0.0204 C.3       1 <0>        -0.1188
     22 C18         1.1547    3.5908    0.0400 C.3       1 <0>        -0.1120
     23 C19        -2.8903    1.0595   -0.3920 C.ar      1 <0>        -0.0790
     24 C20        -2.9754    1.5469   -1.6986 C.ar      1 <0>        -0.0547
     25 C21        -3.3824    2.8453   -1.9220 C.ar      1 <0>        -0.1262
     26 C22        -3.6970    3.6699   -0.8556 C.ar      1 <0>        -0.0711
     27 C23        -3.6108    3.1983    0.4416 C.ar      1 <0>        -0.1533
     28 C24        -3.2092    1.8978    0.6817 C.ar      1 <0>         0.1297
     29 F1         -3.1242    1.4378    1.9491 F         1 <0>        -0.1287
     30 C25        -4.7251   -1.6393   -0.1753 C.2       1 <0>         0.6027
     31 O2         -5.4994   -0.7254   -0.3887 O.2       1 <0>        -0.4850
     32 N3         -5.1416   -2.9232   -0.0254 N.am      1 <0>        -0.5603
     33 C26        -4.3182   -3.9493    0.2090 C.2       1 <0>         0.7115
     34 O3         -4.8200   -5.0509    0.3229 O.2       1 <0>        -0.5519
     35 N4         -2.9747   -3.8659    0.3307 N.am      1 <0>        -0.5232
     36 C27        -2.1570   -5.0538    0.5883 C.3       1 <0>         0.0878
     37 C28        -6.5767   -3.1993   -0.1272 C.3       1 <0>         0.0742
     38 H2          2.4438   -1.8443    5.4079 H         1 <0>         0.0827
     39 H3          1.1698   -0.6320    5.1334 H         1 <0>         0.0757
     40 H4          0.8502   -2.0382    6.1768 H         1 <0>         0.0902
     41 H5          0.3617   -4.3835    4.9653 H         1 <0>         0.1502
     42 H6         -0.3014   -5.0092    2.4228 H         1 <0>         0.1510
     43 H7         -0.9611    1.9081    0.0354 H         1 <0>         0.1349
     44 H8          3.3509   -0.4963   -0.0203 H         1 <0>         0.1342
     45 H9          1.9656   -2.5481   -0.5030 H         1 <0>         0.4138
     46 H10         3.9791    2.3846   -1.0053 H         1 <0>         0.0758
     47 H11         3.5273    3.1240    0.5495 H         1 <0>         0.0732
     48 H12         4.4420    1.5972    0.5224 H         1 <0>         0.0691
     49 H13         1.1577    3.9457    1.0706 H         1 <0>         0.0714
     50 H14         2.0369    3.9686   -0.4769 H         1 <0>         0.0724
     51 H15         0.2571    3.9482   -0.4647 H         1 <0>         0.0664
     52 H16        -2.7263    0.9069   -2.5321 H         1 <0>         0.1356
     53 H17        -3.4520    3.2213   -2.9320 H         1 <0>         0.1387
     54 H18        -4.0111    4.6871   -1.0376 H         1 <0>         0.1401
     55 H19        -3.8575    3.8475    1.2686 H         1 <0>         0.1438
     56 H20        -1.9780   -5.1464    1.6595 H         1 <0>         0.0743
     57 H21        -2.6804   -5.9400    0.2294 H         1 <0>         0.1013
     58 H22        -1.2041   -4.9589    0.0676 H         1 <0>         0.0761
     59 H23        -6.7524   -4.2658    0.0138 H         1 <0>         0.1061
     60 H24        -7.1100   -2.6386    0.6405 H         1 <0>         0.0777
     61 H25        -6.9356   -2.8990   -1.1117 H         1 <0>         0.0782
@<TRIPOS>BOND
     1    1    2 1
     2    1   38 1
     3    1   39 1
     4    1   40 1
     5    2    6 1
     6    2    3 2
     7    3    4 1
     8    3   41 1
     9    4    5 2
    10    4   42 1
    11    5    6 1
    12    5    7 1
    13    7    8 1
    14    7   20 1
    15    7    9 1
    16    9   13 1
    17    9   10 2
    18   10   35 1
    19   10   11 1
    20   11   12 2
    21   11   30 1
    22   12   13 1
    23   12   23 1
    24   13   14 1
    25   14   19 ar
    26   14   15 ar
    27   15   16 ar
    28   15   43 1
    29   16   17 ar
    30   16   22 1
    31   17   18 ar
    32   17   21 1
    33   18   19 ar
    34   18   44 1
    35   19   20 1
    36   20   45 1
    37   21   46 1
    38   21   47 1
    39   21   48 1
    40   22   49 1
    41   22   50 1
    42   22   51 1
    43   23   28 ar
    44   23   24 ar
    45   24   25 ar
    46   24   52 1
    47   25   26 ar
    48   25   53 1
    49   26   27 ar
    50   26   54 1
    51   27   28 ar
    52   27   55 1
    53   28   29 1
    54   30   31 2
    55   30   32 am
    56   32   33 am
    57   32   37 1
    58   33   34 2
    59   33   35 am
    60   35   36 1
    61   36   56 1
    62   36   57 1
    63   36   58 1
    64   37   59 1
    65   37   60 1
    66   37   61 1
@<TRIPOS>MOLECULE
ZINC15859029
   61    66     0     0     0
SMALL
USER_CHARGES
(2-fluorophenyl)-tetramethyl-(5-methyl-2-furyl)BLAHdione
@<TRIPOS>ATOM
      1 C1          3.0266    6.0344    4.1382 C.3       1 <0>        -0.0766
      2 C2          3.7059    5.0845    3.1857 C.2       1 <0>         0.0002
      3 C3          4.8089    4.3611    3.4492 C.2       1 <0>        -0.2139
      4 C4          5.0934    3.6096    2.2859 C.2       1 <0>        -0.1681
      5 C5          4.1520    3.9249    1.3783 C.2       1 <0>        -0.0485
      6 O1          3.3124    4.8163    1.9299 O.3       1 <0>        -0.1693
      7 C6          4.0526    3.3676   -0.0183 C.3       1 <0>         0.3224
      8 H1          3.3656    3.9729   -0.6098 H         1 <0>         0.1214
      9 C7          3.5599    1.9376    0.0346 C.2       1 <0>        -0.0083
     10 C8          2.3191    1.4774    0.0885 C.2       1 <0>         0.1291
     11 C9          2.4179   -0.0029    0.1571 C.2       1 <0>        -0.2569
     12 C10         3.7567   -0.3068    0.1382 C.2       1 <0>         0.2107
     13 N1          4.4417    0.8653    0.0487 N.pl3     1 <0>        -0.3580
     14 C11         5.8279    1.0614   -0.0362 C.ar      1 <0>         0.0692
     15 C12         6.7212    0.0294    0.1764 C.ar      1 <0>        -0.0959
     16 C13         8.0814    0.2710    0.0973 C.ar      1 <0>        -0.0982
     17 C14         8.5453    1.5397   -0.1999 C.ar      1 <0>        -0.0467
     18 C15         7.6568    2.5729   -0.4320 C.ar      1 <0>        -0.1487
     19 C16         6.2919    2.3398   -0.3635 C.ar      1 <0>         0.1951
     20 N2          5.3817    3.3636   -0.6487 N.pl3     1 <0>        -0.7371
     21 C17        10.0284    1.7971   -0.2717 C.3       1 <0>        -0.1209
     22 C18         9.0594   -0.8506    0.3350 C.3       1 <0>        -0.1142
     23 C19         4.3452   -1.6580    0.2040 C.ar      1 <0>        -0.0793
     24 C20         4.6637   -2.2257    1.4402 C.ar      1 <0>        -0.0594
     25 C21         5.2096   -3.4909    1.4945 C.ar      1 <0>        -0.1273
     26 C22         5.4520   -4.1956    0.3280 C.ar      1 <0>        -0.0706
     27 C23         5.1445   -3.6402   -0.9006 C.ar      1 <0>        -0.1521
     28 C24         4.5925   -2.3751   -0.9715 C.ar      1 <0>         0.1342
     29 F1          4.2923   -1.8330   -2.1720 F         1 <0>        -0.1287
     30 C25         1.1893   -0.7995    0.2288 C.2       1 <0>         0.6027
     31 O2          1.2051   -2.0146    0.2892 O.2       1 <0>        -0.4850
     32 N3          0.0323   -0.0884    0.2237 N.am      1 <0>        -0.5604
     33 C26        -0.0202    1.2455    0.1594 C.2       1 <0>         0.7114
     34 O3         -1.1219    1.7596    0.1561 O.2       1 <0>        -0.5526
     35 N4          1.0479    2.0709    0.0924 N.am      1 <0>        -0.5233
     36 C27         0.8849    3.5253    0.0264 C.3       1 <0>         0.0858
     37 C28        -1.2314   -0.8262    0.2932 C.3       1 <0>         0.0742
     38 H2          2.1579    6.4777    3.6514 H         1 <0>         0.0777
     39 H3          2.7069    5.4907    5.0272 H         1 <0>         0.0870
     40 H4          3.7236    6.8218    4.4249 H         1 <0>         0.0876
     41 H5          5.3675    4.3526    4.3735 H         1 <0>         0.1487
     42 H6          5.9111    2.9170    2.1510 H         1 <0>         0.1409
     43 H7          6.3593   -0.9624    0.4039 H         1 <0>         0.1393
     44 H8          8.0254    3.5606   -0.6664 H         1 <0>         0.1358
     45 H9          5.6277    4.0721   -1.2638 H         1 <0>         0.4158
     46 H10        10.3777    1.6276   -1.2902 H         1 <0>         0.0764
     47 H11        10.2325    2.8285    0.0155 H         1 <0>         0.0691
     48 H12        10.5477    1.1212    0.4077 H         1 <0>         0.0755
     49 H13         9.2774   -1.3489   -0.6096 H         1 <0>         0.0726
     50 H14         9.9810   -0.4465    0.7538 H         1 <0>         0.0744
     51 H15         8.6272   -1.5678    1.0328 H         1 <0>         0.0664
     52 H16         4.4797   -1.6762    2.3515 H         1 <0>         0.1361
     53 H17         5.4525   -3.9317    2.4501 H         1 <0>         0.1389
     54 H18         5.8832   -5.1846    0.3777 H         1 <0>         0.1401
     55 H19         5.3365   -4.1960   -1.8065 H         1 <0>         0.1435
     56 H20        -0.1711    3.7773    0.1229 H         1 <0>         0.1063
     57 H21         1.4452    3.9908    0.8373 H         1 <0>         0.0786
     58 H22         1.2595    3.8898   -0.9301 H         1 <0>         0.0708
     59 H23        -2.0640   -0.1227    0.2804 H         1 <0>         0.1061
     60 H24        -1.3086   -1.4961   -0.5632 H         1 <0>         0.0780
     61 H25        -1.2620   -1.4086    1.2140 H         1 <0>         0.0779
@<TRIPOS>BOND
     1    1    2 1
     2    1   38 1
     3    1   39 1
     4    1   40 1
     5    2    6 1
     6    2    3 2
     7    3    4 1
     8    3   41 1
     9    4    5 2
    10    4   42 1
    11    5    6 1
    12    5    7 1
    13    7    8 1
    14    7   20 1
    15    7    9 1
    16    9   13 1
    17    9   10 2
    18   10   35 1
    19   10   11 1
    20   11   12 2
    21   11   30 1
    22   12   13 1
    23   12   23 1
    24   13   14 1
    25   14   19 ar
    26   14   15 ar
    27   15   16 ar
    28   15   43 1
    29   16   17 ar
    30   16   22 1
    31   17   18 ar
    32   17   21 1
    33   18   19 ar
    34   18   44 1
    35   19   20 1
    36   20   45 1
    37   21   46 1
    38   21   47 1
    39   21   48 1
    40   22   49 1
    41   22   50 1
    42   22   51 1
    43   23   28 ar
    44   23   24 ar
    45   24   25 ar
    46   24   52 1
    47   25   26 ar
    48   25   53 1
    49   26   27 ar
    50   26   54 1
    51   27   28 ar
    52   27   55 1
    53   28   29 1
    54   30   31 2
    55   30   32 am
    56   32   33 am
    57   32   37 1
    58   33   34 2
    59   33   35 am
    60   35   36 1
    61   36   56 1
    62   36   57 1
    63   36   58 1
    64   37   59 1
    65   37   60 1
    66   37   61 1
@<TRIPOS>MOLECULE
ZINC21524885
   55    60     0     0     0
SMALL
USER_CHARGES
(2,3-difluorophenyl)-dimethyl-phenyl-BLAHdione
@<TRIPOS>ATOM
      1 C1          2.9455   -2.2005    0.0310 C.3       1 <0>         0.0926
      2 N1          1.5890   -1.6533    0.1135 N.am      1 <0>        -0.5234
      3 C2          1.3505   -0.2745    0.0140 C.2       1 <0>         0.1263
      4 C3         -0.0471    0.2181    0.1063 C.2       1 <0>        -0.2658
      5 C4          0.0108    1.5837   -0.0209 C.2       1 <0>         0.2173
      6 N2          1.3190    1.9277   -0.1615 N.pl3     1 <0>        -0.3637
      7 C5          2.1178    0.7922   -0.1553 C.2       1 <0>        -0.0164
      8 C6          3.6174    0.8763   -0.3402 C.3       1 <0>         0.2793
      9 H1          4.1369    0.1191    0.2655 H         1 <0>         0.1215
     10 N3          4.0515    2.2148    0.0891 N.pl3     1 <0>        -0.7549
     11 C7          3.2657    3.3346   -0.2060 C.ar      1 <0>         0.2054
     12 C8          1.8766    3.2062   -0.3076 C.ar      1 <0>         0.0624
     13 C9          1.0900    4.3158   -0.5492 C.ar      1 <0>        -0.0999
     14 C10         1.6829    5.5569   -0.7049 C.ar      1 <0>        -0.1373
     15 C11         3.0570    5.6858   -0.6203 C.ar      1 <0>        -0.0788
     16 C12         3.8498    4.5803   -0.3720 C.ar      1 <0>        -0.1566
     17 C13         3.9646    0.6689   -1.7919 C.ar      1 <0>        -0.1203
     18 C14         2.9836    0.7795   -2.7599 C.ar      1 <0>        -0.0770
     19 C15         3.3015    0.5953   -4.0923 C.ar      1 <0>        -0.0962
     20 C16         4.5989    0.2888   -4.4590 C.ar      1 <0>        -0.1164
     21 C17         5.5818    0.1718   -3.4921 C.ar      1 <0>         0.0694
     22 C18         5.2639    0.3623   -2.1556 C.ar      1 <0>         0.0861
     23 F1          6.2218    0.2482   -1.2098 F         1 <0>        -0.1240
     24 F2          6.8499   -0.1272   -3.8496 F         1 <0>        -0.1247
     25 C19        -1.1383    2.5096   -0.0131 C.ar      1 <0>        -0.0548
     26 C20        -1.2065    3.5354    0.9328 C.ar      1 <0>        -0.0896
     27 C21        -2.2809    4.4004    0.9308 C.ar      1 <0>        -0.1222
     28 C22        -3.2947    4.2475    0.0015 C.ar      1 <0>        -0.0978
     29 C23        -3.2365    3.2302   -0.9348 C.ar      1 <0>        -0.1179
     30 C24        -2.1657    2.3611   -0.9480 C.ar      1 <0>        -0.0630
     31 C25        -1.1354   -0.7466    0.2947 C.2       1 <0>         0.6015
     32 O1         -2.3004   -0.4051    0.3742 O.2       1 <0>        -0.4840
     33 N4         -0.7536   -2.0476    0.3738 N.am      1 <0>        -0.5604
     34 C26         0.5160   -2.4561    0.2886 C.2       1 <0>         0.7098
     35 O2          0.7232   -3.6510    0.3763 O.2       1 <0>        -0.5502
     36 C27        -1.7937   -3.0616    0.5641 C.3       1 <0>         0.0705
     37 H2          3.6639   -1.3798   -0.1114 H         1 <0>         0.0823
     38 H3          3.0094   -2.8954   -0.8193 H         1 <0>         0.0808
     39 H4          3.1816   -2.7371    0.9617 H         1 <0>         0.0818
     40 H5          4.9944    2.3360    0.6425 H         1 <0>         0.4364
     41 H6          0.0168    4.2154   -0.6166 H         1 <0>         0.1455
     42 H7          1.0708    6.4267   -0.8926 H         1 <0>         0.1321
     43 H8          3.5139    6.6558   -0.7493 H         1 <0>         0.1307
     44 H9          4.9225    4.6877   -0.3072 H         1 <0>         0.1333
     45 H10         1.9687    1.0144   -2.4750 H         1 <0>         0.1338
     46 H11         2.5347    0.6861   -4.8474 H         1 <0>         0.1432
     47 H12         4.8452    0.1410   -5.5001 H         1 <0>         0.1497
     48 H13        -0.4182    3.6530    1.6616 H         1 <0>         0.1242
     49 H14        -2.3330    5.1963    1.6589 H         1 <0>         0.1300
     50 H15        -4.1356    4.9252    0.0072 H         1 <0>         0.1282
     51 H16        -4.0313    3.1168   -1.6572 H         1 <0>         0.1305
     52 H17        -2.1217    1.5674   -1.6791 H         1 <0>         0.1259
     53 H18        -1.3304   -4.0583    0.6083 H         1 <0>         0.1070
     54 H19        -2.5015   -3.0232   -0.2771 H         1 <0>         0.0790
     55 H20        -2.3302   -2.8646    1.5040 H         1 <0>         0.0787
@<TRIPOS>BOND
     1    1    2 1
     2    1   37 1
     3    1   38 1
     4    1   39 1
     5    2   34 am
     6    2    3 1
     7    3    7 2
     8    3    4 1
     9    4    5 2
    10    4   31 1
    11    5    6 1
    12    5   25 1
    13    6   12 1
    14    6    7 1
    15    7    8 1
    16    8    9 1
    17    8   10 1
    18    8   17 1
    19   10   11 1
    20   10   40 1
    21   11   16 ar
    22   11   12 ar
    23   12   13 ar
    24   13   14 ar
    25   13   41 1
    26   14   15 ar
    27   14   42 1
    28   15   16 ar
    29   15   43 1
    30   16   44 1
    31   17   22 ar
    32   17   18 ar
    33   18   19 ar
    34   18   45 1
    35   19   20 ar
    36   19   46 1
    37   20   21 ar
    38   20   47 1
    39   21   22 ar
    40   21   24 1
    41   22   23 1
    42   25   30 ar
    43   25   26 ar
    44   26   27 ar
    45   26   48 1
    46   27   28 ar
    47   27   49 1
    48   28   29 ar
    49   28   50 1
    50   29   30 ar
    51   29   51 1
    52   30   52 1
    53   31   32 2
    54   31   33 am
    55   33   34 am
    56   33   36 1
    57   34   35 2
    58   36   53 1
    59   36   54 1
    60   36   55 1
@<TRIPOS>MOLECULE
ZINC21524888
   55    60     0     0     0
SMALL
USER_CHARGES
(2,3-difluorophenyl)-dimethyl-phenyl-BLAHdione
@<TRIPOS>ATOM
      1 C1          2.3379   -3.5261   -0.4612 C.3       1 <0>         0.0925
      2 N1          2.9606   -3.3693   -1.7780 N.am      1 <0>        -0.5234
      3 C2          3.6980   -2.2216   -2.1050 C.2       1 <0>         0.1261
      4 C3          4.3043   -2.1218   -3.4567 C.2       1 <0>        -0.2658
      5 C4          4.9605   -0.9170   -3.5028 C.2       1 <0>         0.2172
      6 N2          4.7950   -0.3135   -2.2950 N.pl3     1 <0>        -0.3638
      7 C5          4.0133   -1.1051   -1.4653 C.2       1 <0>        -0.0161
      8 C6          3.6366   -0.6582   -0.0694 C.3       1 <0>         0.2797
      9 H1          3.5975   -1.5105    0.6248 H         1 <0>         0.1215
     10 N3          4.6605    0.2906    0.3942 N.pl3     1 <0>        -0.7548
     11 C7          5.2125    1.2202   -0.4942 C.ar      1 <0>         0.2057
     12 C8          5.3055    0.9167   -1.8564 C.ar      1 <0>         0.0618
     13 C9          5.8740    1.8189   -2.7345 C.ar      1 <0>        -0.0992
     14 C10         6.3380    3.0354   -2.2644 C.ar      1 <0>        -0.1376
     15 C11         6.2344    3.3457   -0.9209 C.ar      1 <0>        -0.0786
     16 C12         5.6744    2.4436   -0.0352 C.ar      1 <0>        -0.1568
     17 C13         2.2901    0.0179   -0.0966 C.ar      1 <0>        -0.1205
     18 C14         1.7422    0.4190   -1.3010 C.ar      1 <0>        -0.0772
     19 C15         0.5071    1.0388   -1.3277 C.ar      1 <0>        -0.0963
     20 C16        -0.1830    1.2591   -0.1502 C.ar      1 <0>        -0.1164
     21 C17         0.3626    0.8589    1.0568 C.ar      1 <0>         0.0692
     22 C18         1.6019    0.2369    1.0836 C.ar      1 <0>         0.0866
     23 F1          2.1364   -0.1551    2.2608 F         1 <0>        -0.1240
     24 F2         -0.3114    1.0735    2.2079 F         1 <0>        -0.1248
     25 C19         5.7093   -0.3751   -4.6533 C.ar      1 <0>        -0.0550
     26 C20         5.0727   -0.1974   -5.8841 C.ar      1 <0>        -0.0626
     27 C21         5.7775    0.3141   -6.9537 C.ar      1 <0>        -0.1181
     28 C22         7.1147    0.6409   -6.8127 C.ar      1 <0>        -0.0977
     29 C23         7.7531    0.4626   -5.5980 C.ar      1 <0>        -0.1223
     30 C24         7.0595   -0.0430   -4.5183 C.ar      1 <0>        -0.0895
     31 C25         4.1156   -3.2211   -4.4088 C.2       1 <0>         0.6015
     32 O1          4.5864   -3.1976   -5.5304 O.2       1 <0>        -0.4840
     33 N4          3.3792   -4.2671   -3.9527 N.am      1 <0>        -0.5604
     34 C26         2.8479   -4.3241   -2.7278 C.2       1 <0>         0.7098
     35 O2          2.2096   -5.3192   -2.4437 O.2       1 <0>        -0.5502
     36 C27         3.1547   -5.3987   -4.8557 C.3       1 <0>         0.0705
     37 H2          2.5522   -2.6395    0.1536 H         1 <0>         0.0825
     38 H3          2.7441   -4.4214    0.0322 H         1 <0>         0.0818
     39 H4          1.2499   -3.6352   -0.5808 H         1 <0>         0.0808
     40 H5          4.9945    0.2708    1.4421 H         1 <0>         0.4361
     41 H6          5.9558    1.5764   -3.7837 H         1 <0>         0.1452
     42 H7          6.7822    3.7434   -2.9483 H         1 <0>         0.1322
     43 H8          6.5928    4.2989   -0.5612 H         1 <0>         0.1306
     44 H9          5.5971    2.6920    1.0130 H         1 <0>         0.1332
     45 H10         2.2798    0.2477   -2.2218 H         1 <0>         0.1342
     46 H11         0.0807    1.3514   -2.2694 H         1 <0>         0.1431
     47 H12        -1.1500    1.7395   -0.1728 H         1 <0>         0.1497
     48 H13         4.0302   -0.4562   -5.9967 H         1 <0>         0.1260
     49 H14         5.2856    0.4559   -7.9046 H         1 <0>         0.1304
     50 H15         7.6626    1.0375   -7.6547 H         1 <0>         0.1282
     51 H16         8.7970    0.7195   -5.4952 H         1 <0>         0.1300
     52 H17         7.5589   -0.1814   -3.5708 H         1 <0>         0.1241
     53 H18         2.5459   -6.1597   -4.3456 H         1 <0>         0.1070
     54 H19         4.1223   -5.8357   -5.1435 H         1 <0>         0.0787
     55 H20         2.6274   -5.0503   -5.7560 H         1 <0>         0.0790
@<TRIPOS>BOND
     1    1    2 1
     2    1   37 1
     3    1   38 1
     4    1   39 1
     5    2   34 am
     6    2    3 1
     7    3    7 2
     8    3    4 1
     9    4    5 2
    10    4   31 1
    11    5    6 1
    12    5   25 1
    13    6   12 1
    14    6    7 1
    15    7    8 1
    16    8    9 1
    17    8   10 1
    18    8   17 1
    19   10   11 1
    20   10   40 1
    21   11   16 ar
    22   11   12 ar
    23   12   13 ar
    24   13   14 ar
    25   13   41 1
    26   14   15 ar
    27   14   42 1
    28   15   16 ar
    29   15   43 1
    30   16   44 1
    31   17   22 ar
    32   17   18 ar
    33   18   19 ar
    34   18   45 1
    35   19   20 ar
    36   19   46 1
    37   20   21 ar
    38   20   47 1
    39   21   22 ar
    40   21   24 1
    41   22   23 1
    42   25   30 ar
    43   25   26 ar
    44   26   27 ar
    45   26   48 1
    46   27   28 ar
    47   27   49 1
    48   28   29 ar
    49   28   50 1
    50   29   30 ar
    51   29   51 1
    52   30   52 1
    53   31   32 2
    54   31   33 am
    55   33   34 am
    56   33   36 1
    57   34   35 2
    58   36   53 1
    59   36   54 1
    60   36   55 1
@<TRIPOS>MOLECULE
ZINC20898557
   62    67     0     0     0
SMALL
USER_CHARGES
(4-hydroxyphenyl)-tetramethyl-phenyl-BLAHdione
@<TRIPOS>ATOM
      1 C1          3.6695   -0.7438   -0.3965 C.3       1 <0>        -0.1182
      2 C2          2.3661    0.0037   -0.2808 C.ar      1 <0>        -0.0454
      3 C3          2.3674    1.3862   -0.2497 C.ar      1 <0>        -0.1589
      4 C4          1.1702    2.0761   -0.1431 C.ar      1 <0>         0.2044
      5 C5         -0.0326    1.3632   -0.0881 C.ar      1 <0>         0.0586
      6 C6         -0.0256   -0.0175   -0.1105 C.ar      1 <0>        -0.0963
      7 C7          1.1765   -0.6971   -0.2067 C.ar      1 <0>        -0.1060
      8 C8          1.1886   -2.2039   -0.2314 C.3       1 <0>        -0.1103
      9 N1         -1.2279    2.0933   -0.0165 N.pl3     1 <0>        -0.3619
     10 C9         -2.4810    1.6386    0.2602 C.2       1 <0>         0.2120
     11 C10        -3.3231    2.7227    0.2625 C.2       1 <0>        -0.2664
     12 C11        -2.4856    3.9093   -0.0457 C.2       1 <0>         0.1180
     13 C12        -1.2480    3.4665   -0.2123 C.2       1 <0>        -0.0028
     14 C13         0.0076    4.2353   -0.5629 C.3       1 <0>         0.2840
     15 H1          0.0071    5.2327   -0.0990 H         1 <0>         0.1119
     16 N2          1.1603    3.4729   -0.0592 N.pl3     1 <0>        -0.7575
     17 C14         0.1112    4.3874   -2.0586 C.ar      1 <0>        -0.1506
     18 C15         0.5583    3.3310   -2.8305 C.ar      1 <0>        -0.0517
     19 C16         0.6489    3.4660   -4.2023 C.ar      1 <0>        -0.1608
     20 C17         0.3019    4.6668   -4.8043 C.ar      1 <0>         0.1646
     21 C18        -0.1410    5.7272   -4.0271 C.ar      1 <0>        -0.2123
     22 C19        -0.2356    5.5851   -2.6562 C.ar      1 <0>        -0.0757
     23 O1          0.3962    4.8043   -6.1530 O.3       1 <0>        -0.5094
     24 N3         -3.0958    5.1713   -0.1010 N.am      1 <0>        -0.5222
     25 C20        -4.4261    5.2263    0.1316 C.2       1 <0>         0.7103
     26 O2         -4.9545    6.3202    0.0846 O.2       1 <0>        -0.5539
     27 N4         -5.2099    4.1797    0.4080 N.am      1 <0>        -0.5607
     28 C21        -4.7600    2.9012    0.4950 C.2       1 <0>         0.6020
     29 O3         -5.4983    1.9681    0.7488 O.2       1 <0>        -0.4885
     30 C22        -6.6370    4.4257    0.6295 C.3       1 <0>         0.0758
     31 C23        -2.3227    6.3800   -0.3971 C.3       1 <0>         0.0688
     32 C24        -2.8650    0.2353    0.5071 C.ar      1 <0>        -0.0519
     33 C25        -3.8288   -0.3802   -0.2953 C.ar      1 <0>        -0.0631
     34 C26        -4.1786   -1.6939   -0.0623 C.ar      1 <0>        -0.1183
     35 C27        -3.5856   -2.3985    0.9705 C.ar      1 <0>        -0.0990
     36 C28        -2.6343   -1.7935    1.7729 C.ar      1 <0>        -0.1227
     37 C29        -2.2705   -0.4823    1.5480 C.ar      1 <0>        -0.0897
     38 H2          4.5012   -0.0255   -0.4431 H         1 <0>         0.0666
     39 H3          3.6615   -1.3554   -1.3108 H         1 <0>         0.0742
     40 H4          3.7971   -1.3962    0.4799 H         1 <0>         0.0744
     41 H5          3.3000    1.9275   -0.3089 H         1 <0>         0.1337
     42 H6         -0.9547   -0.5651   -0.0536 H         1 <0>         0.1459
     43 H7          0.1571   -2.5800   -0.1635 H         1 <0>         0.0649
     44 H8          1.7729   -2.5799    0.6214 H         1 <0>         0.0709
     45 H9          1.6446   -2.5516   -1.1701 H         1 <0>         0.0705
     46 H10         2.0172    4.0007    0.3847 H         1 <0>         0.4334
     47 H11         0.8332    2.3980   -2.3609 H         1 <0>         0.1251
     48 H12         0.9943    2.6392   -4.8052 H         1 <0>         0.1277
     49 H13        -0.4120    6.6629   -4.4934 H         1 <0>         0.1298
     50 H14        -0.5803    6.4102   -2.0507 H         1 <0>         0.1332
     51 H15         0.1208    5.7568   -6.6293 H         1 <0>         0.4352
     52 H16        -7.1442    3.4735    0.8444 H         1 <0>         0.1014
     53 H17        -7.0751    4.8793   -0.2718 H         1 <0>         0.0788
     54 H18        -6.7632    5.1090    1.4823 H         1 <0>         0.0789
     55 H19        -2.9913    7.2535   -0.3913 H         1 <0>         0.1070
     56 H20        -1.8552    6.2826   -1.3881 H         1 <0>         0.0843
     57 H21        -1.5411    6.5114    0.3657 H         1 <0>         0.0723
     58 H22        -4.2960    0.1701   -1.0986 H         1 <0>         0.1252
     59 H23        -4.9204   -2.1723   -0.6846 H         1 <0>         0.1299
     60 H24        -3.8663   -3.4256    1.1510 H         1 <0>         0.1277
     61 H25        -2.1758   -2.3493    2.5775 H         1 <0>         0.1294
     62 H26        -1.5282   -0.0112    2.1752 H         1 <0>         0.1235
@<TRIPOS>BOND
     1    1    2 1
     2    1   38 1
     3    1   39 1
     4    1   40 1
     5    2    7 ar
     6    2    3 ar
     7    3    4 ar
     8    3   41 1
     9    4   16 1
    10    4    5 ar
    11    5    6 ar
    12    5    9 1
    13    6    7 ar
    14    6   42 1
    15    7    8 1
    16    8   43 1
    17    8   44 1
    18    8   45 1
    19    9   13 1
    20    9   10 1
    21   10   11 2
    22   10   32 1
    23   11   28 1
    24   11   12 1
    25   12   13 2
    26   12   24 1
    27   13   14 1
    28   14   15 1
    29   14   16 1
    30   14   17 1
    31   16   46 1
    32   17   22 ar
    33   17   18 ar
    34   18   19 ar
    35   18   47 1
    36   19   20 ar
    37   19   48 1
    38   20   21 ar
    39   20   23 1
    40   21   22 ar
    41   21   49 1
    42   22   50 1
    43   23   51 1
    44   24   25 am
    45   24   31 1
    46   25   26 2
    47   25   27 am
    48   27   28 am
    49   27   30 1
    50   28   29 2
    51   30   52 1
    52   30   53 1
    53   30   54 1
    54   31   55 1
    55   31   56 1
    56   31   57 1
    57   32   37 ar
    58   32   33 ar
    59   33   34 ar
    60   33   58 1
    61   34   35 ar
    62   34   59 1
    63   35   36 ar
    64   35   60 1
    65   36   37 ar
    66   36   61 1
    67   37   62 1
@<TRIPOS>MOLECULE
ZINC20898558
   62    67     0     0     0
SMALL
USER_CHARGES
(4-hydroxyphenyl)-tetramethyl-phenyl-BLAHdione
@<TRIPOS>ATOM
      1 C1         -3.0680   -6.7845    0.5342 C.3       1 <0>        -0.1182
      2 C2         -2.3098   -5.5050    0.2911 C.ar      1 <0>        -0.0449
      3 C3         -0.9399   -5.5425    0.1070 C.ar      1 <0>        -0.1579
      4 C4         -0.2398   -4.3670   -0.1144 C.ar      1 <0>         0.2066
      5 C5         -0.9268   -3.1482   -0.1241 C.ar      1 <0>         0.0562
      6 C6         -2.2974   -3.1200    0.0431 C.ar      1 <0>        -0.0972
      7 C7         -2.9883   -4.3007    0.2539 C.ar      1 <0>        -0.1068
      8 C8         -4.4830   -4.2736    0.4439 C.3       1 <0>        -0.1102
      9 N1         -0.1848   -1.9752   -0.3252 N.pl3     1 <0>        -0.3623
     10 C9         -0.6406   -0.7194   -0.5831 C.2       1 <0>         0.2123
     11 C10         0.4541    0.0929   -0.7443 C.2       1 <0>        -0.2666
     12 C11         1.6499   -0.7648   -0.5466 C.2       1 <0>         0.1192
     13 C12         1.2025   -1.9853   -0.2912 C.2       1 <0>        -0.0043
     14 C13         1.9781   -3.2477    0.0171 C.3       1 <0>         0.2840
     15 H1          2.9172   -3.2887   -0.5543 H         1 <0>         0.1113
     16 N2          1.1380   -4.3961   -0.3565 N.pl3     1 <0>        -0.7565
     17 C14         2.2949   -3.3050    1.4893 C.ar      1 <0>        -0.1512
     18 C15         1.2697   -3.3934    2.4129 C.ar      1 <0>        -0.0490
     19 C16         1.5577   -3.4518    3.7628 C.ar      1 <0>        -0.1613
     20 C17         2.8763   -3.4098    4.1919 C.ar      1 <0>         0.1659
     21 C18         3.9028   -3.3153    3.2635 C.ar      1 <0>        -0.2136
     22 C19         3.6099   -3.2634    1.9145 C.ar      1 <0>        -0.0668
     23 O1          3.1618   -3.4606    5.5196 O.3       1 <0>        -0.5093
     24 N3          2.9228   -0.1854   -0.6555 N.am      1 <0>        -0.5226
     25 C20         2.9797    1.1352   -0.9371 C.2       1 <0>         0.7103
     26 O2          4.0831    1.6369   -1.0327 O.2       1 <0>        -0.5539
     27 N4          1.9256    1.9364   -1.1189 N.am      1 <0>        -0.5607
     28 C21         0.6362    1.5167   -1.0443 C.2       1 <0>         0.6019
     29 O3         -0.3035    2.2694   -1.2194 O.2       1 <0>        -0.4886
     30 C22         2.1755    3.3489   -1.4164 C.3       1 <0>         0.0758
     31 C23         4.1404   -0.9790   -0.4711 C.3       1 <0>         0.0800
     32 C24        -2.0544   -0.3060   -0.6731 C.ar      1 <0>        -0.0516
     33 C25        -2.9028   -0.9055   -1.6072 C.ar      1 <0>        -0.0897
     34 C26        -4.2241   -0.5172   -1.6827 C.ar      1 <0>        -0.1228
     35 C27        -4.7075    0.4706   -0.8428 C.ar      1 <0>        -0.0990
     36 C28        -3.8716    1.0725    0.0813 C.ar      1 <0>        -0.1180
     37 C29        -2.5493    0.6908    0.1713 C.ar      1 <0>        -0.0636
     38 H2         -2.3673   -7.6324    0.5297 H         1 <0>         0.0664
     39 H3         -3.8168   -6.9234   -0.2595 H         1 <0>         0.0743
     40 H4         -3.5733   -6.7315    1.5098 H         1 <0>         0.0741
     41 H5         -0.4162   -6.4866    0.1350 H         1 <0>         0.1329
     42 H6         -2.8282   -2.1801    0.0098 H         1 <0>         0.1465
     43 H7         -4.8416   -3.2355    0.3826 H         1 <0>         0.0648
     44 H8         -4.7349   -4.6910    1.4300 H         1 <0>         0.0704
     45 H9         -4.9635   -4.8745   -0.3422 H         1 <0>         0.0707
     46 H10         1.5928   -5.2802   -0.8273 H         1 <0>         0.4326
     47 H11         0.2431   -3.4210    2.0785 H         1 <0>         0.1210
     48 H12         0.7568   -3.5257    4.4835 H         1 <0>         0.1275
     49 H13         4.9301   -3.2821    3.5952 H         1 <0>         0.1298
     50 H14         4.4087   -3.1899    1.1914 H         1 <0>         0.1271
     51 H15         4.2076   -3.4272    5.8590 H         1 <0>         0.4353
     52 H16         1.2162    3.8732   -1.5383 H         1 <0>         0.1014
     53 H17         2.7586    3.4303   -2.3456 H         1 <0>         0.0789
     54 H18         2.7394    3.8037   -0.5887 H         1 <0>         0.0788
     55 H19         5.0217   -0.3333   -0.5989 H         1 <0>         0.1065
     56 H20         4.1673   -1.7878   -1.2162 H         1 <0>         0.0716
     57 H21         4.1464   -1.4117    0.5402 H         1 <0>         0.0768
     58 H22        -2.5259   -1.6739   -2.2659 H         1 <0>         0.1236
     59 H23        -4.8821   -0.9824   -2.4018 H         1 <0>         0.1294
     60 H24        -5.7421    0.7734   -0.9089 H         1 <0>         0.1278
     61 H25        -4.2556    1.8428    0.7337 H         1 <0>         0.1299
     62 H26        -1.8980    1.1612    0.8931 H         1 <0>         0.1252
@<TRIPOS>BOND
     1    1    2 1
     2    1   38 1
     3    1   39 1
     4    1   40 1
     5    2    7 ar
     6    2    3 ar
     7    3    4 ar
     8    3   41 1
     9    4   16 1
    10    4    5 ar
    11    5    6 ar
    12    5    9 1
    13    6    7 ar
    14    6   42 1
    15    7    8 1
    16    8   43 1
    17    8   44 1
    18    8   45 1
    19    9   13 1
    20    9   10 1
    21   10   11 2
    22   10   32 1
    23   11   28 1
    24   11   12 1
    25   12   13 2
    26   12   24 1
    27   13   14 1
    28   14   15 1
    29   14   16 1
    30   14   17 1
    31   16   46 1
    32   17   22 ar
    33   17   18 ar
    34   18   19 ar
    35   18   47 1
    36   19   20 ar
    37   19   48 1
    38   20   21 ar
    39   20   23 1
    40   21   22 ar
    41   21   49 1
    42   22   50 1
    43   23   51 1
    44   24   25 am
    45   24   31 1
    46   25   26 2
    47   25   27 am
    48   27   28 am
    49   27   30 1
    50   28   29 2
    51   30   52 1
    52   30   53 1
    53   30   54 1
    54   31   55 1
    55   31   56 1
    56   31   57 1
    57   32   37 ar
    58   32   33 ar
    59   33   34 ar
    60   33   58 1
    61   34   35 ar
    62   34   59 1
    63   35   36 ar
    64   35   60 1
    65   36   37 ar
    66   36   61 1
    67   37   62 1
@<TRIPOS>MOLECULE
ZINC21658954
   59    64     0     0     0
SMALL
USER_CHARGES
(3-methoxyphenyl)-dimethyl-phenyl-BLAHdione
@<TRIPOS>ATOM
      1 C1          1.7067   -1.0018   -1.6608 C.3       1 <0>         0.0862
      2 N1          2.7653   -0.0479   -1.3206 N.am      1 <0>        -0.5223
      3 C2          2.4974    1.0996   -0.5595 C.2       1 <0>         0.1226
      4 C3          3.6135    2.0281   -0.2480 C.2       1 <0>        -0.2658
      5 C4          3.0784    3.0446    0.5036 C.2       1 <0>         0.2148
      6 N2          1.7529    2.7827    0.6622 N.pl3     1 <0>        -0.3628
      7 C5          1.4102    1.6154   -0.0054 C.2       1 <0>        -0.0088
      8 C6         -0.0155    1.1083   -0.0328 C.3       1 <0>         0.2769
      9 H1         -0.0483    0.0089   -0.0203 H         1 <0>         0.1177
     10 N3         -0.7012    1.6210    1.1631 N.pl3     1 <0>        -0.7557
     11 C7         -0.4463    2.9189    1.6196 C.ar      1 <0>         0.2061
     12 C8          0.8003    3.5103    1.3901 C.ar      1 <0>         0.0617
     13 C9          1.0697    4.7774    1.8701 C.ar      1 <0>        -0.1005
     14 C10         0.0952    5.4687    2.5688 C.ar      1 <0>        -0.1395
     15 C11        -1.1439    4.8941    2.7844 C.ar      1 <0>        -0.0794
     16 C12        -1.4180    3.6236    2.3126 C.ar      1 <0>        -0.1610
     17 C13        -0.7102    1.6074   -1.2734 C.ar      1 <0>        -0.0699
     18 C14        -1.1948    2.9018   -1.3206 C.ar      1 <0>        -0.1324
     19 C15        -1.8326    3.3626   -2.4573 C.ar      1 <0>        -0.0769
     20 C16        -1.9875    2.5305   -3.5493 C.ar      1 <0>        -0.2015
     21 C17        -1.5020    1.2319   -3.5047 C.ar      1 <0>         0.1318
     22 C18        -0.8575    0.7734   -2.3646 C.ar      1 <0>        -0.1471
     23 O1         -1.6535    0.4113   -4.5774 O.3       1 <0>        -0.3154
     24 C19        -2.3228    0.9519   -5.7183 C.3       1 <0>         0.0232
     25 C20         3.8082    4.2090    1.0417 C.ar      1 <0>        -0.0529
     26 C21         4.4929    5.0681    0.1788 C.ar      1 <0>        -0.0627
     27 C22         5.1680    6.1576    0.6882 C.ar      1 <0>        -0.1182
     28 C23         5.1776    6.3942    2.0516 C.ar      1 <0>        -0.0987
     29 C24         4.5063    5.5442    2.9128 C.ar      1 <0>        -0.1227
     30 C25         3.8222    4.4540    2.4169 C.ar      1 <0>        -0.0903
     31 C26         4.9587    1.7229   -0.7458 C.2       1 <0>         0.6017
     32 O2          5.9125    2.4455   -0.5262 O.2       1 <0>        -0.4858
     33 N4          5.0668    0.5783   -1.4687 N.am      1 <0>        -0.5606
     34 C27         4.0401   -0.2370   -1.7277 C.2       1 <0>         0.7098
     35 O3          4.2724   -1.2329   -2.3854 O.2       1 <0>        -0.5519
     36 C28         6.3854    0.2162   -1.9946 C.3       1 <0>         0.0709
     37 H2          0.7529   -0.6589   -1.2333 H         1 <0>         0.0876
     38 H3          1.9583   -1.9907   -1.2499 H         1 <0>         0.0811
     39 H4          1.6141   -1.0720   -2.7546 H         1 <0>         0.0820
     40 H5         -1.4174    0.9835    1.7022 H         1 <0>         0.4355
     41 H6          2.0372    5.2267    1.7011 H         1 <0>         0.1453
     42 H7          0.3028    6.4591    2.9460 H         1 <0>         0.1316
     43 H8         -1.9022    5.4410    3.3250 H         1 <0>         0.1303
     44 H9         -2.3880    3.1807    2.4843 H         1 <0>         0.1340
     45 H10        -1.0750    3.5536   -0.4679 H         1 <0>         0.1222
     46 H11        -2.2105    4.3737   -2.4915 H         1 <0>         0.1258
     47 H12        -2.4859    2.8909   -4.4371 H         1 <0>         0.1296
     48 H13        -0.4750   -0.2359   -2.3289 H         1 <0>         0.1344
     49 H14        -2.3768    0.1879   -6.5079 H         1 <0>         0.1043
     50 H15        -1.7664    1.8249   -6.0902 H         1 <0>         0.0570
     51 H16        -3.3404    1.2590   -5.4350 H         1 <0>         0.0574
     52 H17         4.4902    4.8819   -0.8851 H         1 <0>         0.1255
     53 H18         5.6941    6.8252    0.0219 H         1 <0>         0.1301
     54 H19         5.7113    7.2466    2.4454 H         1 <0>         0.1280
     55 H20         4.5183    5.7347    3.9758 H         1 <0>         0.1299
     56 H21         3.2984    3.7916    3.0902 H         1 <0>         0.1241
     57 H22         6.3106   -0.7284   -2.5532 H         1 <0>         0.1069
     58 H23         7.0919    0.0939   -1.1604 H         1 <0>         0.0784
     59 H24         6.7437    1.0113   -2.6650 H         1 <0>         0.0783
@<TRIPOS>BOND
     1    1    2 1
     2    1   37 1
     3    1   38 1
     4    1   39 1
     5    2   34 am
     6    2    3 1
     7    3    7 2
     8    3    4 1
     9    4    5 2
    10    4   31 1
    11    5    6 1
    12    5   25 1
    13    6   12 1
    14    6    7 1
    15    7    8 1
    16    8    9 1
    17    8   10 1
    18    8   17 1
    19   10   11 1
    20   10   40 1
    21   11   16 ar
    22   11   12 ar
    23   12   13 ar
    24   13   14 ar
    25   13   41 1
    26   14   15 ar
    27   14   42 1
    28   15   16 ar
    29   15   43 1
    30   16   44 1
    31   17   22 ar
    32   17   18 ar
    33   18   19 ar
    34   18   45 1
    35   19   20 ar
    36   19   46 1
    37   20   21 ar
    38   20   47 1
    39   21   22 ar
    40   21   23 1
    41   22   48 1
    42   23   24 1
    43   24   49 1
    44   24   50 1
    45   24   51 1
    46   25   30 ar
    47   25   26 ar
    48   26   27 ar
    49   26   52 1
    50   27   28 ar
    51   27   53 1
    52   28   29 ar
    53   28   54 1
    54   29   30 ar
    55   29   55 1
    56   30   56 1
    57   31   32 2
    58   31   33 am
    59   33   34 am
    60   33   36 1
    61   34   35 2
    62   36   57 1
    63   36   58 1
    64   36   59 1
@<TRIPOS>MOLECULE
ZINC21658956
   59    64     0     0     0
SMALL
USER_CHARGES
(3-methoxyphenyl)-dimethyl-phenyl-BLAHdione
@<TRIPOS>ATOM
      1 C1          0.4877   10.3280    0.9312 C.3       1 <0>         0.0881
      2 N1          0.9850    8.9789    1.2120 N.am      1 <0>        -0.5224
      3 C2          0.3924    7.8469    0.6328 C.2       1 <0>         0.1222
      4 C3          0.9415    6.5063    0.9585 C.2       1 <0>        -0.2668
      5 C4          0.1835    5.5950    0.2662 C.2       1 <0>         0.2158
      6 N2         -0.7638    6.2870   -0.4214 N.pl3     1 <0>        -0.3624
      7 C5         -0.6185    7.6499   -0.2005 C.2       1 <0>        -0.0102
      8 C6         -1.5161    8.6625   -0.8781 C.3       1 <0>         0.2774
      9 H1         -1.7223    9.5148   -0.2139 H         1 <0>         0.1188
     10 N3         -2.7800    7.9964   -1.2137 N.pl3     1 <0>        -0.7563
     11 C7         -2.7801    6.6732   -1.6691 C.ar      1 <0>         0.2062
     12 C8         -1.7733    5.7926   -1.2600 C.ar      1 <0>         0.0605
     13 C9         -1.7850    4.4768   -1.6807 C.ar      1 <0>        -0.0993
     14 C10        -2.7918    4.0333   -2.5207 C.ar      1 <0>        -0.1386
     15 C11        -3.7817    4.9038   -2.9381 C.ar      1 <0>        -0.0785
     16 C12        -3.7794    6.2207   -2.5161 C.ar      1 <0>        -0.1589
     17 C13        -0.8632    9.1565   -2.1433 C.ar      1 <0>        -0.0705
     18 C14        -0.3676   10.4459   -2.2070 C.ar      1 <0>        -0.1494
     19 C15         0.2326   10.9018   -3.3659 C.ar      1 <0>        -0.0753
     20 C16         0.3388   10.0696   -4.4637 C.ar      1 <0>        -0.2025
     21 C17        -0.1580    8.7759   -4.4025 C.ar      1 <0>         0.1301
     22 C18        -0.7553    8.3191   -3.2364 C.ar      1 <0>        -0.1268
     23 O1         -0.0543    7.9553   -5.4808 O.3       1 <0>        -0.3156
     24 C19         0.5782    8.4906   -6.6451 C.3       1 <0>         0.0232
     25 C20         0.3674    4.1308    0.2636 C.ar      1 <0>        -0.0528
     26 C21        -0.6781    3.2915    0.6566 C.ar      1 <0>        -0.0903
     27 C22        -0.4990    1.9240    0.6521 C.ar      1 <0>        -0.1224
     28 C23         0.7126    1.3828    0.2596 C.ar      1 <0>        -0.0990
     29 C24         1.7544    2.2082   -0.1254 C.ar      1 <0>        -0.1178
     30 C25         1.5877    3.5774   -0.1313 C.ar      1 <0>        -0.0631
     31 C26         2.0860    6.4035    1.8694 C.2       1 <0>         0.6017
     32 O2          2.5824    5.3345    2.1715 O.2       1 <0>        -0.4858
     33 N4          2.5543    7.5833    2.3524 N.am      1 <0>        -0.5608
     34 C27         2.0335    8.7736    2.0395 C.2       1 <0>         0.7100
     35 O3          2.5462    9.7548    2.5422 O.2       1 <0>        -0.5530
     36 C28         3.6960    7.5490    3.2699 C.3       1 <0>         0.0709
     37 H2         -0.3645   10.2678    0.2383 H         1 <0>         0.0871
     38 H3          1.2897   10.9268    0.4748 H         1 <0>         0.0805
     39 H4          0.1646   10.8023    1.8696 H         1 <0>         0.0800
     40 H5         -3.7319    8.5374   -1.1076 H         1 <0>         0.4347
     41 H6         -1.0115    3.7968   -1.3554 H         1 <0>         0.1443
     42 H7         -2.8043    3.0051   -2.8508 H         1 <0>         0.1317
     43 H8         -4.5613    4.5532   -3.5981 H         1 <0>         0.1303
     44 H9         -4.5555    6.8955   -2.8458 H         1 <0>         0.1336
     45 H10        -0.4494   11.0978   -1.3498 H         1 <0>         0.1271
     46 H11         0.6192   11.9091   -3.4131 H         1 <0>         0.1294
     47 H12         0.8084   10.4260   -5.3686 H         1 <0>         0.1296
     48 H13        -1.1385    7.3107   -3.1847 H         1 <0>         0.1272
     49 H14         0.5954    7.7271   -7.4368 H         1 <0>         0.1035
     50 H15         1.6086    8.7870   -6.3991 H         1 <0>         0.0569
     51 H16         0.0175    9.3697   -6.9955 H         1 <0>         0.0574
     52 H17        -1.6243    3.7125    0.9627 H         1 <0>         0.1239
     53 H18        -1.3064    1.2739    0.9553 H         1 <0>         0.1297
     54 H19         0.8473    0.3112    0.2581 H         1 <0>         0.1279
     55 H20         2.6988    1.7792   -0.4262 H         1 <0>         0.1300
     56 H21         2.4002    4.2202   -0.4363 H         1 <0>         0.1252
     57 H22         3.9555    8.5747    3.5708 H         1 <0>         0.1068
     58 H23         4.5572    7.0856    2.7664 H         1 <0>         0.0783
     59 H24         3.4324    6.9609    4.1614 H         1 <0>         0.0783
@<TRIPOS>BOND
     1    1    2 1
     2    1   37 1
     3    1   38 1
     4    1   39 1
     5    2   34 am
     6    2    3 1
     7    3    7 2
     8    3    4 1
     9    4    5 2
    10    4   31 1
    11    5    6 1
    12    5   25 1
    13    6   12 1
    14    6    7 1
    15    7    8 1
    16    8    9 1
    17    8   10 1
    18    8   17 1
    19   10   11 1
    20   10   40 1
    21   11   16 ar
    22   11   12 ar
    23   12   13 ar
    24   13   14 ar
    25   13   41 1
    26   14   15 ar
    27   14   42 1
    28   15   16 ar
    29   15   43 1
    30   16   44 1
    31   17   22 ar
    32   17   18 ar
    33   18   19 ar
    34   18   45 1
    35   19   20 ar
    36   19   46 1
    37   20   21 ar
    38   20   47 1
    39   21   22 ar
    40   21   23 1
    41   22   48 1
    42   23   24 1
    43   24   49 1
    44   24   50 1
    45   24   51 1
    46   25   30 ar
    47   25   26 ar
    48   26   27 ar
    49   26   52 1
    50   27   28 ar
    51   27   53 1
    52   28   29 ar
    53   28   54 1
    54   29   30 ar
    55   29   55 1
    56   30   56 1
    57   31   32 2
    58   31   33 am
    59   33   34 am
    60   33   36 1
    61   34   35 2
    62   36   57 1
    63   36   58 1
    64   36   59 1
@<TRIPOS>MOLECULE
ZINC20898541
   55    60     0     0     0
SMALL
USER_CHARGES
(2-fluorophenyl)-dimethyl-phenyl-BLAHdione
@<TRIPOS>ATOM
      1 C1          2.9458   -2.2006    0.0311 C.3       1 <0>         0.0932
      2 N1          1.5892   -1.6535    0.1135 N.am      1 <0>        -0.5229
      3 C2          1.3505   -0.2748    0.0139 C.2       1 <0>         0.1233
      4 C3         -0.0471    0.2178    0.1062 C.2       1 <0>        -0.2661
      5 C4          0.0107    1.5833   -0.0211 C.2       1 <0>         0.2151
      6 N2          1.3189    1.9274   -0.1616 N.pl3     1 <0>        -0.3636
      7 C5          2.1178    0.7920   -0.1554 C.2       1 <0>        -0.0129
      8 C6          3.6174    0.8763   -0.3402 C.3       1 <0>         0.2789
      9 H1          4.1369    0.1193    0.2657 H         1 <0>         0.1180
     10 N3          4.0514    2.2148    0.0890 N.pl3     1 <0>        -0.7550
     11 C7          3.2655    3.3346   -0.2061 C.ar      1 <0>         0.2075
     12 C8          1.8764    3.2060   -0.3078 C.ar      1 <0>         0.0618
     13 C9          1.0897    4.3156   -0.5494 C.ar      1 <0>        -0.1001
     14 C10         1.6825    5.5567   -0.7052 C.ar      1 <0>        -0.1388
     15 C11         3.0566    5.6857   -0.6206 C.ar      1 <0>        -0.0790
     16 C12         3.8495    4.5803   -0.3722 C.ar      1 <0>        -0.1579
     17 C13         3.9646    0.6689   -1.7920 C.ar      1 <0>        -0.1469
     18 C14         2.9841    0.7793   -2.7599 C.ar      1 <0>        -0.0662
     19 C15         3.3024    0.5896   -4.0916 C.ar      1 <0>        -0.1279
     20 C16         4.6017    0.2896   -4.4570 C.ar      1 <0>        -0.0803
     21 C17         5.5835    0.1783   -3.4911 C.ar      1 <0>        -0.1536
     22 C18         5.2668    0.3733   -2.1571 C.ar      1 <0>         0.1176
     23 F1          6.2271    0.2706   -1.2123 F         1 <0>        -0.1359
     24 C19        -1.1384    2.5092   -0.0133 C.ar      1 <0>        -0.0538
     25 C20        -1.2068    3.5350    0.9326 C.ar      1 <0>        -0.0897
     26 C21        -2.2812    4.3999    0.9305 C.ar      1 <0>        -0.1223
     27 C22        -3.2950    4.2469    0.0012 C.ar      1 <0>        -0.0982
     28 C23        -3.2367    3.2296   -0.9351 C.ar      1 <0>        -0.1179
     29 C24        -2.1658    2.3605   -0.9482 C.ar      1 <0>        -0.0633
     30 C25        -1.1352   -0.7471    0.2946 C.2       1 <0>         0.6015
     31 O1         -2.3003   -0.4056    0.3741 O.2       1 <0>        -0.4849
     32 N4         -0.7534   -2.0480    0.3738 N.am      1 <0>        -0.5605
     33 C26         0.5163   -2.4564    0.2886 C.2       1 <0>         0.7097
     34 O2          0.7236   -3.6512    0.3764 O.2       1 <0>        -0.5513
     35 C27        -1.7933   -3.0621    0.5641 C.3       1 <0>         0.0707
     36 H2          3.6641   -1.3798   -0.1113 H         1 <0>         0.0835
     37 H3          3.0098   -2.8956   -0.8191 H         1 <0>         0.0800
     38 H4          3.1819   -2.7371    0.9619 H         1 <0>         0.0807
     39 H5          4.9943    2.3361    0.6423 H         1 <0>         0.4347
     40 H6          0.0166    4.2150   -0.6169 H         1 <0>         0.1450
     41 H7          1.0703    6.4264   -0.8929 H         1 <0>         0.1316
     42 H8          3.5134    6.6557   -0.7496 H         1 <0>         0.1301
     43 H9          4.9222    4.6878   -0.3074 H         1 <0>         0.1328
     44 H10         1.9689    1.0135   -2.4756 H         1 <0>         0.1256
     45 H11         2.5356    0.6761   -4.8472 H         1 <0>         0.1308
     46 H12         4.8493    0.1420   -5.4978 H         1 <0>         0.1357
     47 H13         6.5982   -0.0563   -3.7767 H         1 <0>         0.1389
     48 H14        -0.4185    3.6527    1.6613 H         1 <0>         0.1240
     49 H15        -2.3334    5.1959    1.6586 H         1 <0>         0.1299
     50 H16        -4.1360    4.9245    0.0068 H         1 <0>         0.1281
     51 H17        -4.0315    3.1160   -1.6574 H         1 <0>         0.1303
     52 H18        -2.1217    1.5668   -1.6793 H         1 <0>         0.1256
     53 H19        -1.3298   -4.0587    0.6083 H         1 <0>         0.1069
     54 H20        -2.5010   -3.0239   -0.2771 H         1 <0>         0.0787
     55 H21        -2.3298   -2.8652    1.5040 H         1 <0>         0.0785
@<TRIPOS>BOND
     1    1    2 1
     2    1   36 1
     3    1   37 1
     4    1   38 1
     5    2   33 am
     6    2    3 1
     7    3    7 2
     8    3    4 1
     9    4    5 2
    10    4   30 1
    11    5    6 1
    12    5   24 1
    13    6   12 1
    14    6    7 1
    15    7    8 1
    16    8    9 1
    17    8   10 1
    18    8   17 1
    19   10   11 1
    20   10   39 1
    21   11   16 ar
    22   11   12 ar
    23   12   13 ar
    24   13   14 ar
    25   13   40 1
    26   14   15 ar
    27   14   41 1
    28   15   16 ar
    29   15   42 1
    30   16   43 1
    31   17   22 ar
    32   17   18 ar
    33   18   19 ar
    34   18   44 1
    35   19   20 ar
    36   19   45 1
    37   20   21 ar
    38   20   46 1
    39   21   22 ar
    40   21   47 1
    41   22   23 1
    42   24   29 ar
    43   24   25 ar
    44   25   26 ar
    45   25   48 1
    46   26   27 ar
    47   26   49 1
    48   27   28 ar
    49   27   50 1
    50   28   29 ar
    51   28   51 1
    52   29   52 1
    53   30   31 2
    54   30   32 am
    55   32   33 am
    56   32   35 1
    57   33   34 2
    58   35   53 1
    59   35   54 1
    60   35   55 1
@<TRIPOS>MOLECULE
ZINC20898543
   55    60     0     0     0
SMALL
USER_CHARGES
(2-fluorophenyl)-dimethyl-phenyl-BLAHdione
@<TRIPOS>ATOM
      1 C1          0.9932    6.7140    0.4497 C.3       1 <0>         0.0931
      2 N1          1.6477    6.5787    1.7533 N.am      1 <0>        -0.5229
      3 C2          2.4270    5.4551    2.0661 C.2       1 <0>         0.1229
      4 C3          3.0638    5.3763    3.4051 C.2       1 <0>        -0.2660
      5 C4          3.7587    4.1929    3.4385 C.2       1 <0>         0.2148
      6 N2          3.5875    3.5830    2.2345 N.pl3     1 <0>        -0.3637
      7 C5          2.7637    4.3479    1.4209 C.2       1 <0>        -0.0123
      8 C6          2.3714    3.8882    0.0335 C.3       1 <0>         0.2793
      9 H1          2.2949    4.7378   -0.6610 H         1 <0>         0.1179
     10 N3          3.4115    2.9666   -0.4490 N.pl3     1 <0>        -0.7554
     11 C7          4.0042    2.0533    0.4300 C.ar      1 <0>         0.2070
     12 C8          4.1287    2.3691    1.7869 C.ar      1 <0>         0.0622
     13 C9          4.7411    1.4860    2.6549 C.ar      1 <0>        -0.1003
     14 C10         5.2156    0.2752    2.1806 C.ar      1 <0>        -0.1385
     15 C11         5.0781   -0.0489    0.8435 C.ar      1 <0>        -0.0794
     16 C12         4.4757    0.8351   -0.0328 C.ar      1 <0>        -0.1572
     17 C13         1.0447    3.1755    0.0888 C.ar      1 <0>        -0.1469
     18 C14         0.5321    2.7621    1.3041 C.ar      1 <0>        -0.0665
     19 C15        -0.6845    2.1080    1.3551 C.ar      1 <0>        -0.1279
     20 C16        -1.3876    1.8618    0.1903 C.ar      1 <0>        -0.0804
     21 C17        -0.8796    2.2788   -1.0252 C.ar      1 <0>        -0.1538
     22 C18         0.3391    2.9342   -1.0776 C.ar      1 <0>         0.1179
     23 F1          0.8390    3.3381   -2.2659 F         1 <0>        -0.1359
     24 C19         4.5470    3.6760    4.5740 C.ar      1 <0>        -0.0538
     25 C20         3.9406    3.4776    5.8168 C.ar      1 <0>        -0.0629
     26 C21         4.6822    2.9887    6.8720 C.ar      1 <0>        -0.1181
     27 C22         6.0265    2.7058    6.7049 C.ar      1 <0>        -0.0982
     28 C23         6.6350    2.9054    5.4782 C.ar      1 <0>        -0.1223
     29 C24         5.9045    3.3882    4.4126 C.ar      1 <0>        -0.0899
     30 C25         2.8606    6.4706    4.3598 C.2       1 <0>         0.6015
     31 O1          3.3545    6.4633    5.4717 O.2       1 <0>        -0.4849
     32 N4          2.0826    7.4924    3.9183 N.am      1 <0>        -0.5605
     33 C26         1.5250    7.5311    2.7043 C.2       1 <0>         0.7097
     34 O2          0.8507    8.5056    2.4324 O.2       1 <0>        -0.5512
     35 C27         1.8411    8.6175    4.8249 C.3       1 <0>         0.0707
     36 H2          1.2221    5.8335   -0.1686 H         1 <0>         0.0836
     37 H3          1.3610    7.6207   -0.0529 H         1 <0>         0.0808
     38 H4         -0.0950    6.7894    0.5918 H         1 <0>         0.0800
     39 H5          3.7250    2.9944   -1.5030 H         1 <0>         0.4344
     40 H6          4.8490    1.7391    3.6992 H         1 <0>         0.1451
     41 H7          5.6946   -0.4177    2.8565 H         1 <0>         0.1317
     42 H8          5.4432   -0.9986    0.4813 H         1 <0>         0.1302
     43 H9          4.3732    0.5767   -1.0764 H         1 <0>         0.1328
     44 H10         1.0822    2.9506    2.2142 H         1 <0>         0.1260
     45 H11        -1.0841    1.7851    2.3050 H         1 <0>         0.1308
     46 H12        -2.3361    1.3470    0.2309 H         1 <0>         0.1356
     47 H13        -1.4311    2.0902   -1.9345 H         1 <0>         0.1388
     48 H14         2.8927    3.7025    5.9499 H         1 <0>         0.1258
     49 H15         4.2137    2.8306    7.8321 H         1 <0>         0.1303
     50 H16         6.6033    2.3272    7.5357 H         1 <0>         0.1281
     51 H17         7.6847    2.6828    5.3550 H         1 <0>         0.1299
     52 H18         6.3806    3.5431    3.4557 H         1 <0>         0.1240
     53 H19         1.1984    9.3583    4.3268 H         1 <0>         0.1069
     54 H20         2.8001    9.0850    5.0926 H         1 <0>         0.0785
     55 H21         1.3434    8.2539    5.7360 H         1 <0>         0.0788
@<TRIPOS>BOND
     1    1    2 1
     2    1   36 1
     3    1   37 1
     4    1   38 1
     5    2   33 am
     6    2    3 1
     7    3    7 2
     8    3    4 1
     9    4    5 2
    10    4   30 1
    11    5    6 1
    12    5   24 1
    13    6   12 1
    14    6    7 1
    15    7    8 1
    16    8    9 1
    17    8   10 1
    18    8   17 1
    19   10   11 1
    20   10   39 1
    21   11   16 ar
    22   11   12 ar
    23   12   13 ar
    24   13   14 ar
    25   13   40 1
    26   14   15 ar
    27   14   41 1
    28   15   16 ar
    29   15   42 1
    30   16   43 1
    31   17   22 ar
    32   17   18 ar
    33   18   19 ar
    34   18   44 1
    35   19   20 ar
    36   19   45 1
    37   20   21 ar
    38   20   46 1
    39   21   22 ar
    40   21   47 1
    41   22   23 1
    42   24   29 ar
    43   24   25 ar
    44   25   26 ar
    45   25   48 1
    46   26   27 ar
    47   26   49 1
    48   27   28 ar
    49   27   50 1
    50   28   29 ar
    51   28   51 1
    52   29   52 1
    53   30   31 2
    54   30   32 am
    55   32   33 am
    56   32   35 1
    57   33   34 2
    58   35   53 1
    59   35   54 1
    60   35   55 1
@<TRIPOS>MOLECULE
ZINC21658941
   55    60     0     0     0
SMALL
USER_CHARGES
dimethyl-diphenyl-BLAHdione
@<TRIPOS>ATOM
      1 C1          3.7243   -1.1835    0.3717 C.3       1 <0>         0.0890
      2 N1          2.5209   -0.3544    0.4756 N.am      1 <0>        -0.5227
      3 C2          2.5503    1.0160    0.1769 C.2       1 <0>         0.1213
      4 C3          1.2981    1.8032    0.3060 C.2       1 <0>        -0.2661
      5 C4          1.6105    3.0941   -0.0411 C.2       1 <0>         0.2146
      6 N2          2.9340    3.1267   -0.3514 N.pl3     1 <0>        -0.3634
      7 C5          3.4868    1.8587   -0.2331 C.2       1 <0>        -0.0090
      8 C6          4.9395    1.5935   -0.5643 C.3       1 <0>         0.2762
      9 H1          5.3688    0.8336    0.1053 H         1 <0>         0.1148
     10 N3          5.6792    2.8540   -0.3962 N.pl3     1 <0>        -0.7567
     11 C7          5.1010    4.0654   -0.7921 C.ar      1 <0>         0.2065
     12 C8          3.7114    4.2210   -0.7573 C.ar      1 <0>         0.0602
     13 C9          3.1353    5.4227   -1.1215 C.ar      1 <0>        -0.1000
     14 C10         3.9380    6.4711   -1.5363 C.ar      1 <0>        -0.1394
     15 C11         5.3109    6.3166   -1.5870 C.ar      1 <0>        -0.0792
     16 C12         5.8950    5.1192   -1.2166 C.ar      1 <0>        -0.1598
     17 C13         5.0590    1.1184   -1.9894 C.ar      1 <0>        -0.1088
     18 C14         4.7795    1.9823   -3.0317 C.ar      1 <0>        -0.0930
     19 C15         4.8934    1.5477   -4.3391 C.ar      1 <0>        -0.1181
     20 C16         5.2778    0.2466   -4.6039 C.ar      1 <0>        -0.1114
     21 C17         5.5521   -0.6189   -3.5615 C.ar      1 <0>        -0.1167
     22 C18         5.4425   -0.1830   -2.2542 C.ar      1 <0>        -0.1098
     23 C19         0.6790    4.2383   -0.0724 C.ar      1 <0>        -0.0527
     24 C20        -0.4654    4.1899   -0.8721 C.ar      1 <0>        -0.0634
     25 C21        -1.3340    5.2612   -0.8927 C.ar      1 <0>        -0.1177
     26 C22        -1.0685    6.3861   -0.1318 C.ar      1 <0>        -0.0990
     27 C23         0.0659    6.4431    0.6586 C.ar      1 <0>        -0.1222
     28 C24         0.9406    5.3772    0.6931 C.ar      1 <0>        -0.0907
     29 C25         0.0694    1.1287    0.7369 C.2       1 <0>         0.6016
     30 O1         -0.9881    1.7183    0.8563 O.2       1 <0>        -0.4856
     31 N4          0.1915   -0.2004    0.9880 N.am      1 <0>        -0.5608
     32 C26         1.3368   -0.8782    0.8634 C.2       1 <0>         0.7099
     33 O2          1.3112   -2.0663    1.1203 O.2       1 <0>        -0.5526
     34 C27        -1.0010   -0.9337    1.4199 C.3       1 <0>         0.0708
     35 H2          4.5702   -0.5623    0.0420 H         1 <0>         0.0861
     36 H3          3.5534   -1.9879   -0.3589 H         1 <0>         0.0803
     37 H4          3.9528   -1.6228    1.3540 H         1 <0>         0.0799
     38 H5          6.6884    2.8453    0.0413 H         1 <0>         0.4342
     39 H6          2.0627    5.5436   -1.0826 H         1 <0>         0.1444
     40 H7          3.4909    7.4122   -1.8206 H         1 <0>         0.1318
     41 H8          5.9313    7.1365   -1.9177 H         1 <0>         0.1304
     42 H9          6.9682    5.0054   -1.2576 H         1 <0>         0.1335
     43 H10         4.4756    2.9978   -2.8247 H         1 <0>         0.1166
     44 H11         4.6794    2.2240   -5.1535 H         1 <0>         0.1222
     45 H12         5.3641   -0.0937   -5.6253 H         1 <0>         0.1239
     46 H13         5.8524   -1.6354   -3.7684 H         1 <0>         0.1261
     47 H14         5.6568   -0.8592   -1.4398 H         1 <0>         0.1241
     48 H15        -0.6717    3.3142   -1.4696 H         1 <0>         0.1254
     49 H16        -2.2213    5.2235   -1.5073 H         1 <0>         0.1302
     50 H17        -1.7498    7.2238   -0.1552 H         1 <0>         0.1280
     51 H18         0.2666    7.3241    1.2501 H         1 <0>         0.1297
     52 H19         1.8254    5.4229    1.3107 H         1 <0>         0.1237
     53 H20        -0.7428   -1.9906    1.5821 H         1 <0>         0.1068
     54 H21        -1.7773   -0.8608    0.6440 H         1 <0>         0.0784
     55 H22        -1.3782   -0.5003    2.3579 H         1 <0>         0.0784
@<TRIPOS>BOND
     1    1    2 1
     2    1   35 1
     3    1   36 1
     4    1   37 1
     5    2   32 am
     6    2    3 1
     7    3    7 2
     8    3    4 1
     9    4    5 2
    10    4   29 1
    11    5    6 1
    12    5   23 1
    13    6   12 1
    14    6    7 1
    15    7    8 1
    16    8    9 1
    17    8   10 1
    18    8   17 1
    19   10   11 1
    20   10   38 1
    21   11   16 ar
    22   11   12 ar
    23   12   13 ar
    24   13   14 ar
    25   13   39 1
    26   14   15 ar
    27   14   40 1
    28   15   16 ar
    29   15   41 1
    30   16   42 1
    31   17   22 ar
    32   17   18 ar
    33   18   19 ar
    34   18   43 1
    35   19   20 ar
    36   19   44 1
    37   20   21 ar
    38   20   45 1
    39   21   22 ar
    40   21   46 1
    41   22   47 1
    42   23   28 ar
    43   23   24 ar
    44   24   25 ar
    45   24   48 1
    46   25   26 ar
    47   25   49 1
    48   26   27 ar
    49   26   50 1
    50   27   28 ar
    51   27   51 1
    52   28   52 1
    53   29   30 2
    54   29   31 am
    55   31   32 am
    56   31   34 1
    57   32   33 2
    58   34   53 1
    59   34   54 1
    60   34   55 1
@<TRIPOS>MOLECULE
ZINC21658943
   55    60     0     0     0
SMALL
USER_CHARGES
dimethyl-diphenyl-BLAHdione
@<TRIPOS>ATOM
      1 C1         -1.5908   -2.3416   -1.4775 C.3       1 <0>         0.0852
      2 N1         -0.7405   -2.8223   -2.5693 N.am      1 <0>        -0.5224
      3 C2          0.6484   -2.9438   -2.4140 C.2       1 <0>         0.1202
      4 C3          1.4553   -3.4399   -3.5573 C.2       1 <0>        -0.2655
      5 C4          2.7609   -3.4616   -3.1340 C.2       1 <0>         0.2140
      6 N2          2.7808   -3.0296   -1.8440 N.pl3     1 <0>        -0.3634
      7 C5          1.4977   -2.7076   -1.4248 C.2       1 <0>        -0.0075
      8 C6          1.2274   -2.1738   -0.0348 C.3       1 <0>         0.2765
      9 H1          0.2700   -2.5486    0.3563 H         1 <0>         0.1151
     10 N3          2.3146   -2.6285    0.8453 N.pl3     1 <0>        -0.7577
     11 C7          3.6313   -2.6684    0.3733 C.ar      1 <0>         0.2047
     12 C8          3.8805   -2.9056   -0.9825 C.ar      1 <0>         0.0623
     13 C9          5.1781   -2.9798   -1.4501 C.ar      1 <0>        -0.1006
     14 C10         6.2345   -2.7968   -0.5747 C.ar      1 <0>        -0.1387
     15 C11         5.9927   -2.5422    0.7627 C.ar      1 <0>        -0.0799
     16 C12         4.6962   -2.4785    1.2397 C.ar      1 <0>        -0.1601
     17 C13         1.1927   -0.6675   -0.0653 C.ar      1 <0>        -0.1090
     18 C14        -0.0198   -0.0038   -0.0575 C.ar      1 <0>        -0.1152
     19 C15        -0.0516    1.3779   -0.0854 C.ar      1 <0>        -0.1161
     20 C16         1.1291    2.0959   -0.1208 C.ar      1 <0>        -0.1124
     21 C17         2.3417    1.4322   -0.1287 C.ar      1 <0>        -0.1181
     22 C18         2.3735    0.0505   -0.1007 C.ar      1 <0>        -0.0949
     23 C19         3.9300   -3.8774   -3.9327 C.ar      1 <0>        -0.0527
     24 C20         4.7534   -4.9133   -3.4849 C.ar      1 <0>        -0.0908
     25 C21         5.8417   -5.2998   -4.2390 C.ar      1 <0>        -0.1223
     26 C22         6.1248   -4.6571   -5.4313 C.ar      1 <0>        -0.0988
     27 C23         5.3166   -3.6267   -5.8785 C.ar      1 <0>        -0.1178
     28 C24         4.2220   -3.2331   -5.1374 C.ar      1 <0>        -0.0632
     29 C25         0.7811   -3.7846   -4.8132 C.2       1 <0>         0.6015
     30 O1          1.3873   -4.1952   -5.7848 O.2       1 <0>        -0.4855
     31 N4         -0.5663   -3.6147   -4.8173 N.am      1 <0>        -0.5606
     32 C26        -1.2618   -3.1671   -3.7675 C.2       1 <0>         0.7099
     33 O2         -2.4655   -3.0611   -3.9019 O.2       1 <0>        -0.5526
     34 C27        -1.2995   -3.9403   -6.0431 C.3       1 <0>         0.0708
     35 H2         -0.9680   -2.1189   -0.5986 H         1 <0>         0.0890
     36 H3         -2.3274   -3.1163   -1.2182 H         1 <0>         0.0805
     37 H4         -2.1154   -1.4287   -1.7960 H         1 <0>         0.0808
     38 H5          2.0936   -2.9383    1.8774 H         1 <0>         0.4346
     39 H6          5.3676   -3.1797   -2.4944 H         1 <0>         0.1450
     40 H7          7.2504   -2.8534   -0.9370 H         1 <0>         0.1318
     41 H8          6.8213   -2.3926    1.4390 H         1 <0>         0.1306
     42 H9          4.5138   -2.2813    2.2858 H         1 <0>         0.1340
     43 H10        -0.9423   -0.5647   -0.0298 H         1 <0>         0.1263
     44 H11        -0.9991    1.8964   -0.0842 H         1 <0>         0.1260
     45 H12         1.1042    3.1754   -0.1429 H         1 <0>         0.1237
     46 H13         3.2642    1.9931   -0.1559 H         1 <0>         0.1223
     47 H14         3.3208   -0.4681   -0.1061 H         1 <0>         0.1195
     48 H15         4.5360   -5.4131   -2.5525 H         1 <0>         0.1238
     49 H16         6.4767   -6.1033   -3.8960 H         1 <0>         0.1299
     50 H17         6.9804   -4.9614   -6.0159 H         1 <0>         0.1281
     51 H18         5.5437   -3.1293   -6.8098 H         1 <0>         0.1302
     52 H19         3.5923   -2.4285   -5.4874 H         1 <0>         0.1254
     53 H20        -2.3723   -3.7515   -5.8898 H         1 <0>         0.1069
     54 H21        -1.1456   -5.0008   -6.2916 H         1 <0>         0.0785
     55 H22        -0.9311   -3.3131   -6.8683 H         1 <0>         0.0784
@<TRIPOS>BOND
     1    1    2 1
     2    1   35 1
     3    1   36 1
     4    1   37 1
     5    2   32 am
     6    2    3 1
     7    3    7 2
     8    3    4 1
     9    4    5 2
    10    4   29 1
    11    5    6 1
    12    5   23 1
    13    6   12 1
    14    6    7 1
    15    7    8 1
    16    8    9 1
    17    8   10 1
    18    8   17 1
    19   10   11 1
    20   10   38 1
    21   11   16 ar
    22   11   12 ar
    23   12   13 ar
    24   13   14 ar
    25   13   39 1
    26   14   15 ar
    27   14   40 1
    28   15   16 ar
    29   15   41 1
    30   16   42 1
    31   17   22 ar
    32   17   18 ar
    33   18   19 ar
    34   18   43 1
    35   19   20 ar
    36   19   44 1
    37   20   21 ar
    38   20   45 1
    39   21   22 ar
    40   21   46 1
    41   22   47 1
    42   23   28 ar
    43   23   24 ar
    44   24   25 ar
    45   24   48 1
    46   25   26 ar
    47   25   49 1
    48   26   27 ar
    49   26   50 1
    50   27   28 ar
    51   27   51 1
    52   28   52 1
    53   29   30 2
    54   29   31 am
    55   31   32 am
    56   31   34 1
    57   32   33 2
    58   34   53 1
    59   34   54 1
    60   34   55 1
@<TRIPOS>MOLECULE
ZINC20898520
   56    61     0     0     0
SMALL
USER_CHARGES
(4-hydroxyphenyl)-dimethyl-phenyl-BLAHdione
@<TRIPOS>ATOM
      1 C1          3.7182   -1.1821    0.3718 C.3       1 <0>         0.0893
      2 N1          2.5160   -0.3511    0.4736 N.am      1 <0>        -0.5224
      3 C2          2.5478    1.0190    0.1743 C.2       1 <0>         0.1198
      4 C3          1.2966    1.8082    0.3013 C.2       1 <0>        -0.2660
      5 C4          1.6113    3.0984   -0.0462 C.2       1 <0>         0.2141
      6 N2          2.9353    3.1289   -0.3548 N.pl3     1 <0>        -0.3636
      7 C5          3.4861    1.8601   -0.2350 C.2       1 <0>        -0.0076
      8 C6          4.9388    1.5926   -0.5642 C.3       1 <0>         0.2817
      9 H1          5.3665    0.8329    0.1066 H         1 <0>         0.1135
     10 N3          5.6801    2.8521   -0.3959 N.pl3     1 <0>        -0.7568
     11 C7          5.1043    4.0641   -0.7932 C.ar      1 <0>         0.2063
     12 C8          3.7148    4.2218   -0.7602 C.ar      1 <0>         0.0594
     13 C9          3.1410    5.4242   -1.1258 C.ar      1 <0>        -0.0998
     14 C10         3.9458    6.4712   -1.5400 C.ar      1 <0>        -0.1396
     15 C11         5.3186    6.3146   -1.5889 C.ar      1 <0>        -0.0791
     16 C12         5.9004    5.1165   -1.2172 C.ar      1 <0>        -0.1601
     17 C13         5.0592    1.1152   -1.9885 C.ar      1 <0>        -0.1534
     18 C14         4.7796    1.9785   -3.0317 C.ar      1 <0>        -0.0490
     19 C15         4.8947    1.5450   -4.3383 C.ar      1 <0>        -0.1614
     20 C16         5.2803    0.2389   -4.6032 C.ar      1 <0>         0.1664
     21 C17         5.5548   -0.6270   -3.5546 C.ar      1 <0>        -0.2128
     22 C18         5.4437   -0.1870   -2.2498 C.ar      1 <0>        -0.0667
     23 O1          5.3893   -0.1915   -5.8876 O.3       1 <0>        -0.5091
     24 C19         0.6817    4.2440   -0.0793 C.ar      1 <0>        -0.0524
     25 C20        -0.4618    4.1969   -0.8804 C.ar      1 <0>        -0.0635
     26 C21        -1.3288    5.2694   -0.9027 C.ar      1 <0>        -0.1177
     27 C22        -1.0626    6.3943   -0.1421 C.ar      1 <0>        -0.0992
     28 C23         0.0709    6.4501    0.6497 C.ar      1 <0>        -0.1222
     29 C24         0.9439    5.3829    0.6859 C.ar      1 <0>        -0.0906
     30 C25         0.0663    1.1358    0.7310 C.2       1 <0>         0.6015
     31 O2         -0.9905    1.7270    0.8487 O.2       1 <0>        -0.4857
     32 N4          0.1861   -0.1934    0.9830 N.am      1 <0>        -0.5608
     33 C26         1.3306   -0.8729    0.8602 C.2       1 <0>         0.7099
     34 O3          1.3029   -2.0609    1.1177 O.2       1 <0>        -0.5534
     35 C27        -1.0080   -0.9246    1.4138 C.3       1 <0>         0.0709
     36 H2          4.5654   -0.5625    0.0428 H         1 <0>         0.0862
     37 H3          3.5470   -1.9867   -0.3585 H         1 <0>         0.0794
     38 H4          3.9448   -1.6211    1.3546 H         1 <0>         0.0797
     39 H5          6.6888    2.8422    0.0429 H         1 <0>         0.4337
     40 H6          2.0686    5.5466   -1.0883 H         1 <0>         0.1442
     41 H7          3.5005    7.4128   -1.8254 H         1 <0>         0.1316
     42 H8          5.9406    7.1334   -1.9192 H         1 <0>         0.1302
     43 H9          6.9735    5.0011   -1.2567 H         1 <0>         0.1336
     44 H10         4.4752    2.9939   -2.8250 H         1 <0>         0.1219
     45 H11         4.6804    2.2210   -5.1529 H         1 <0>         0.1281
     46 H12         5.8549   -1.6443   -3.7582 H         1 <0>         0.1301
     47 H13         5.6570   -0.8608   -1.4332 H         1 <0>         0.1261
     48 H14         5.6951   -1.2273   -6.0965 H         1 <0>         0.4356
     49 H15        -0.6686    3.3211   -1.4777 H         1 <0>         0.1254
     50 H16        -2.2153    5.2327   -1.5184 H         1 <0>         0.1300
     51 H17        -1.7426    7.2330   -0.1669 H         1 <0>         0.1278
     52 H18         0.2721    7.3311    1.2410 H         1 <0>         0.1296
     53 H19         1.8280    5.4276    1.3046 H         1 <0>         0.1237
     54 H20        -0.7516   -1.9818    1.5769 H         1 <0>         0.1067
     55 H21        -1.7832   -0.8509    0.6369 H         1 <0>         0.0783
     56 H22        -1.3857   -0.4901    2.3511 H         1 <0>         0.0783
@<TRIPOS>BOND
     1    1    2 1
     2    1   36 1
     3    1   37 1
     4    1   38 1
     5    2   33 am
     6    2    3 1
     7    3    7 2
     8    3    4 1
     9    4    5 2
    10    4   30 1
    11    5    6 1
    12    5   24 1
    13    6   12 1
    14    6    7 1
    15    7    8 1
    16    8    9 1
    17    8   10 1
    18    8   17 1
    19   10   11 1
    20   10   39 1
    21   11   16 ar
    22   11   12 ar
    23   12   13 ar
    24   13   14 ar
    25   13   40 1
    26   14   15 ar
    27   14   41 1
    28   15   16 ar
    29   15   42 1
    30   16   43 1
    31   17   22 ar
    32   17   18 ar
    33   18   19 ar
    34   18   44 1
    35   19   20 ar
    36   19   45 1
    37   20   21 ar
    38   20   23 1
    39   21   22 ar
    40   21   46 1
    41   22   47 1
    42   23   48 1
    43   24   29 ar
    44   24   25 ar
    45   25   26 ar
    46   25   49 1
    47   26   27 ar
    48   26   50 1
    49   27   28 ar
    50   27   51 1
    51   28   29 ar
    52   28   52 1
    53   29   53 1
    54   30   31 2
    55   30   32 am
    56   32   33 am
    57   32   35 1
    58   33   34 2
    59   35   54 1
    60   35   55 1
    61   35   56 1
@<TRIPOS>MOLECULE
ZINC20898522
   56    61     0     0     0
SMALL
USER_CHARGES
(4-hydroxyphenyl)-dimethyl-phenyl-BLAHdione
@<TRIPOS>ATOM
      1 C1         -1.0942    4.2835    0.3092 C.3       1 <0>         0.0854
      2 N1         -1.8657    3.0405    0.3854 N.am      1 <0>        -0.5224
      3 C2         -1.3088    1.8107    0.0041 C.2       1 <0>         0.1184
      4 C3         -2.1420    0.5859    0.1048 C.2       1 <0>        -0.2655
      5 C4         -1.3579   -0.4567   -0.3225 C.2       1 <0>         0.2133
      6 N2         -0.1411    0.0544   -0.6533 N.pl3     1 <0>        -0.3630
      7 C5         -0.1291    1.4289   -0.4629 C.2       1 <0>        -0.0058
      8 C6          1.0922    2.2629   -0.7837 C.3       1 <0>         0.2814
      9 H1          1.2044    3.0957   -0.0738 H         1 <0>         0.1142
     10 N3          2.2723    1.3895   -0.6902 N.pl3     1 <0>        -0.7573
     11 C7          2.2080    0.0703   -1.1522 C.ar      1 <0>         0.2048
     12 C8          0.9956   -0.6269   -1.1124 C.ar      1 <0>         0.0614
     13 C9          0.9410   -1.9513   -1.5000 C.ar      1 <0>        -0.1007
     14 C10         2.0848   -2.5801   -1.9609 C.ar      1 <0>        -0.1394
     15 C11         3.2793   -1.8868   -2.0277 C.ar      1 <0>        -0.0792
     16 C12         3.3453   -0.5658   -1.6241 C.ar      1 <0>        -0.1620
     17 C13         0.9782    2.8184   -2.1799 C.ar      1 <0>        -0.1539
     18 C14         1.2895    2.0226   -3.2669 C.ar      1 <0>        -0.0515
     19 C15         1.1804    2.5276   -4.5480 C.ar      1 <0>        -0.1613
     20 C16         0.7692    3.8382   -4.7430 C.ar      1 <0>         0.1653
     21 C17         0.4628    4.6364   -3.6505 C.ar      1 <0>        -0.2120
     22 C18         0.5678    4.1248   -2.3716 C.ar      1 <0>        -0.0724
     23 O1          0.6672    4.3394   -6.0021 O.3       1 <0>        -0.5093
     24 C19        -1.7612   -1.8737   -0.4076 C.ar      1 <0>        -0.0528
     25 C20        -2.8592   -2.2451   -1.1874 C.ar      1 <0>        -0.0629
     26 C21        -3.2270   -3.5721   -1.2668 C.ar      1 <0>        -0.1181
     27 C22        -2.5182   -4.5330   -0.5675 C.ar      1 <0>        -0.0987
     28 C23        -1.4330   -4.1716    0.2114 C.ar      1 <0>        -0.1226
     29 C24        -1.0503   -2.8492    0.2957 C.ar      1 <0>        -0.0905
     30 C25        -3.5194    0.6956    0.5962 C.2       1 <0>         0.6015
     31 O2         -4.2515   -0.2705    0.6995 O.2       1 <0>        -0.4855
     32 N4         -3.9220    1.9498    0.9269 N.am      1 <0>        -0.5607
     33 C26        -3.1435    3.0313    0.8255 C.2       1 <0>         0.7101
     34 O3         -3.6256    4.0971    1.1569 O.2       1 <0>        -0.5534
     35 C27        -5.2885    2.1273    1.4242 C.3       1 <0>         0.0708
     36 H2         -0.0857    4.0663   -0.0725 H         1 <0>         0.0891
     37 H3         -1.0185    4.7301    1.3116 H         1 <0>         0.0807
     38 H4         -1.5991    4.9874   -0.3687 H         1 <0>         0.0800
     39 H5          3.2075    1.7732   -0.2565 H         1 <0>         0.4346
     40 H6          0.0092   -2.4944   -1.4439 H         1 <0>         0.1455
     41 H7          2.0441   -3.6144   -2.2692 H         1 <0>         0.1318
     42 H8          4.1660   -2.3798   -2.3979 H         1 <0>         0.1305
     43 H9          4.2819   -0.0307   -1.6761 H         1 <0>         0.1341
     44 H10         1.6145    1.0040   -3.1143 H         1 <0>         0.1255
     45 H11         1.4198    1.9043   -5.3969 H         1 <0>         0.1282
     46 H12         0.1422    5.6569   -3.7997 H         1 <0>         0.1299
     47 H13         0.3294    4.7458   -1.5208 H         1 <0>         0.1283
     48 H14         0.3411    5.3787   -6.1556 H         1 <0>         0.4354
     49 H15        -3.4163   -1.4956   -1.7299 H         1 <0>         0.1254
     50 H16        -4.0729   -3.8613   -1.8728 H         1 <0>         0.1301
     51 H17        -2.8131   -5.5701   -0.6301 H         1 <0>         0.1280
     52 H18        -0.8846   -4.9268    0.7548 H         1 <0>         0.1299
     53 H19        -0.2034   -2.5684    0.9042 H         1 <0>         0.1240
     54 H20        -5.4624    3.1904    1.6469 H         1 <0>         0.1068
     55 H21        -5.4254    1.5336    2.3400 H         1 <0>         0.0784
     56 H22        -6.0037    1.7912    0.6590 H         1 <0>         0.0783
@<TRIPOS>BOND
     1    1    2 1
     2    1   36 1
     3    1   37 1
     4    1   38 1
     5    2   33 am
     6    2    3 1
     7    3    7 2
     8    3    4 1
     9    4    5 2
    10    4   30 1
    11    5    6 1
    12    5   24 1
    13    6   12 1
    14    6    7 1
    15    7    8 1
    16    8    9 1
    17    8   10 1
    18    8   17 1
    19   10   11 1
    20   10   39 1
    21   11   16 ar
    22   11   12 ar
    23   12   13 ar
    24   13   14 ar
    25   13   40 1
    26   14   15 ar
    27   14   41 1
    28   15   16 ar
    29   15   42 1
    30   16   43 1
    31   17   22 ar
    32   17   18 ar
    33   18   19 ar
    34   18   44 1
    35   19   20 ar
    36   19   45 1
    37   20   21 ar
    38   20   23 1
    39   21   22 ar
    40   21   46 1
    41   22   47 1
    42   23   48 1
    43   24   29 ar
    44   24   25 ar
    45   25   26 ar
    46   25   49 1
    47   26   27 ar
    48   26   50 1
    49   27   28 ar
    50   27   51 1
    51   28   29 ar
    52   28   52 1
    53   29   53 1
    54   30   31 2
    55   30   32 am
    56   32   33 am
    57   32   35 1
    58   33   34 2
    59   35   54 1
    60   35   55 1
    61   35   56 1
@<TRIPOS>MOLECULE
ZINC21659037
   59    64     0     0     0
SMALL
USER_CHARGES
(4-hydroxyphenyl)-dimethyl-(m-tolyl)BLAHdione
@<TRIPOS>ATOM
      1 C1          2.7870    0.6983    2.8635 C.3       1 <0>        -0.1187
      2 C2          2.0503    0.5346    1.5591 C.ar      1 <0>        -0.0826
      3 C3          2.5843    1.0578    0.3943 C.ar      1 <0>        -0.1007
      4 C4          1.9146    0.9127   -0.8077 C.ar      1 <0>        -0.1177
      5 C5          0.7086    0.2446   -0.8529 C.ar      1 <0>        -0.0969
      6 C6          0.1637   -0.2860    0.3187 C.ar      1 <0>        -0.0478
      7 C7          0.8455   -0.1356    1.5289 C.ar      1 <0>        -0.0642
      8 C8         -1.1259   -1.0024    0.2783 C.2       1 <0>         0.2148
      9 C9         -2.2509   -0.6888    0.9997 C.2       1 <0>        -0.2668
     10 C10        -3.2814   -1.6930    0.6335 C.2       1 <0>         0.1193
     11 C11        -2.7166   -2.5142   -0.2393 C.2       1 <0>        -0.0046
     12 N1         -1.4138   -2.0967   -0.4759 N.pl3     1 <0>        -0.3634
     13 C12        -0.5857   -2.7816   -1.3769 C.ar      1 <0>         0.0605
     14 C13         0.7731   -2.5378   -1.4404 C.ar      1 <0>        -0.0989
     15 C14         1.5567   -3.2470   -2.3336 C.ar      1 <0>        -0.1397
     16 C15         0.9828   -4.1971   -3.1589 C.ar      1 <0>        -0.0791
     17 C16        -0.3767   -4.4419   -3.1047 C.ar      1 <0>        -0.1617
     18 C17        -1.1721   -3.7315   -2.2190 C.ar      1 <0>         0.2055
     19 N2         -2.5535   -3.9502   -2.1720 N.pl3     1 <0>        -0.7575
     20 C18        -3.2919   -3.7387   -0.9174 C.3       1 <0>         0.2840
     21 H1         -4.3588   -3.6023   -1.1479 H         1 <0>         0.1122
     22 C19        -3.1307   -4.9402   -0.0222 C.ar      1 <0>        -0.1509
     23 C20        -1.9071   -5.5785    0.0625 C.ar      1 <0>        -0.0521
     24 C21        -1.7553   -6.6768    0.8867 C.ar      1 <0>        -0.1608
     25 C22        -2.8349   -7.1462    1.6207 C.ar      1 <0>         0.1648
     26 C23        -4.0630   -6.5074    1.5296 C.ar      1 <0>        -0.2121
     27 C24        -4.2081   -5.4059    0.7087 C.ar      1 <0>        -0.0758
     28 O1         -2.6897   -8.2303    2.4273 O.3       1 <0>        -0.5093
     29 N3         -4.5506   -1.6053    1.2246 N.am      1 <0>        -0.5222
     30 C25        -4.7532   -0.6047    2.1101 C.2       1 <0>         0.7103
     31 O2         -5.8523   -0.5310    2.6247 O.2       1 <0>        -0.5537
     32 N4         -3.8502    0.3158    2.4614 N.am      1 <0>        -0.5607
     33 C26        -2.5853    0.3596    1.9689 C.2       1 <0>         0.6020
     34 O3         -1.7845    1.2101    2.3089 O.2       1 <0>        -0.4879
     35 C27        -4.2477    1.3364    3.4344 C.3       1 <0>         0.0758
     36 C28        -5.6080   -2.5682    0.9069 C.3       1 <0>         0.0683
     37 H2          3.7199    1.2549    2.6904 H         1 <0>         0.0685
     38 H3          3.0229   -0.2928    3.2782 H         1 <0>         0.0711
     39 H4          2.1559    1.2524    3.5740 H         1 <0>         0.0741
     40 H5          3.5282    1.5818    0.4238 H         1 <0>         0.1274
     41 H6          2.3370    1.3238   -1.7127 H         1 <0>         0.1298
     42 H7          0.1868    0.1324   -1.7918 H         1 <0>         0.1233
     43 H8          0.4278   -0.5395    2.4393 H         1 <0>         0.1249
     44 H9          1.2216   -1.7965   -0.7956 H         1 <0>         0.1444
     45 H10         2.6187   -3.0579   -2.3868 H         1 <0>         0.1315
     46 H11         1.6006   -4.7509   -3.8502 H         1 <0>         0.1303
     47 H12        -0.8185   -5.1852   -3.7518 H         1 <0>         0.1339
     48 H13        -3.0872   -4.2808   -3.0753 H         1 <0>         0.4341
     49 H14        -1.0683   -5.2158   -0.5130 H         1 <0>         0.1251
     50 H15        -0.7983   -7.1726    0.9557 H         1 <0>         0.1281
     51 H16        -4.9048   -6.8708    2.1003 H         1 <0>         0.1300
     52 H17        -5.1639   -4.9082    0.6374 H         1 <0>         0.1335
     53 H18        -3.5463   -8.6018    3.0089 H         1 <0>         0.4354
     54 H19        -3.4025    2.0158    3.6191 H         1 <0>         0.1014
     55 H20        -4.5402    0.8503    4.3768 H         1 <0>         0.0788
     56 H21        -5.0988    1.9094    3.0378 H         1 <0>         0.0789
     57 H22        -6.5152   -2.3177    1.4763 H         1 <0>         0.1071
     58 H23        -5.2743   -3.5812    1.1759 H         1 <0>         0.0842
     59 H24        -5.8284   -2.5286   -0.1701 H         1 <0>         0.0728
@<TRIPOS>BOND
     1    1    2 1
     2    1   37 1
     3    1   38 1
     4    1   39 1
     5    2    7 ar
     6    2    3 ar
     7    3    4 ar
     8    3   40 1
     9    4    5 ar
    10    4   41 1
    11    5    6 ar
    12    5   42 1
    13    6    7 ar
    14    6    8 1
    15    7   43 1
    16    8   12 1
    17    8    9 2
    18    9   33 1
    19    9   10 1
    20   10   11 2
    21   10   29 1
    22   11   20 1
    23   11   12 1
    24   12   13 1
    25   13   18 ar
    26   13   14 ar
    27   14   15 ar
    28   14   44 1
    29   15   16 ar
    30   15   45 1
    31   16   17 ar
    32   16   46 1
    33   17   18 ar
    34   17   47 1
    35   18   19 1
    36   19   20 1
    37   19   48 1
    38   20   21 1
    39   20   22 1
    40   22   27 ar
    41   22   23 ar
    42   23   24 ar
    43   23   49 1
    44   24   25 ar
    45   24   50 1
    46   25   26 ar
    47   25   28 1
    48   26   27 ar
    49   26   51 1
    50   27   52 1
    51   28   53 1
    52   29   30 am
    53   29   36 1
    54   30   31 2
    55   30   32 am
    56   32   33 am
    57   32   35 1
    58   33   34 2
    59   35   54 1
    60   35   55 1
    61   35   56 1
    62   36   57 1
    63   36   58 1
    64   36   59 1
@<TRIPOS>MOLECULE
ZINC21659039
   59    64     0     0     0
SMALL
USER_CHARGES
(4-hydroxyphenyl)-dimethyl-(m-tolyl)BLAHdione
@<TRIPOS>ATOM
      1 C1          1.4295    9.3464    2.4215 C.3       1 <0>        -0.1186
      2 C2          1.6231    7.8640    2.6108 C.ar      1 <0>        -0.0827
      3 C3          2.7826    7.3886    3.1982 C.ar      1 <0>        -0.1008
      4 C4          2.9685    6.0293    3.3769 C.ar      1 <0>        -0.1176
      5 C5          1.9958    5.1379    2.9740 C.ar      1 <0>        -0.0970
      6 C6          0.8253    5.6102    2.3757 C.ar      1 <0>        -0.0475
      7 C7          0.6442    6.9842    2.1989 C.ar      1 <0>        -0.0645
      8 C8         -0.2179    4.6626    1.9378 C.2       1 <0>         0.2136
      9 C9         -1.5274    4.6511    2.3492 C.2       1 <0>        -0.2663
     10 C10        -2.1861    3.5308    1.6310 C.2       1 <0>         0.1204
     11 C11        -1.2590    2.9745    0.8651 C.2       1 <0>        -0.0054
     12 N1         -0.0564    3.6420    1.0535 N.pl3     1 <0>        -0.3644
     13 C12         1.1047    3.2526    0.3700 C.ar      1 <0>         0.0607
     14 C13         2.2315    4.0521    0.3439 C.ar      1 <0>        -0.1007
     15 C14         3.3395    3.6526   -0.3823 C.ar      1 <0>        -0.1397
     16 C15         3.3199    2.4577   -1.0786 C.ar      1 <0>        -0.0803
     17 C16         2.1995    1.6485   -1.0488 C.ar      1 <0>        -0.1594
     18 C17         1.0868    2.0357   -0.3184 C.ar      1 <0>         0.2064
     19 N2         -0.0477    1.2181   -0.2631 N.pl3     1 <0>        -0.7576
     20 C18        -1.3819    1.8187   -0.1097 C.3       1 <0>         0.2842
     21 H1         -2.0813    1.0547    0.2607 H         1 <0>         0.1121
     22 C19        -1.8713    2.3206   -1.4436 C.ar      1 <0>        -0.1518
     23 C20        -3.1046    1.9184   -1.9221 C.ar      1 <0>        -0.0661
     24 C21        -3.5581    2.3816   -3.1421 C.ar      1 <0>        -0.1611
     25 C22        -2.7699    3.2421   -3.8924 C.ar      1 <0>         0.1661
     26 C23        -1.5304    3.6397   -3.4127 C.ar      1 <0>        -0.2136
     27 C24        -1.0840    3.1781   -2.1896 C.ar      1 <0>        -0.0503
     28 O1         -3.2115    3.6951   -5.0952 O.3       1 <0>        -0.5091
     29 N3         -3.5468    3.2842    1.8666 N.am      1 <0>        -0.5226
     30 C25        -4.1803    4.0953    2.7425 C.2       1 <0>         0.7101
     31 O2         -5.3600    3.8821    2.9454 O.2       1 <0>        -0.5529
     32 N4         -3.6196    5.1117    3.4049 N.am      1 <0>        -0.5606
     33 C26        -2.3149    5.4670    3.2790 C.2       1 <0>         0.6019
     34 O3         -1.8321    6.3977    3.8963 O.2       1 <0>        -0.4883
     35 C27        -4.4613    5.8882    4.3185 C.3       1 <0>         0.0758
     36 C28        -4.2520    2.1920    1.1913 C.3       1 <0>         0.0787
     37 H2          2.3085    9.8832    2.8078 H         1 <0>         0.0685
     38 H3          0.5318    9.6716    2.9678 H         1 <0>         0.0742
     39 H4          1.3069    9.5664    1.3507 H         1 <0>         0.0709
     40 H5          3.5459    8.0821    3.5190 H         1 <0>         0.1274
     41 H6          3.8758    5.6653    3.8360 H         1 <0>         0.1298
     42 H7          2.1403    4.0774    3.1178 H         1 <0>         0.1233
     43 H8         -0.2600    7.3565    1.7403 H         1 <0>         0.1248
     44 H9          2.2474    4.9847    0.8884 H         1 <0>         0.1445
     45 H10         4.2215    4.2755   -0.4057 H         1 <0>         0.1312
     46 H11         4.1856    2.1548   -1.6490 H         1 <0>         0.1298
     47 H12         2.1911    0.7162   -1.5941 H         1 <0>         0.1332
     48 H13         0.0588    0.1256   -0.3344 H         1 <0>         0.4333
     49 H14        -3.7159    1.2450   -1.3396 H         1 <0>         0.1316
     50 H15        -4.5234    2.0706   -3.5134 H         1 <0>         0.1319
     51 H16        -0.9149    4.3092   -3.9952 H         1 <0>         0.1259
     52 H17        -0.1189    3.4871   -1.8158 H         1 <0>         0.1175
     53 H18        -2.5858    4.3774   -5.6894 H         1 <0>         0.4354
     54 H19        -3.8604    6.6831    4.7844 H         1 <0>         0.1013
     55 H20        -4.8623    5.2259    5.0999 H         1 <0>         0.0790
     56 H21        -5.2932    6.3386    3.7572 H         1 <0>         0.0789
     57 H22        -5.3023    2.1765    1.5178 H         1 <0>         0.1070
     58 H23        -3.7746    1.2343    1.4463 H         1 <0>         0.0720
     59 H24        -4.2085    2.3451    0.1029 H         1 <0>         0.0777
@<TRIPOS>BOND
     1    1    2 1
     2    1   37 1
     3    1   38 1
     4    1   39 1
     5    2    7 ar
     6    2    3 ar
     7    3    4 ar
     8    3   40 1
     9    4    5 ar
    10    4   41 1
    11    5    6 ar
    12    5   42 1
    13    6    7 ar
    14    6    8 1
    15    7   43 1
    16    8   12 1
    17    8    9 2
    18    9   33 1
    19    9   10 1
    20   10   11 2
    21   10   29 1
    22   11   20 1
    23   11   12 1
    24   12   13 1
    25   13   18 ar
    26   13   14 ar
    27   14   15 ar
    28   14   44 1
    29   15   16 ar
    30   15   45 1
    31   16   17 ar
    32   16   46 1
    33   17   18 ar
    34   17   47 1
    35   18   19 1
    36   19   20 1
    37   19   48 1
    38   20   21 1
    39   20   22 1
    40   22   27 ar
    41   22   23 ar
    42   23   24 ar
    43   23   49 1
    44   24   25 ar
    45   24   50 1
    46   25   26 ar
    47   25   28 1
    48   26   27 ar
    49   26   51 1
    50   27   52 1
    51   28   53 1
    52   29   30 am
    53   29   36 1
    54   30   31 2
    55   30   32 am
    56   32   33 am
    57   32   35 1
    58   33   34 2
    59   35   54 1
    60   35   55 1
    61   35   56 1
    62   36   57 1
    63   36   58 1
    64   36   59 1
@<TRIPOS>MOLECULE
ZINC15834209
   62    67     0     0     0
SMALL
USER_CHARGES
(3-methoxyphenyl)-dimethyl-(m-tolyl)BLAHdione
@<TRIPOS>ATOM
      1 C1          6.5000    2.5017    1.9372 C.3       1 <0>        -0.1160
      2 C2          5.7320    1.5208    1.0892 C.ar      1 <0>        -0.0832
      3 C3          6.4113    0.5752    0.3409 C.ar      1 <0>        -0.1003
      4 C4          5.7145   -0.3290   -0.4408 C.ar      1 <0>        -0.1176
      5 C5          4.3360   -0.2935   -0.4797 C.ar      1 <0>        -0.0967
      6 C6          3.6438    0.6580    0.2730 C.ar      1 <0>        -0.0486
      7 C7          4.3543    1.5711    1.0564 C.ar      1 <0>        -0.0632
      8 C8          2.1692    0.7025    0.2363 C.2       1 <0>         0.2159
      9 C9          1.3987    1.7783   -0.1292 C.2       1 <0>        -0.2653
     10 C10        -0.0165    1.3482    0.0000 C.2       1 <0>         0.1235
     11 C11         0.0062    0.0922    0.4215 C.2       1 <0>        -0.0089
     12 N1          1.3256   -0.3151    0.5581 N.pl3     1 <0>        -0.3638
     13 C12         1.6470   -1.6189    0.9618 C.ar      1 <0>         0.0676
     14 C13         2.9307   -1.9635    1.3393 C.ar      1 <0>        -0.1010
     15 C14         3.1939   -3.2473    1.7834 C.ar      1 <0>        -0.1352
     16 C15         2.1763   -4.1818    1.8493 C.ar      1 <0>        -0.0808
     17 C16         0.8920   -3.8464    1.4634 C.ar      1 <0>        -0.1568
     18 C17         0.6192   -2.5657    1.0083 C.ar      1 <0>         0.1985
     19 N2         -0.6712   -2.2182    0.5935 N.pl3     1 <0>        -0.7452
     20 C18        -1.1472   -0.8342    0.7406 C.3       1 <0>         0.2760
     21 H1         -1.9691   -0.6515    0.0484 H         1 <0>         0.1164
     22 C19        -1.6105   -0.6024    2.1558 C.ar      1 <0>        -0.0682
     23 C20        -0.9161   -1.1653    3.2110 C.ar      1 <0>        -0.1331
     24 C21        -1.3380   -0.9538    4.5104 C.ar      1 <0>        -0.0768
     25 C22        -2.4551   -0.1792    4.7578 C.ar      1 <0>        -0.2014
     26 C23        -3.1536    0.3861    3.7011 C.ar      1 <0>         0.1311
     27 C24        -2.7250    0.1766    2.3981 C.ar      1 <0>        -0.1471
     28 O1         -4.2523    1.1488    3.9419 O.3       1 <0>        -0.3157
     29 C25        -4.6317    1.3268    5.3081 C.3       1 <0>         0.0267
     30 N3         -1.0323    2.2639   -0.3126 N.am      1 <0>        -0.5232
     31 C26        -0.6518    3.4944   -0.7224 C.2       1 <0>         0.7100
     32 O2         -1.5324    4.2868   -0.9959 O.2       1 <0>        -0.5516
     33 N4          0.6105    3.9150   -0.8486 N.am      1 <0>        -0.5609
     34 C27         1.6944    3.1419   -0.5805 C.2       1 <0>         0.6018
     35 O3          2.8328    3.5526   -0.7058 O.2       1 <0>        -0.4863
     36 C28         0.8380    5.2891   -1.3028 C.3       1 <0>         0.0781
     37 C29        -2.4472    1.9003   -0.2028 C.3       1 <0>         0.0866
     38 H2          6.7236    3.3924    1.3500 H         1 <0>         0.0748
     39 H3          5.9010    2.7792    2.8045 H         1 <0>         0.0672
     40 H4          7.4310    2.0430    2.2704 H         1 <0>         0.0689
     41 H5          7.4905    0.5433    0.3669 H         1 <0>         0.1276
     42 H6          6.2510   -1.0641   -1.0223 H         1 <0>         0.1301
     43 H7          3.7933   -0.9995   -1.0908 H         1 <0>         0.1238
     44 H8          3.8256    2.3120    1.6377 H         1 <0>         0.1252
     45 H9          3.7253   -1.2339    1.2879 H         1 <0>         0.1459
     46 H10         4.1960   -3.5202    2.0796 H         1 <0>         0.1325
     47 H11         2.3865   -5.1797    2.2047 H         1 <0>         0.1314
     48 H12         0.1022   -4.5812    1.5162 H         1 <0>         0.1346
     49 H13        -1.2532   -2.8915    0.2076 H         1 <0>         0.4132
     50 H14        -0.0425   -1.7708    3.0197 H         1 <0>         0.1226
     51 H15        -0.7938   -1.3941    5.3328 H         1 <0>         0.1260
     52 H16        -2.7839   -0.0137    5.7731 H         1 <0>         0.1296
     53 H17        -3.2643    0.6196    1.5740 H         1 <0>         0.1358
     54 H18        -5.5216    1.9542    5.3592 H         1 <0>         0.1027
     55 H19        -4.8453    0.3561    5.7553 H         1 <0>         0.0565
     56 H20        -3.8176    1.8062    5.8517 H         1 <0>         0.0561
     57 H21         0.9045    5.3059   -2.3906 H         1 <0>         0.0721
     58 H22         0.0103    5.9203   -0.9796 H         1 <0>         0.0942
     59 H23         1.7685    5.6634   -0.8760 H         1 <0>         0.0910
     60 H24        -2.7999    2.1132    0.8063 H         1 <0>         0.0769
     61 H25        -3.0280    2.4798   -0.9205 H         1 <0>         0.0977
     62 H26        -2.5665    0.8374   -0.4127 H         1 <0>         0.0782
@<TRIPOS>BOND
     1    1    2 1
     2    1   38 1
     3    1   39 1
     4    1   40 1
     5    2    7 ar
     6    2    3 ar
     7    3    4 ar
     8    3   41 1
     9    4    5 ar
    10    4   42 1
    11    5    6 ar
    12    5   43 1
    13    6    7 ar
    14    6    8 1
    15    7   44 1
    16    8   12 1
    17    8    9 2
    18    9   34 1
    19    9   10 1
    20   10   11 2
    21   10   30 1
    22   11   20 1
    23   11   12 1
    24   12   13 1
    25   13   18 ar
    26   13   14 ar
    27   14   15 ar
    28   14   45 1
    29   15   16 ar
    30   15   46 1
    31   16   17 ar
    32   16   47 1
    33   17   18 ar
    34   17   48 1
    35   18   19 1
    36   19   20 1
    37   19   49 1
    38   20   21 1
    39   20   22 1
    40   22   27 ar
    41   22   23 ar
    42   23   24 ar
    43   23   50 1
    44   24   25 ar
    45   24   51 1
    46   25   26 ar
    47   25   52 1
    48   26   27 ar
    49   26   28 1
    50   27   53 1
    51   28   29 1
    52   29   54 1
    53   29   55 1
    54   29   56 1
    55   30   31 am
    56   30   37 1
    57   31   32 2
    58   31   33 am
    59   33   34 am
    60   33   36 1
    61   34   35 2
    62   36   57 1
    63   36   58 1
    64   36   59 1
    65   37   60 1
    66   37   61 1
    67   37   62 1
@<TRIPOS>MOLECULE
ZINC15834212
   62    67     0     0     0
SMALL
USER_CHARGES
(3-methoxyphenyl)-dimethyl-(m-tolyl)BLAHdione
@<TRIPOS>ATOM
      1 C1          5.2472   -4.3158   -1.0511 C.3       1 <0>        -0.1159
      2 C2          3.9539   -4.3515   -0.2783 C.ar      1 <0>        -0.0831
      3 C3          3.6583   -5.4407    0.5228 C.ar      1 <0>        -0.1004
      4 C4          2.4735   -5.4818    1.2362 C.ar      1 <0>        -0.1177
      5 C5          1.5802   -4.4336    1.1571 C.ar      1 <0>        -0.0967
      6 C6          1.8691   -3.3340    0.3456 C.ar      1 <0>        -0.0486
      7 C7          3.0676   -3.2991   -0.3715 C.ar      1 <0>        -0.0631
      8 C8          0.9156   -2.2117    0.2510 C.2       1 <0>         0.2166
      9 C9          1.1766   -0.8979    0.5514 C.2       1 <0>        -0.2659
     10 C10        -0.0796   -0.1484    0.2969 C.2       1 <0>         0.1226
     11 C11        -0.9677   -1.0327   -0.1332 C.2       1 <0>        -0.0095
     12 N1         -0.3820   -2.2906   -0.1503 N.pl3     1 <0>        -0.3640
     13 C12        -1.1098   -3.4276   -0.5318 C.ar      1 <0>         0.0660
     14 C13        -0.4866   -4.6344   -0.7863 C.ar      1 <0>        -0.1012
     15 C14        -1.2350   -5.7167   -1.2142 C.ar      1 <0>        -0.1346
     16 C15        -2.6019   -5.5917   -1.3850 C.ar      1 <0>        -0.0800
     17 C16        -3.2332   -4.3906   -1.1213 C.ar      1 <0>        -0.1546
     18 C17        -2.4941   -3.3024   -0.6839 C.ar      1 <0>         0.1989
     19 N2         -3.1232   -2.0871   -0.3918 N.pl3     1 <0>        -0.7450
     20 C18        -2.4004   -0.8187   -0.5714 C.3       1 <0>         0.2767
     21 H1         -2.8607   -0.0423    0.0396 H         1 <0>         0.1163
     22 C19        -2.4343   -0.4125   -2.0222 C.ar      1 <0>        -0.0699
     23 C20        -2.9000    0.8401   -2.3782 C.ar      1 <0>        -0.1494
     24 C21        -2.9324    1.2158   -3.7082 C.ar      1 <0>        -0.0746
     25 C22        -2.4994    0.3401   -4.6854 C.ar      1 <0>        -0.2016
     26 C23        -2.0315   -0.9166   -4.3309 C.ar      1 <0>         0.1311
     27 C24        -1.9950   -1.2893   -2.9948 C.ar      1 <0>        -0.1251
     28 O1         -1.6055   -1.7798   -5.2902 O.3       1 <0>        -0.3155
     29 C25        -1.6674   -1.3271   -6.6441 C.3       1 <0>         0.0264
     30 N3         -0.0994    1.2354    0.5262 N.am      1 <0>        -0.5226
     31 C26         1.0429    1.8057    0.9692 C.2       1 <0>         0.7100
     32 O2          1.0253    3.0051    1.1682 O.2       1 <0>        -0.5531
     33 N4          2.1903    1.1629    1.2068 N.am      1 <0>        -0.5610
     34 C27         2.3577   -0.1734    1.0315 C.2       1 <0>         0.6018
     35 O3          3.4153   -0.7311    1.2569 O.2       1 <0>        -0.4862
     36 C28         3.3336    1.9450    1.6837 C.3       1 <0>         0.0780
     37 C29        -1.3069    2.0305    0.2894 C.3       1 <0>         0.0810
     38 H2          6.0211   -3.8477   -0.4428 H         1 <0>         0.0747
     39 H3          5.5484   -5.3327   -1.3027 H         1 <0>         0.0689
     40 H4          5.1076   -3.7412   -1.9667 H         1 <0>         0.0672
     41 H5          4.3559   -6.2622    0.5918 H         1 <0>         0.1275
     42 H6          2.2496   -6.3346    1.8600 H         1 <0>         0.1301
     43 H7          0.6576   -4.4652    1.7177 H         1 <0>         0.1239
     44 H8          3.2993   -2.4502   -0.9976 H         1 <0>         0.1251
     45 H9          0.5806   -4.7323   -0.6520 H         1 <0>         0.1460
     46 H10        -0.7510   -6.6611   -1.4149 H         1 <0>         0.1325
     47 H11        -3.1795   -6.4377   -1.7270 H         1 <0>         0.1311
     48 H12        -4.3010   -4.3000   -1.2561 H         1 <0>         0.1337
     49 H13        -4.0384   -2.0811   -0.0704 H         1 <0>         0.4125
     50 H14        -3.2392    1.5258   -1.6159 H         1 <0>         0.1295
     51 H15        -3.2968    2.1944   -3.9837 H         1 <0>         0.1302
     52 H16        -2.5250    0.6341   -5.7243 H         1 <0>         0.1302
     53 H17        -1.6273   -2.2657   -2.7159 H         1 <0>         0.1257
     54 H18        -1.2989   -2.1105   -7.3064 H         1 <0>         0.1022
     55 H19        -2.6998   -1.0899   -6.9011 H         1 <0>         0.0567
     56 H20        -1.0507   -0.4355   -6.7577 H         1 <0>         0.0563
     57 H21         3.9100    2.3031    0.8307 H         1 <0>         0.0720
     58 H22         2.9754    2.7960    2.2631 H         1 <0>         0.0941
     59 H23         3.9660    1.3180    2.3121 H         1 <0>         0.0911
     60 H24        -1.9499    1.9853    1.1684 H         1 <0>         0.0698
     61 H25        -1.0278    3.0663    0.0962 H         1 <0>         0.0982
     62 H26        -1.8414    1.6314   -0.5727 H         1 <0>         0.0850
@<TRIPOS>BOND
     1    1    2 1
     2    1   38 1
     3    1   39 1
     4    1   40 1
     5    2    7 ar
     6    2    3 ar
     7    3    4 ar
     8    3   41 1
     9    4    5 ar
    10    4   42 1
    11    5    6 ar
    12    5   43 1
    13    6    7 ar
    14    6    8 1
    15    7   44 1
    16    8   12 1
    17    8    9 2
    18    9   34 1
    19    9   10 1
    20   10   11 2
    21   10   30 1
    22   11   20 1
    23   11   12 1
    24   12   13 1
    25   13   18 ar
    26   13   14 ar
    27   14   15 ar
    28   14   45 1
    29   15   16 ar
    30   15   46 1
    31   16   17 ar
    32   16   47 1
    33   17   18 ar
    34   17   48 1
    35   18   19 1
    36   19   20 1
    37   19   49 1
    38   20   21 1
    39   20   22 1
    40   22   27 ar
    41   22   23 ar
    42   23   24 ar
    43   23   50 1
    44   24   25 ar
    45   24   51 1
    46   25   26 ar
    47   25   52 1
    48   26   27 ar
    49   26   28 1
    50   27   53 1
    51   28   29 1
    52   29   54 1
    53   29   55 1
    54   29   56 1
    55   30   31 am
    56   30   37 1
    57   31   32 2
    58   31   33 am
    59   33   34 am
    60   33   36 1
    61   34   35 2
    62   36   57 1
    63   36   58 1
    64   36   59 1
    65   37   60 1
    66   37   61 1
    67   37   62 1
@<TRIPOS>MOLECULE
ZINC21659241
   59    64     0     0     0
SMALL
USER_CHARGES
(2-fluorophenyl)-(3-methoxyphenyl)-dimethyl-BLAHdione
@<TRIPOS>ATOM
      1 C1          6.5689   -1.1771    1.0420 C.3       1 <0>         0.0853
      2 N1          5.3458   -0.5048    1.4875 N.am      1 <0>        -0.5220
      3 C2          4.3832   -0.0567    0.5706 C.2       1 <0>         0.1236
      4 C3          3.1663    0.6213    1.0852 C.2       1 <0>        -0.2574
      5 C4          2.4049    0.9428   -0.0111 C.2       1 <0>         0.2084
      6 N2          3.0732    0.5140   -1.1149 N.pl3     1 <0>        -0.3587
      7 C5          4.2766   -0.0757   -0.7494 C.2       1 <0>        -0.0066
      8 C6          5.2435   -0.6100   -1.7838 C.3       1 <0>         0.2772
      9 H1          5.7522   -1.5165   -1.4238 H         1 <0>         0.1187
     10 N3          4.4747   -0.9409   -2.9935 N.pl3     1 <0>        -0.7558
     11 C7          3.4258   -0.1119   -3.4072 C.ar      1 <0>         0.2069
     12 C8          2.6972    0.6176   -2.4621 C.ar      1 <0>         0.0635
     13 C9          1.6434    1.4173   -2.8600 C.ar      1 <0>        -0.0955
     14 C10         1.3185    1.5069   -4.2026 C.ar      1 <0>        -0.1379
     15 C11         2.0465    0.8002   -5.1419 C.ar      1 <0>        -0.0788
     16 C12         3.0973   -0.0086   -4.7496 C.ar      1 <0>        -0.1588
     17 C13         6.2764    0.4390   -2.1059 C.ar      1 <0>        -0.0708
     18 C14         5.9689    1.4661   -2.9793 C.ar      1 <0>        -0.1322
     19 C15         6.9143    2.4300   -3.2768 C.ar      1 <0>        -0.0763
     20 C16         8.1691    2.3692   -2.7018 C.ar      1 <0>        -0.2011
     21 C17         8.4799    1.3402   -1.8251 C.ar      1 <0>         0.1320
     22 C18         7.5276    0.3770   -1.5240 C.ar      1 <0>        -0.1484
     23 O1          9.7136    1.2780   -1.2586 O.3       1 <0>        -0.3153
     24 C19        10.6419    2.3057   -1.6109 C.3       1 <0>         0.0232
     25 C20         1.1014    1.6335    0.0052 C.ar      1 <0>        -0.0785
     26 C21        -0.0828    0.8967    0.0855 C.ar      1 <0>        -0.0544
     27 C22        -1.2979    1.5485    0.0949 C.ar      1 <0>        -0.1264
     28 C23        -1.3473    2.9307    0.0367 C.ar      1 <0>        -0.0712
     29 C24        -0.1805    3.6689   -0.0430 C.ar      1 <0>        -0.1536
     30 C25         1.0449    3.0299   -0.0593 C.ar      1 <0>         0.1290
     31 F1          2.1844    3.7514   -0.1376 F         1 <0>        -0.1287
     32 C26         3.0008    0.7944    2.5315 C.2       1 <0>         0.6021
     33 O2          2.0248    1.3379    3.0137 O.2       1 <0>        -0.4865
     34 N4          4.0142    0.3119    3.2960 N.am      1 <0>        -0.5601
     35 C27         5.0986   -0.2903    2.7988 C.2       1 <0>         0.7099
     36 O3          5.9336   -0.6777    3.5932 O.2       1 <0>        -0.5509
     37 C28         3.9125    0.4597    4.7500 C.3       1 <0>         0.0706
     38 H2          6.5693   -1.2480   -0.0557 H         1 <0>         0.0885
     39 H3          6.6103   -2.1876    1.4747 H         1 <0>         0.0816
     40 H4          7.4454   -0.6005    1.3725 H         1 <0>         0.0826
     41 H5          4.7239   -1.8411   -3.5745 H         1 <0>         0.4362
     42 H6          1.0754    1.9703   -2.1266 H         1 <0>         0.1333
     43 H7          0.4948    2.1306   -4.5171 H         1 <0>         0.1323
     44 H8          1.7926    0.8800   -6.1886 H         1 <0>         0.1316
     45 H9          3.6610   -0.5592   -5.4882 H         1 <0>         0.1353
     46 H10         4.9887    1.5152   -3.4300 H         1 <0>         0.1222
     47 H11         6.6718    3.2309   -3.9595 H         1 <0>         0.1259
     48 H12         8.9073    3.1224   -2.9346 H         1 <0>         0.1297
     49 H13         7.7658   -0.4228   -0.8385 H         1 <0>         0.1355
     50 H14        11.5934    2.1360   -1.0858 H         1 <0>         0.1043
     51 H15        10.2326    3.2847   -1.3209 H         1 <0>         0.0570
     52 H16        10.8142    2.2875   -2.6972 H         1 <0>         0.0574
     53 H17        -0.0468   -0.1816    0.1356 H         1 <0>         0.1353
     54 H18        -2.2138    0.9791    0.1521 H         1 <0>         0.1384
     55 H19        -2.3022    3.4351    0.0490 H         1 <0>         0.1398
     56 H20        -0.2270    4.7467   -0.0930 H         1 <0>         0.1435
     57 H21         4.8028    0.0231    5.2261 H         1 <0>         0.1076
     58 H22         3.0123   -0.0604    5.1093 H         1 <0>         0.0788
     59 H23         3.8460    1.5274    5.0062 H         1 <0>         0.0784
@<TRIPOS>BOND
     1    1    2 1
     2    1   38 1
     3    1   39 1
     4    1   40 1
     5    2   35 am
     6    2    3 1
     7    3    7 2
     8    3    4 1
     9    4    5 2
    10    4   32 1
    11    5    6 1
    12    5   25 1
    13    6   12 1
    14    6    7 1
    15    7    8 1
    16    8    9 1
    17    8   10 1
    18    8   17 1
    19   10   11 1
    20   10   41 1
    21   11   16 ar
    22   11   12 ar
    23   12   13 ar
    24   13   14 ar
    25   13   42 1
    26   14   15 ar
    27   14   43 1
    28   15   16 ar
    29   15   44 1
    30   16   45 1
    31   17   22 ar
    32   17   18 ar
    33   18   19 ar
    34   18   46 1
    35   19   20 ar
    36   19   47 1
    37   20   21 ar
    38   20   48 1
    39   21   22 ar
    40   21   23 1
    41   22   49 1
    42   23   24 1
    43   24   50 1
    44   24   51 1
    45   24   52 1
    46   25   30 ar
    47   25   26 ar
    48   26   27 ar
    49   26   53 1
    50   27   28 ar
    51   27   54 1
    52   28   29 ar
    53   28   55 1
    54   29   30 ar
    55   29   56 1
    56   30   31 1
    57   32   33 2
    58   32   34 am
    59   34   35 am
    60   34   37 1
    61   35   36 2
    62   37   57 1
    63   37   58 1
    64   37   59 1
@<TRIPOS>MOLECULE
ZINC21659242
   59    64     0     0     0
SMALL
USER_CHARGES
(2-fluorophenyl)-(3-methoxyphenyl)-dimethyl-BLAHdione
@<TRIPOS>ATOM
      1 C1          6.4032    6.2450    1.0156 C.3       1 <0>         0.0897
      2 N1          5.1448    5.6276    1.4415 N.am      1 <0>        -0.5223
      3 C2          4.2117    5.1522    0.5078 C.2       1 <0>         0.1228
      4 C3          2.9505    4.5439    1.0029 C.2       1 <0>        -0.2579
      5 C4          2.2350    4.1697   -0.1075 C.2       1 <0>         0.2089
      6 N2          2.9614    4.5222   -1.2018 N.pl3     1 <0>        -0.3585
      7 C5          4.1616    5.1047   -0.8148 C.2       1 <0>        -0.0073
      8 C6          5.1862    5.5589   -1.8317 C.3       1 <0>         0.2769
      9 H1          5.7007    6.4723   -1.4985 H         1 <0>         0.1188
     10 N3          4.4802    5.8387   -3.0916 N.pl3     1 <0>        -0.7560
     11 C7          3.4298    5.0125   -3.5067 C.ar      1 <0>         0.2076
     12 C8          2.6419    4.3536   -2.5569 C.ar      1 <0>         0.0615
     13 C9          1.5860    3.5584   -2.9587 C.ar      1 <0>        -0.0979
     14 C10         1.3184    3.4020   -4.3077 C.ar      1 <0>        -0.1377
     15 C11         2.1047    4.0386   -5.2502 C.ar      1 <0>        -0.0782
     16 C12         3.1580    4.8429   -4.8550 C.ar      1 <0>        -0.1568
     17 C13         6.2055    4.4704   -2.0494 C.ar      1 <0>        -0.0706
     18 C14         7.5265    4.6807   -1.6983 C.ar      1 <0>        -0.1467
     19 C15         8.4638    3.6839   -1.8959 C.ar      1 <0>        -0.0753
     20 C16         8.0827    2.4747   -2.4450 C.ar      1 <0>        -0.2016
     21 C17         6.7584    2.2614   -2.7984 C.ar      1 <0>         0.1302
     22 C18         5.8186    3.2616   -2.5942 C.ar      1 <0>        -0.1256
     23 O1          6.3809    1.0727   -3.3381 O.3       1 <0>        -0.3157
     24 C19         7.4005    0.0869   -3.5136 C.3       1 <0>         0.0232
     25 C20         0.9152    3.5108   -0.1127 C.ar      1 <0>        -0.0786
     26 C21         0.8264    2.1165   -0.1052 C.ar      1 <0>        -0.0598
     27 C22        -0.4105    1.5071   -0.1105 C.ar      1 <0>        -0.1273
     28 C23        -1.5639    2.2723   -0.1287 C.ar      1 <0>        -0.0712
     29 C24        -1.4864    3.6531   -0.1309 C.ar      1 <0>        -0.1523
     30 C25        -0.2541    4.2788   -0.1257 C.ar      1 <0>         0.1341
     31 F1         -0.1789    5.6277   -0.1335 F         1 <0>        -0.1291
     32 C26         2.7169    4.4564    2.4476 C.2       1 <0>         0.6022
     33 O2          1.7056    3.9664    2.9139 O.2       1 <0>        -0.4864
     34 N4          3.7063    4.9602    3.2298 N.am      1 <0>        -0.5603
     35 C27         4.8283    5.5054    2.7499 C.2       1 <0>         0.7102
     36 O3          5.6358    5.9198    3.5588 O.2       1 <0>        -0.5520
     37 C28         3.5341    4.9022    4.6834 C.3       1 <0>         0.0707
     38 H2          6.4593    6.2428   -0.0830 H         1 <0>         0.0861
     39 H3          7.2491    5.6748    1.4271 H         1 <0>         0.0810
     40 H4          6.4461    7.2810    1.3829 H         1 <0>         0.0797
     41 H5          4.7777    6.6988   -3.7095 H         1 <0>         0.4352
     42 H6          0.9720    3.0604   -2.2229 H         1 <0>         0.1368
     43 H7          0.4933    2.7815   -4.6248 H         1 <0>         0.1323
     44 H8          1.8948    3.9071   -6.3014 H         1 <0>         0.1312
     45 H9          3.7682    5.3378   -5.5961 H         1 <0>         0.1343
     46 H10         7.8263    5.6252   -1.2687 H         1 <0>         0.1270
     47 H11         9.4947    3.8505   -1.6206 H         1 <0>         0.1297
     48 H12         8.8151    1.6960   -2.5985 H         1 <0>         0.1298
     49 H13         4.7860    3.0963   -2.8641 H         1 <0>         0.1251
     50 H14         6.9618   -0.8196   -3.9560 H         1 <0>         0.1035
     51 H15         7.8444   -0.1592   -2.5377 H         1 <0>         0.0571
     52 H16         8.1801    0.4808   -4.1822 H         1 <0>         0.0574
     53 H17         1.7248    1.5172   -0.0955 H         1 <0>         0.1361
     54 H18        -0.4796    0.4294   -0.1050 H         1 <0>         0.1387
     55 H19        -2.5295    1.7885   -0.1370 H         1 <0>         0.1398
     56 H20        -2.3907    4.2436   -0.1410 H         1 <0>         0.1432
     57 H21         4.4127    5.3458    5.1747 H         1 <0>         0.1074
     58 H22         3.4282    3.8536    4.9985 H         1 <0>         0.0785
     59 H23         2.6321    5.4636    4.9684 H         1 <0>         0.0785
@<TRIPOS>BOND
     1    1    2 1
     2    1   38 1
     3    1   39 1
     4    1   40 1
     5    2   35 am
     6    2    3 1
     7    3    7 2
     8    3    4 1
     9    4    5 2
    10    4   32 1
    11    5    6 1
    12    5   25 1
    13    6   12 1
    14    6    7 1
    15    7    8 1
    16    8    9 1
    17    8   10 1
    18    8   17 1
    19   10   11 1
    20   10   41 1
    21   11   16 ar
    22   11   12 ar
    23   12   13 ar
    24   13   14 ar
    25   13   42 1
    26   14   15 ar
    27   14   43 1
    28   15   16 ar
    29   15   44 1
    30   16   45 1
    31   17   22 ar
    32   17   18 ar
    33   18   19 ar
    34   18   46 1
    35   19   20 ar
    36   19   47 1
    37   20   21 ar
    38   20   48 1
    39   21   22 ar
    40   21   23 1
    41   22   49 1
    42   23   24 1
    43   24   50 1
    44   24   51 1
    45   24   52 1
    46   25   30 ar
    47   25   26 ar
    48   26   27 ar
    49   26   53 1
    50   27   28 ar
    51   27   54 1
    52   28   29 ar
    53   28   55 1
    54   29   30 ar
    55   29   56 1
    56   30   31 1
    57   32   33 2
    58   32   34 am
    59   34   35 am
    60   34   37 1
    61   35   36 2
    62   37   57 1
    63   37   58 1
    64   37   59 1
@<TRIPOS>MOLECULE
ZINC01210209
   39    41     0     0     0
SMALL
USER_CHARGES
4-[[3-(2,3-dimethylphenyl)-4-oxo-2-thioxo-thiazolidin-5-ylidene]methyl]benzoic acid
@<TRIPOS>ATOM
      1 C1         -5.0965    0.5252   -1.2169 C.3       1 <0>        -0.1150
      2 C2         -4.3982    1.1317   -0.0271 C.ar      1 <0>        -0.0795
      3 C3         -5.0427    1.1926    1.1950 C.ar      1 <0>        -0.0969
      4 C4         -4.4054    1.7482    2.2890 C.ar      1 <0>        -0.1110
      5 C5         -3.1220    2.2437    2.1643 C.ar      1 <0>        -0.0879
      6 C6         -2.4722    2.1836    0.9390 C.ar      1 <0>         0.1005
      7 C7         -3.1173    1.6305   -0.1594 C.ar      1 <0>        -0.0501
      8 C8         -2.4180    1.5694   -1.4929 C.3       1 <0>        -0.1207
      9 N1         -1.1703    2.6852    0.8093 N.am      1 <0>        -0.4763
     10 C9         -0.9970    3.9534    0.4768 C.2       1 <0>         0.5476
     11 O1         -1.9387    4.6981    0.2806 O.2       1 <0>        -0.4569
     12 C10         0.4034    4.4179    0.3499 C.2       1 <0>        -0.2756
     13 C11         0.8815    5.6444    0.0228 C.2       1 <0>         0.1210
     14 C12         2.3208    5.9221    0.1218 C.ar      1 <0>        -0.1270
     15 C13         3.1745    4.9903    0.7256 C.ar      1 <0>        -0.0890
     16 C14         4.5131    5.2472    0.8119 C.ar      1 <0>        -0.0803
     17 C15         5.0296    6.4451    0.3086 C.ar      1 <0>        -0.0664
     18 C16         4.1775    7.3788   -0.2892 C.ar      1 <0>        -0.0959
     19 C17         2.8394    7.1215   -0.3823 C.ar      1 <0>        -0.0804
     20 C18         6.4757    6.7242    0.4082 C.2       1 <0>         0.4826
     21 O2          6.9250    7.7647   -0.0293 O.co2     1 <0>        -0.6216
     22 S1          1.2904    2.9174    0.7469 S.3       1 <0>         0.1066
     23 C19        -0.1235    1.8646    1.0304 C.2       1 <0>         0.2562
     24 S2         -0.1449    0.2101    1.4698 S.2       1 <0>        -0.3556
     25 H1         -5.6454    1.3011   -1.7505 H         1 <0>         0.0727
     26 H2         -4.3580    0.0792   -1.8831 H         1 <0>         0.0708
     27 H3         -5.7910   -0.2434   -0.8778 H         1 <0>         0.0705
     28 H4         -6.0460    0.8056    1.2950 H         1 <0>         0.1299
     29 H5         -4.9114    1.7947    3.2420 H         1 <0>         0.1327
     30 H6         -2.6244    2.6770    3.0193 H         1 <0>         0.1248
     31 H7         -1.8691    0.6310   -1.5727 H         1 <0>         0.0807
     32 H8         -3.1559    1.6278   -2.2931 H         1 <0>         0.0788
     33 H9         -1.7233    2.4050   -1.5775 H         1 <0>         0.0567
     34 H10         0.2041    6.4167   -0.3105 H         1 <0>         0.1610
     35 H11         2.7752    4.0669    1.1183 H         1 <0>         0.1216
     36 H12         5.1724    4.5265    1.2728 H         1 <0>         0.1434
     37 H13         4.5777    8.3035   -0.6778 H         1 <0>         0.1389
     38 H14         2.1816    7.8425   -0.8447 H         1 <0>         0.1310
     39 O3          7.2973    5.8249    0.9841 O.co2     1 <0>        -0.7419
@<TRIPOS>BOND
     1    1    2 1
     2    1   25 1
     3    1   26 1
     4    1   27 1
     5    2    7 ar
     6    2    3 ar
     7    3    4 ar
     8    3   28 1
     9    4    5 ar
    10    4   29 1
    11    5    6 ar
    12    5   30 1
    13    6    7 ar
    14    6    9 1
    15    7    8 1
    16    8   31 1
    17    8   32 1
    18    8   33 1
    19    9   23 1
    20    9   10 am
    21   10   11 2
    22   10   12 1
    23   12   13 2
    24   12   22 1
    25   13   14 1
    26   13   34 1
    27   14   19 ar
    28   14   15 ar
    29   15   16 ar
    30   15   35 1
    31   16   17 ar
    32   16   36 1
    33   17   18 ar
    34   17   20 1
    35   18   19 ar
    36   18   37 1
    37   19   38 1
    38   20   21 2
    39   20   39 1
    40   22   23 1
    41   23   24 2
@<TRIPOS>MOLECULE
ZINC33313731
   36    38     0     0     0
SMALL
USER_CHARGES
3-[(Z)-[4-oxo-2-thioxo-3-[3-(trifluoromethyl)phenyl]thiazolidin-5-ylidene]methyl]benzoic acid
@<TRIPOS>ATOM
      1 C1         -0.0540    3.8216    0.4464 C.ar      1 <0>        -0.1416
      2 C2         -1.2282    3.0999    0.5185 C.ar      1 <0>        -0.0746
      3 C3         -1.2503    1.7539    0.1337 C.ar      1 <0>        -0.1332
      4 C4         -0.0825    1.1468   -0.3345 C.ar      1 <0>        -0.0457
      5 C5          1.0975    1.8834   -0.4031 C.ar      1 <0>        -0.1116
      6 C6          1.1048    3.2248   -0.0098 C.ar      1 <0>        -0.0402
      7 C7          2.3394    1.2481   -0.8901 C.2       1 <0>         0.4860
      8 O1          2.3317    0.0824   -1.2316 O.co2     1 <0>        -0.6172
      9 O2          3.4801    1.9616   -0.9556 O.co2     1 <0>        -0.7464
     10 C8         -2.5000    0.9837    0.2163 C.2       1 <0>         0.1156
     11 C9         -2.4850   -0.3568    0.0120 C.2       1 <0>        -0.2811
     12 C10        -3.6128   -1.3064   -0.0959 C.2       1 <0>         0.5498
     13 O3         -4.7692   -0.9392   -0.0029 O.2       1 <0>        -0.4600
     14 N1         -3.3007   -2.5747   -0.3029 N.am      1 <0>        -0.4829
     15 C11        -2.0175   -2.9782   -0.3985 C.2       1 <0>         0.2394
     16 S1         -1.4174   -4.5608   -0.6557 S.2       1 <0>        -0.3478
     17 S2         -1.0956   -1.4629   -0.1932 S.3       1 <0>         0.1523
     18 C12        -4.3266   -3.5220   -0.4187 C.ar      1 <0>         0.1022
     19 C13        -4.5320   -4.4522    0.5917 C.ar      1 <0>        -0.0496
     20 C14        -5.5442   -5.3843    0.4749 C.ar      1 <0>        -0.1069
     21 C15        -6.3533   -5.3917   -0.6468 C.ar      1 <0>        -0.0549
     22 C16        -6.1515   -4.4666   -1.6543 C.ar      1 <0>        -0.1758
     23 C17        -5.1434   -3.5290   -1.5412 C.ar      1 <0>        -0.0378
     24 C18        -7.0356   -4.4778   -2.8746 C.3       1 <0>         0.5121
     25 F1         -7.9775   -5.5057   -2.7587 F         1 <0>        -0.1749
     26 F2         -7.6967   -3.2496   -2.9829 F         1 <0>        -0.1737
     27 F3         -6.2535   -4.6886   -4.0153 F         1 <0>        -0.1727
     28 H1         -0.0413    4.8584    0.7487 H         1 <0>         0.1297
     29 H2         -2.1306    3.5730    0.8766 H         1 <0>         0.1297
     30 H3         -0.0936    0.1101   -0.6371 H         1 <0>         0.1333
     31 H4          2.0198    3.7962   -0.0625 H         1 <0>         0.1415
     32 H5         -3.4471    1.4948    0.4438 H         1 <0>         0.1660
     33 H6         -3.9006   -4.4469    1.4679 H         1 <0>         0.1389
     34 H7         -5.7045   -6.1080    1.2604 H         1 <0>         0.1480
     35 H8         -7.1445   -6.1214   -0.7358 H         1 <0>         0.1471
     36 H9         -4.9887   -2.8042   -2.3268 H         1 <0>         0.1372
@<TRIPOS>BOND
     1    1    6 ar
     2    1    2 ar
     3    1   28 1
     4    2    3 ar
     5    2   29 1
     6    3    4 ar
     7    3   10 1
     8    4    5 ar
     9    4   30 1
    10    5    6 ar
    11    5    7 1
    12    6   31 1
    13    7    8 2
    14    7    9 1
    15   10   11 2
    16   10   32 1
    17   11   17 1
    18   11   12 1
    19   12   13 2
    20   12   14 am
    21   14   15 1
    22   14   18 1
    23   15   16 2
    24   15   17 1
    25   18   23 ar
    26   18   19 ar
    27   19   20 ar
    28   19   33 1
    29   20   21 ar
    30   20   34 1
    31   21   22 ar
    32   21   35 1
    33   22   23 ar
    34   22   24 1
    35   23   36 1
    36   24   25 1
    37   24   26 1
    38   24   27 1
@<TRIPOS>MOLECULE
ZINC00966859
   36    38     0     0     0
SMALL
USER_CHARGES
4-[[4-oxo-2-thioxo-3-[3-(trifluoromethyl)phenyl]-thiazolidin-5-ylidene]methyl]benzoic acid
@<TRIPOS>ATOM
      1 C1         -0.0288    5.6294   -1.7819 C.ar      1 <0>        -0.1079
      2 C2          0.9433    6.3091   -1.0706 C.ar      1 <0>        -0.0520
      3 C3          1.8206    5.6159   -0.2575 C.ar      1 <0>        -0.1738
      4 C4          1.7287    4.2415   -0.1532 C.ar      1 <0>        -0.0334
      5 C5          0.7537    3.5564   -0.8655 C.ar      1 <0>         0.0983
      6 C6         -0.1230    4.2550   -1.6851 C.ar      1 <0>        -0.0540
      7 N1          0.6582    2.1623   -0.7621 N.am      1 <0>        -0.4804
      8 C7         -0.3910    1.6299   -0.1582 C.2       1 <0>         0.5492
      9 O1         -1.2796    2.3185    0.3068 O.2       1 <0>        -0.4569
     10 C8         -0.4305    0.1515   -0.0830 C.2       1 <0>        -0.2793
     11 C9         -1.3658   -0.6617    0.4682 C.2       1 <0>         0.1268
     12 C10        -1.2699   -2.1171    0.2914 C.ar      1 <0>        -0.1294
     13 C11        -0.3316   -2.6547   -0.5987 C.ar      1 <0>        -0.0875
     14 C12        -0.2402   -4.0080   -0.7586 C.ar      1 <0>        -0.0804
     15 C13        -1.0904   -4.8562   -0.0426 C.ar      1 <0>        -0.0643
     16 C14        -2.0309   -4.3205    0.8427 C.ar      1 <0>        -0.0961
     17 C15        -2.1207   -2.9678    1.0084 C.ar      1 <0>        -0.0786
     18 C16        -0.9948   -6.3183   -0.2210 C.2       1 <0>         0.4822
     19 O2         -1.7331   -7.0557    0.4012 O.co2     1 <0>        -0.6209
     20 S1          1.0940   -0.2664   -0.9178 S.3       1 <0>         0.1201
     21 C17         1.6381    1.3950   -1.2807 C.2       1 <0>         0.2456
     22 S2          3.0606    1.8935   -2.0925 S.2       1 <0>        -0.3478
     23 C18         2.8787    6.3603    0.5154 C.3       1 <0>         0.5125
     24 F1          4.0398    6.4580   -0.2588 F         1 <0>        -0.1704
     25 F2          2.4146    7.6436    0.8239 F         1 <0>        -0.1749
     26 F3          3.1638    5.6706    1.6987 F         1 <0>        -0.1749
     27 H1         -0.7127    6.1736   -2.4163 H         1 <0>         0.1478
     28 H2          1.0174    7.3836   -1.1509 H         1 <0>         0.1454
     29 H3          2.4147    3.7005    0.4817 H         1 <0>         0.1414
     30 H4         -0.8798    3.7244   -2.2437 H         1 <0>         0.1371
     31 H5         -2.1808   -0.2394    1.0372 H         1 <0>         0.1623
     32 H6          0.3223   -1.9995   -1.1552 H         1 <0>         0.1206
     33 H7          0.4863   -4.4229   -1.4415 H         1 <0>         0.1440
     34 H8         -2.6869   -4.9767    1.3954 H         1 <0>         0.1395
     35 H9         -2.8472   -2.5543    1.6922 H         1 <0>         0.1316
     36 O3         -0.0887   -6.8351   -1.0739 O.co2     1 <0>        -0.7413
@<TRIPOS>BOND
     1    1    6 ar
     2    1    2 ar
     3    1   27 1
     4    2    3 ar
     5    2   28 1
     6    3    4 ar
     7    3   23 1
     8    4    5 ar
     9    4   29 1
    10    5    6 ar
    11    5    7 1
    12    6   30 1
    13    7   21 1
    14    7    8 am
    15    8    9 2
    16    8   10 1
    17   10   11 2
    18   10   20 1
    19   11   12 1
    20   11   31 1
    21   12   17 ar
    22   12   13 ar
    23   13   14 ar
    24   13   32 1
    25   14   15 ar
    26   14   33 1
    27   15   16 ar
    28   15   18 1
    29   16   17 ar
    30   16   34 1
    31   17   35 1
    32   18   19 2
    33   18   36 1
    34   20   21 1
    35   21   22 2
    36   23   24 1
    37   23   25 1
    38   23   26 1
@<TRIPOS>MOLECULE
ZINC40556535
   38    41     0     0     0
SMALL
USER_CHARGES

@<TRIPOS>ATOM
      1 C1         -0.1047    1.1413    2.6495 C.ar      1 <0>        -0.1081
      2 C2          0.6118    2.0172    1.8544 C.ar      1 <0>        -0.0542
      3 C3          1.4388    1.5324    0.8581 C.ar      1 <0>        -0.1737
      4 C4          1.5517    0.1709    0.6539 C.ar      1 <0>        -0.0317
      5 C5          0.8341   -0.7109    1.4506 C.ar      1 <0>         0.0981
      6 C6          0.0043   -0.2209    2.4505 C.ar      1 <0>        -0.0541
      7 N1          0.9465   -2.0925    1.2460 N.am      1 <0>        -0.4801
      8 C7         -0.0981   -2.7656    0.7936 C.2       1 <0>         0.5485
      9 O1         -1.1562   -2.2165    0.5498 O.2       1 <0>        -0.4577
     10 C8          0.0861   -4.2197    0.5989 C.2       1 <0>        -0.2829
     11 C9         -0.7944   -5.1513    0.1533 C.2       1 <0>         0.1300
     12 C10        -0.4537   -6.5779    0.2262 C.ar      1 <0>        -0.1433
     13 C11         0.6943   -6.9904    0.9147 C.ar      1 <0>        -0.0696
     14 C12         1.0092   -8.3177    0.9818 C.ar      1 <0>        -0.1090
     15 C13         0.1876   -9.2636    0.3640 C.ar      1 <0>         0.1017
     16 C14        -0.9578   -8.8543   -0.3232 C.ar      1 <0>        -0.1157
     17 C15        -1.2793   -7.5284   -0.3877 C.ar      1 <0>        -0.0603
     18 C16         0.5309  -10.7002    0.4371 C.2       1 <0>         0.0574
     19 N2          1.5822  -11.2396    1.0577 N.2       1 <0>        -0.3558
     20 N3          1.5200  -12.5158    0.8864 N.2       1 <0>        -0.1826
     21 N4          0.4780  -12.8005    0.1869 N.2       1 <0>        -0.1832
     22 N5         -0.1525  -11.7131   -0.0997 N.2       1 <0>        -0.3570
     23 S1          1.7880   -4.4129    1.1107 S.3       1 <0>         0.1159
     24 C17         2.1190   -2.7042    1.5096 C.2       1 <0>         0.2470
     25 S2          3.5730   -2.0105    2.0887 S.2       1 <0>        -0.3459
     26 C18         2.2174    2.4904   -0.0063 C.3       1 <0>         0.5120
     27 F1          1.9406    3.8040    0.3871 F         1 <0>        -0.1748
     28 F2          3.5864    2.2396    0.1359 F         1 <0>        -0.1698
     29 F3          1.8480    2.3167   -1.3445 F         1 <0>        -0.1748
     30 H1         -0.7467    1.5229    3.4296 H         1 <0>         0.1477
     31 H2          0.5249    3.0822    2.0119 H         1 <0>         0.1477
     32 H3          2.1973   -0.2072   -0.1250 H         1 <0>         0.1393
     33 H4         -0.5553   -0.9044    3.0719 H         1 <0>         0.1371
     34 H5         -1.7458   -4.8436   -0.2550 H         1 <0>         0.1620
     35 H6          1.3301   -6.2594    1.3919 H         1 <0>         0.1236
     36 H7          1.8942   -8.6362    1.5126 H         1 <0>         0.1414
     37 H8         -1.5917   -9.5871   -0.8002 H         1 <0>         0.1408
     38 H9         -2.1673   -7.2128   -0.9152 H         1 <0>         0.1340
@<TRIPOS>BOND
     1    1    6 ar
     2    1    2 ar
     3    1   30 1
     4    2    3 ar
     5    2   31 1
     6    3    4 ar
     7    3   26 1
     8    4    5 ar
     9    4   32 1
    10    5    6 ar
    11    5    7 1
    12    6   33 1
    13    7   24 1
    14    7    8 am
    15    8    9 2
    16    8   10 1
    17   10   11 2
    18   10   23 1
    19   11   12 1
    20   11   34 1
    21   12   17 ar
    22   12   13 ar
    23   13   14 ar
    24   13   35 1
    25   14   15 ar
    26   14   36 1
    27   15   16 ar
    28   15   18 1
    29   16   17 ar
    30   16   37 1
    31   17   38 1
    32   18   22 2
    33   18   19 1
    34   19   20 1
    35   20   21 2
    36   21   22 1
    37   23   24 1
    38   24   25 2
    39   26   27 1
    40   26   28 1
    41   26   29 1
@<TRIPOS>MOLECULE
ZINC16399231
   40    42     0     0     0
SMALL
USER_CHARGES
2-[4-[(Z)-[4-oxo-2-thioxo-3-[3-(trifluoromethyl)phenyl]thiazolidin-5-ylidene]methyl]phenoxy]acetic acid
@<TRIPOS>ATOM
      1 C1          1.8198    5.6152   -0.2999 C.ar      1 <0>        -0.1060
      2 C2          0.9394    6.3053   -1.1132 C.ar      1 <0>        -0.0510
      3 C3         -0.0321    5.6225   -1.8214 C.ar      1 <0>        -0.1752
      4 C4         -0.1263    4.2482   -1.7181 C.ar      1 <0>        -0.0384
      5 C5          0.7559    3.5527   -0.9025 C.ar      1 <0>         0.0972
      6 C6          1.7275    4.2419   -0.1888 C.ar      1 <0>        -0.0489
      7 N1          0.6625    2.1587   -0.7953 N.am      1 <0>        -0.4797
      8 C7         -0.3876    1.6258   -0.1937 C.2       1 <0>         0.5473
      9 O1         -1.2793    2.3152    0.2659 O.2       1 <0>        -0.4568
     10 C8         -0.4269    0.1521   -0.1131 C.2       1 <0>        -0.2842
     11 C9         -1.3650   -0.6597    0.4381 C.2       1 <0>         0.1320
     12 C10        -1.2686   -2.1149    0.2671 C.ar      1 <0>        -0.1744
     13 C11        -0.3266   -2.6579   -0.6155 C.ar      1 <0>        -0.0287
     14 C12        -0.2367   -4.0232   -0.7675 C.ar      1 <0>        -0.2182
     15 C13        -1.0866   -4.8619   -0.0557 C.ar      1 <0>         0.1869
     16 C14        -2.0274   -4.3281    0.8174 C.ar      1 <0>        -0.1653
     17 C15        -2.1222   -2.9645    0.9816 C.ar      1 <0>        -0.0246
     18 O2         -0.9978   -6.2074   -0.2141 O.3       1 <0>        -0.2741
     19 C16        -0.0094   -6.6893   -1.1267 C.3       1 <0>         0.0108
     20 C17        -0.0583   -8.1949   -1.1713 C.2       1 <0>         0.4692
     21 O3         -0.8576   -8.7937   -0.4913 O.co2     1 <0>        -0.6120
     22 S1          1.1007   -0.2693   -0.9405 S.3       1 <0>         0.1066
     23 C18         1.6456    1.3909   -1.3079 C.2       1 <0>         0.2505
     24 S2          3.0707    1.8878   -2.1162 S.2       1 <0>        -0.3425
     25 C19        -0.9894    6.3782   -2.7065 C.3       1 <0>         0.5123
     26 F1         -2.1181    6.7455   -1.9661 F         1 <0>        -0.1729
     27 F2         -0.3610    7.5269   -3.1993 F         1 <0>        -0.1734
     28 F3         -1.3777    5.5640   -3.7758 F         1 <0>        -0.1744
     29 H1          2.5778    6.1514    0.2518 H         1 <0>         0.1490
     30 H2          1.0107    7.3799   -1.1951 H         1 <0>         0.1458
     31 H3         -0.8859    3.7154   -2.2710 H         1 <0>         0.1394
     32 H4          2.4126    3.7039    0.4497 H         1 <0>         0.1391
     33 H5         -2.1821   -0.2352    1.0024 H         1 <0>         0.1626
     34 H6          0.3312   -2.0071   -1.1724 H         1 <0>         0.1260
     35 H7          0.4924   -4.4433   -1.4446 H         1 <0>         0.1430
     36 H8         -2.6854   -4.9843    1.3677 H         1 <0>         0.1437
     37 H9         -2.8532   -2.5509    1.6605 H         1 <0>         0.1406
     38 H10        -0.2076   -6.2898   -2.1213 H         1 <0>         0.0736
     39 H11         0.9781   -6.3675   -0.7961 H         1 <0>         0.0739
     40 O4          0.7860   -8.8706   -1.9664 O.co2     1 <0>        -0.7491
@<TRIPOS>BOND
     1    1    6 ar
     2    1    2 ar
     3    1   29 1
     4    2    3 ar
     5    2   30 1
     6    3    4 ar
     7    3   25 1
     8    4    5 ar
     9    4   31 1
    10    5    6 ar
    11    5    7 1
    12    6   32 1
    13    7   23 1
    14    7    8 am
    15    8    9 2
    16    8   10 1
    17   10   11 2
    18   10   22 1
    19   11   12 1
    20   11   33 1
    21   12   17 ar
    22   12   13 ar
    23   13   14 ar
    24   13   34 1
    25   14   15 ar
    26   14   35 1
    27   15   16 ar
    28   15   18 1
    29   16   17 ar
    30   16   36 1
    31   17   37 1
    32   18   19 1
    33   19   20 1
    34   19   38 1
    35   19   39 1
    36   20   21 2
    37   20   40 1
    38   22   23 1
    39   23   24 2
    40   25   26 1
    41   25   27 1
    42   25   28 1
