@<TRIPOS>MOLECULE
ZINC58638704
   60    63     0     0     0
SMALL
USER_CHARGES

@<TRIPOS>ATOM
      1 C1         -0.0187    1.5258    0.0104 C.3       1 <0>        -0.1896
      2 C2          0.0021   -0.0041    0.0020 C.3       1 <0>         0.1427
      3 C3          0.7421   -0.5109    1.2415 C.3       1 <0>        -0.1596
      4 C4         -1.4333   -0.5336    0.0129 C.3       1 <0>        -0.1496
      5 H1         -1.9501   -0.2436   -0.9019 H         1 <0>         0.1155
      6 C5         -2.1914   -0.0027    1.2484 C.3       1 <0>        -0.0040
      7 N1         -3.0526   -1.1356    1.6747 N.4       1 <0>        -0.5181
      8 C6         -2.1971   -2.3354    1.4862 C.3       1 <0>        -0.0232
      9 C7         -1.4369   -2.0686    0.1666 C.3       1 <0>         0.1407
     10 H2         -0.4161   -2.4447    0.2343 H         1 <0>         0.1526
     11 N2         -2.1361   -2.6911   -0.9603 N.pl3     1 <0>        -0.7073
     12 C8         -1.8416   -3.9896   -1.3225 C.ar      1 <0>         0.4664
     13 C9         -2.5028   -4.6064   -2.4128 C.ar      1 <0>        -0.1831
     14 C10        -3.4737   -3.9333   -3.1638 C.ar      1 <0>        -0.1585
     15 C11        -4.0842   -4.5697   -4.2071 C.ar      1 <0>         0.1203
     16 C12        -3.7498   -5.8912   -4.5350 C.ar      1 <0>         0.1661
     17 C13        -2.7983   -6.5756   -3.8124 C.ar      1 <0>        -0.1784
     18 C14        -2.1590   -5.9421   -2.7384 C.ar      1 <0>         0.2027
     19 N3         -1.2259   -6.5662   -2.0052 N.ar      1 <0>        -0.4961
     20 C15        -0.6401   -5.9441   -0.9986 C.ar      1 <0>         0.4044
     21 N4         -0.9299   -4.6878   -0.6627 N.ar      1 <0>        -0.5784
     22 C16         0.3854   -6.6706   -0.2146 C.ar      1 <0>        -0.0544
     23 C17         1.0195   -6.0454    0.8584 C.ar      1 <0>        -0.0930
     24 C18         1.9751   -6.7276    1.5859 C.ar      1 <0>         0.0785
     25 C19         2.3057   -8.0320    1.2527 C.ar      1 <0>        -0.1110
     26 C20         1.6832   -8.6594    0.1911 C.ar      1 <0>        -0.1252
     27 C21         0.7180   -7.9887   -0.5436 C.ar      1 <0>         0.1538
     28 O1          0.1014   -8.6074   -1.5837 O.3       1 <0>        -0.4676
     29 F1          2.5897   -6.1216    2.6253 F         1 <0>        -0.1350
     30 O2         -4.3716   -6.5031   -5.5765 O.3       1 <0>        -0.2947
     31 C22        -3.9874   -7.8498   -5.8609 C.3       1 <0>         0.0186
     32 O3         -5.0271   -3.9142   -4.9354 O.3       1 <0>        -0.2960
     33 C23        -5.3245   -2.5701   -4.5521 C.3       1 <0>         0.0238
     34 O4          0.6709   -0.4649   -1.1737 O.3       1 <0>        -0.5401
     35 H3          1.0039    1.9031    0.0027 H         1 <0>         0.0820
     36 H4         -0.5459    1.8868   -0.8726 H         1 <0>         0.0669
     37 H5         -0.5289    1.8773    0.9072 H         1 <0>         0.0683
     38 H6          0.2319   -0.1594    2.1383 H         1 <0>         0.0715
     39 H7          0.7568   -1.6008    1.2356 H         1 <0>         0.0729
     40 H8          1.7647   -0.1336    1.2338 H         1 <0>         0.0842
     41 H9         -1.4903    0.2608    2.0404 H         1 <0>         0.1456
     42 H10        -2.8024    0.8587    0.9784 H         1 <0>         0.1442
     43 H11        -3.3122   -1.0361    2.6446 H         1 <0>         0.4372
     44 H12        -1.4969   -2.4370    2.3154 H         1 <0>         0.1487
     45 H13        -2.8123   -3.2306    1.3952 H         1 <0>         0.1409
     46 H14        -2.8059   -2.1906   -1.4518 H         1 <0>         0.4111
     47 H15        -3.7393   -2.9154   -2.9192 H         1 <0>         0.1350
     48 H16        -2.5467   -7.5935   -4.0713 H         1 <0>         0.1603
     49 H17         0.7641   -5.0291    1.1200 H         1 <0>         0.1457
     50 H18         3.0537   -8.5600    1.8255 H         1 <0>         0.1463
     51 H19         1.9454   -9.6756   -0.0637 H         1 <0>         0.1486
     52 H20         0.5503   -8.4916   -2.4323 H         1 <0>         0.3948
     53 H21        -2.9233   -7.8823   -6.0949 H         1 <0>         0.0644
     54 H22        -4.1875   -8.4760   -4.9915 H         1 <0>         0.0646
     55 H23        -4.5583   -8.2182   -6.7132 H         1 <0>         0.1113
     56 H24        -6.0909   -2.1649   -5.2129 H         1 <0>         0.1095
     57 H25        -5.6871   -2.5571   -3.5243 H         1 <0>         0.0537
     58 H26        -4.4223   -1.9629   -4.6268 H         1 <0>         0.0561
     59 H27         0.2557   -0.1806   -1.9994 H         1 <0>         0.3828
     60 H28        -3.8743   -1.1931    1.0919 H         1 <0>         0.4304
@<TRIPOS>BOND
     1    1    2 1
     2    1   35 1
     3    1   36 1
     4    1   37 1
     5    2    3 1
     6    2    4 1
     7    2   34 1
     8    3   38 1
     9    3   39 1
    10    3   40 1
    11    4    5 1
    12    4    9 1
    13    4    6 1
    14    6    7 1
    15    6   41 1
    16    6   42 1
    17    7    8 1
    18    7   43 1
    19    7   60 1
    20    8    9 1
    21    8   44 1
    22    8   45 1
    23    9   10 1
    24    9   11 1
    25   11   12 1
    26   11   46 1
    27   12   21 ar
    28   12   13 ar
    29   13   18 ar
    30   13   14 ar
    31   14   15 ar
    32   14   47 1
    33   15   16 ar
    34   15   32 1
    35   16   17 ar
    36   16   30 1
    37   17   18 ar
    38   17   48 1
    39   18   19 ar
    40   19   20 ar
    41   20   21 ar
    42   20   22 1
    43   22   27 ar
    44   22   23 ar
    45   23   24 ar
    46   23   49 1
    47   24   25 ar
    48   24   29 1
    49   25   26 ar
    50   25   50 1
    51   26   27 ar
    52   26   51 1
    53   27   28 1
    54   28   52 1
    55   30   31 1
    56   31   53 1
    57   31   54 1
    58   31   55 1
    59   32   33 1
    60   33   56 1
    61   33   57 1
    62   33   58 1
    63   34   59 1
@<TRIPOS>MOLECULE
ZINC03814434
   62    69     0     0     0
SMALL
USER_CHARGES

@<TRIPOS>ATOM
      1 C1         -0.1295    1.5952   -0.2973 C.3       1 <0>        -0.1687
      2 C2         -0.0862    0.0696   -0.1900 C.3       1 <0>         0.3342
      3 C3          0.5692   -0.4501   -1.4637 C.3       1 <0>         0.0405
      4 H1          1.4796    0.1159   -1.6612 H         1 <0>         0.1372
      5 C4          0.9167   -1.9328   -1.2889 C.3       1 <0>        -0.0061
      6 H2          1.3963   -2.3075   -2.1932 H         1 <0>         0.1555
      7 C5          1.8785   -2.0596   -0.1021 C.3       1 <0>        -0.1827
      8 C6          1.2061   -1.5198    1.1541 C.3       1 <0>         0.2999
      9 H3          1.9797   -1.4243    1.9161 H         1 <0>         0.1550
     10 O1          0.6555   -0.2442    0.9666 O.3       1 <0>        -0.3234
     11 N1          0.2189   -2.4746    1.6600 N.pl3     1 <0>        -0.5366
     12 C7          0.4705   -3.5508    2.4739 C.ar      1 <0>         0.1469
     13 C8          1.6649   -4.0152    3.0240 C.ar      1 <0>        -0.1522
     14 C9          1.5948   -5.1456    3.8201 C.ar      1 <0>        -0.0582
     15 C10         0.4006   -5.7997    4.0696 C.ar      1 <0>        -0.1457
     16 C11        -0.7984   -5.3597    3.5358 C.ar      1 <0>        -0.0280
     17 C12        -0.7487   -4.2198    2.7307 C.ar      1 <0>        -0.1131
     18 C13        -1.7893   -3.4830    2.0197 C.ar      1 <0>         0.0276
     19 C14        -1.1442   -2.4197    1.3841 C.ar      1 <0>         0.0376
     20 C15        -1.8806   -1.5095    0.6175 C.ar      1 <0>         0.0894
     21 N2         -1.4718   -0.3951   -0.1095 N.pl3     1 <0>        -0.5183
     22 C16        -2.5611    0.1913   -0.7090 C.ar      1 <0>         0.1618
     23 C17        -2.6521    1.3277   -1.5118 C.ar      1 <0>        -0.1305
     24 C18        -3.9109    1.6745   -1.9733 C.ar      1 <0>        -0.0737
     25 C19        -5.0393    0.9368   -1.6616 C.ar      1 <0>        -0.1358
     26 C20        -4.9745   -0.1955   -0.8662 C.ar      1 <0>        -0.0503
     27 C21        -3.7147   -0.5596   -0.3919 C.ar      1 <0>        -0.1042
     28 C22        -3.2693   -1.6660    0.4845 C.ar      1 <0>        -0.0360
     29 C23        -3.9084   -2.7313    1.1102 C.ar      1 <0>        -0.0288
     30 C24        -3.1873   -3.6421    1.8754 C.ar      1 <0>        -0.1255
     31 C25        -4.1221   -4.6480    2.4030 C.2       1 <0>         0.5632
     32 O2         -3.8062   -5.5851    3.1110 O.2       1 <0>        -0.5106
     33 N3         -5.3744   -4.3851    1.9926 N.am      1 <0>        -0.7162
     34 C26        -5.3495   -3.1771    1.1601 C.3       1 <0>         0.1358
     35 N4         -0.3067   -2.7008   -1.0216 N.4       1 <0>        -0.5252
     36 C27         0.0145   -4.1336   -0.9773 C.3       1 <0>        -0.0497
     37 O3         -0.3340   -0.2979   -2.5607 O.3       1 <0>        -0.3614
     38 C28         0.3101   -0.0933   -3.8198 C.3       1 <0>         0.0162
     39 H4          0.8261    2.0094    0.0240 H         1 <0>         0.0984
     40 H5         -0.3202    1.8814   -1.3317 H         1 <0>         0.1036
     41 H6         -0.9255    1.9818    0.3392 H         1 <0>         0.0921
     42 H7          2.1370   -3.1081    0.0458 H         1 <0>         0.1233
     43 H8          2.7835   -1.4869   -0.3048 H         1 <0>         0.1455
     44 H9          2.6036   -3.5149    2.8368 H         1 <0>         0.1365
     45 H10         2.5026   -5.5304    4.2610 H         1 <0>         0.1359
     46 H11         0.4045   -6.6780    4.6980 H         1 <0>         0.1352
     47 H12        -1.7278   -5.8736    3.7323 H         1 <0>         0.1600
     48 H13        -1.7792    1.9122   -1.7624 H         1 <0>         0.1440
     49 H14        -4.0153    2.5500   -2.5970 H         1 <0>         0.1336
     50 H15        -5.9967    1.2527   -2.0488 H         1 <0>         0.1332
     51 H16        -5.8575   -0.7687   -0.6249 H         1 <0>         0.1415
     52 H17        -6.1628   -4.9065    2.2103 H         1 <0>         0.4348
     53 H18        -5.9671   -2.3994    1.6094 H         1 <0>         0.1115
     54 H19        -5.7060   -3.4063    0.1559 H         1 <0>         0.1103
     55 H20        -0.6958   -2.4158   -0.1353 H         1 <0>         0.4186
     56 H21         0.4349   -4.4415   -1.9347 H         1 <0>         0.1256
     57 H22         0.7403   -4.3189   -0.1854 H         1 <0>         0.1191
     58 H23        -0.8932   -4.7035   -0.7789 H         1 <0>         0.1256
     59 H24         0.9168    0.8112   -3.7748 H         1 <0>         0.0633
     60 H25         0.9482   -0.9479   -4.0446 H         1 <0>         0.0514
     61 H26        -0.4433    0.0130   -4.6003 H         1 <0>         0.1100
     62 H27        -0.9785   -2.5293   -1.7546 H         1 <0>         0.4274
@<TRIPOS>BOND
     1    1    2 1
     2    1   39 1
     3    1   40 1
     4    1   41 1
     5    2   10 1
     6    2   21 1
     7    2    3 1
     8    3    4 1
     9    3    5 1
    10    3   37 1
    11    5    6 1
    12    5    7 1
    13    5   35 1
    14    7    8 1
    15    7   42 1
    16    7   43 1
    17    8    9 1
    18    8   10 1
    19    8   11 1
    20   11   19 1
    21   11   12 1
    22   12   17 ar
    23   12   13 ar
    24   13   14 ar
    25   13   44 1
    26   14   15 ar
    27   14   45 1
    28   15   16 ar
    29   15   46 1
    30   16   17 ar
    31   16   47 1
    32   17   18 1
    33   18   30 ar
    34   18   19 ar
    35   19   20 ar
    36   20   28 ar
    37   20   21 1
    38   21   22 1
    39   22   27 ar
    40   22   23 ar
    41   23   24 ar
    42   23   48 1
    43   24   25 ar
    44   24   49 1
    45   25   26 ar
    46   25   50 1
    47   26   27 ar
    48   26   51 1
    49   27   28 1
    50   28   29 ar
    51   29   34 1
    52   29   30 ar
    53   30   31 1
    54   31   32 2
    55   31   33 am
    56   33   34 1
    57   33   52 1
    58   34   53 1
    59   34   54 1
    60   35   36 1
    61   35   55 1
    62   35   62 1
    63   36   56 1
    64   36   57 1
    65   36   58 1
    66   37   38 1
    67   38   59 1
    68   38   60 1
    69   38   61 1
@<TRIPOS>MOLECULE
ZINC13612061
   29    31     0     0     0
SMALL
USER_CHARGES
2-phenyl-1H-benzimidazole-5-carboxamide
@<TRIPOS>ATOM
      1 C1         -5.1261   10.9199    0.0892 C.ar      1 <0>        -0.1003
      2 C2         -5.7888    9.7054    0.0843 C.ar      1 <0>        -0.1184
      3 C3         -5.0733    8.5258    0.0735 C.ar      1 <0>        -0.0680
      4 C4         -3.6783    8.5595    0.0671 C.ar      1 <0>        -0.0355
      5 C5         -3.0160    9.7877    0.0770 C.ar      1 <0>        -0.1014
      6 C6         -3.7432   10.9601    0.0829 C.ar      1 <0>        -0.1182
      7 C7         -2.9050    7.2987    0.0561 C.2       1 <0>         0.3305
      8 N1         -1.5384    7.2135    0.0491 N.pl3     1 <0>        -0.5954
      9 H1         -0.8967    7.9804    0.0502 H         1 <0>         0.4315
     10 C8         -1.2114    5.8745    0.0402 C.ar      1 <0>         0.0758
     11 C9         -0.0068    5.1799    0.0302 C.ar      1 <0>        -0.1148
     12 C10        -0.0020    3.8154    0.0228 C.ar      1 <0>        -0.0702
     13 C11        -1.2073    3.1004    0.0246 C.ar      1 <0>        -0.1525
     14 C12        -2.4226    3.7774    0.0283 C.ar      1 <0>         0.0112
     15 C13        -2.4321    5.1728    0.0422 C.ar      1 <0>         0.0403
     16 N2         -3.4248    6.0964    0.0520 N.2       1 <0>        -0.4697
     17 C14        -1.1873    1.6238    0.0165 C.2       1 <0>         0.5684
     18 O1         -2.2318    1.0017    0.0181 O.2       1 <0>        -0.5380
     19 N3         -0.0111    0.9658    0.0074 N.am      1 <0>        -0.8510
     20 H2         -5.6908   11.8404    0.0976 H         1 <0>         0.1292
     21 H3         -6.8685    9.6806    0.0893 H         1 <0>         0.1329
     22 H4         -5.5917    7.5784    0.0697 H         1 <0>         0.1404
     23 H5         -1.9365    9.8204    0.0766 H         1 <0>         0.1203
     24 H6         -3.2319   11.9114    0.0864 H         1 <0>         0.1306
     25 H7          0.9274    5.7218    0.0288 H         1 <0>         0.1319
     26 H8          0.9374    3.2826    0.0158 H         1 <0>         0.1354
     27 H9         -3.3518    3.2271    0.0249 H         1 <0>         0.1474
     28 H10         0.0021   -0.0041    0.0020 H         1 <0>         0.4068
     29 H11         0.8223    1.4622    0.0021 H         1 <0>         0.4006
@<TRIPOS>BOND
     1    1    6 ar
     2    1    2 ar
     3    1   20 1
     4    2    3 ar
     5    2   21 1
     6    3    4 ar
     7    3   22 1
     8    4    5 ar
     9    4    7 1
    10    5    6 ar
    11    5   23 1
    12    6   24 1
    13    7   16 2
    14    7    8 1
    15    8    9 1
    16    8   10 1
    17   10   15 ar
    18   10   11 ar
    19   11   12 ar
    20   11   25 1
    21   12   13 ar
    22   12   26 1
    23   13   14 ar
    24   13   17 1
    25   14   15 ar
    26   14   27 1
    27   15   16 1
    28   17   18 2
    29   17   19 am
    30   19   28 1
    31   19   29 1
@<TRIPOS>MOLECULE
ZINC03815901
   40    43     0     0     0
SMALL
USER_CHARGES

@<TRIPOS>ATOM
      1 C1         -0.0272    1.4467   -0.0765 C.ar      1 <0>        -0.0500
      2 C2          1.1684    2.1316   -0.0739 C.ar      1 <0>        -0.1371
      3 C3          2.3697    1.4354   -0.0228 C.ar      1 <0>         0.1031
      4 C4          2.3705    0.0469    0.0260 C.ar      1 <0>        -0.1171
      5 C5          1.1788   -0.6449    0.0233 C.ar      1 <0>        -0.0832
      6 C6         -0.0305    0.0512   -0.0276 C.ar      1 <0>        -0.0322
      7 C7         -1.3107   -0.6871   -0.0301 C.2       1 <0>         0.3265
      8 N1         -1.4339   -2.0502    0.0205 N.pl3     1 <0>        -0.5917
      9 H1         -0.7078   -2.6919    0.0639 H         1 <0>         0.4261
     10 C8         -2.7815   -2.3411   -0.0013 C.ar      1 <0>         0.0776
     11 C9         -3.5088   -3.5257    0.0273 C.ar      1 <0>        -0.1149
     12 C10        -4.8727   -3.4942   -0.0076 C.ar      1 <0>        -0.0682
     13 C11        -5.5539   -2.2714   -0.0725 C.ar      1 <0>        -0.1512
     14 C12        -4.8436   -1.0755   -0.1025 C.ar      1 <0>         0.0119
     15 C13        -3.4490   -1.1031   -0.0665 C.ar      1 <0>         0.0407
     16 N2         -2.4987   -0.1355   -0.0754 N.2       1 <0>        -0.4649
     17 C14        -7.0300   -2.2520   -0.1097 C.2       1 <0>         0.5681
     18 O1         -7.6228   -1.1921   -0.1661 O.2       1 <0>        -0.5372
     19 N3         -7.7200   -3.4094   -0.0812 N.am      1 <0>        -0.8507
     20 O2          3.5460    2.1137   -0.0209 O.3       1 <0>        -0.2521
     21 C15         3.8442    2.8709    1.0676 C.ar      1 <0>         0.1244
     22 C16         3.0252    2.8312    2.1869 C.ar      1 <0>        -0.1821
     23 C17         3.3303    3.6011    3.2924 C.ar      1 <0>        -0.0704
     24 C18         4.4517    4.4116    3.2841 C.ar      1 <0>        -0.0657
     25 C19         5.2698    4.4526    2.1689 C.ar      1 <0>        -0.0717
     26 C20         4.9711    3.6802    1.0633 C.ar      1 <0>        -0.1298
     27 Cl1         4.8326    5.3787    4.6746 Cl        1 <0>        -0.0651
     28 H2         -0.9607    1.9886   -0.1118 H         1 <0>         0.1499
     29 H3          1.1718    3.2109   -0.1121 H         1 <0>         0.1417
     30 H4          3.3062   -0.4909    0.0657 H         1 <0>         0.1428
     31 H5          1.1802   -1.7243    0.0605 H         1 <0>         0.1315
     32 H6         -2.9930   -4.4732    0.0770 H         1 <0>         0.1328
     33 H7         -5.4310   -4.4184    0.0146 H         1 <0>         0.1362
     34 H8         -5.3678   -0.1326   -0.1533 H         1 <0>         0.1482
     35 H9         -7.2471   -4.2551   -0.0363 H         1 <0>         0.4007
     36 H10        -8.6896   -3.3967   -0.1057 H         1 <0>         0.4071
     37 H11         2.1496    2.1990    2.1936 H         1 <0>         0.1388
     38 H12         2.6928    3.5707    4.1637 H         1 <0>         0.1389
     39 H13         6.1447    5.0859    2.1644 H         1 <0>         0.1441
     40 H14         5.6123    3.7092    0.1947 H         1 <0>         0.1443
@<TRIPOS>BOND
     1    1    6 ar
     2    1    2 ar
     3    1   28 1
     4    2    3 ar
     5    2   29 1
     6    3    4 ar
     7    3   20 1
     8    4    5 ar
     9    4   30 1
    10    5    6 ar
    11    5   31 1
    12    6    7 1
    13    7   16 2
    14    7    8 1
    15    8    9 1
    16    8   10 1
    17   10   15 ar
    18   10   11 ar
    19   11   12 ar
    20   11   32 1
    21   12   13 ar
    22   12   33 1
    23   13   14 ar
    24   13   17 1
    25   14   15 ar
    26   14   34 1
    27   15   16 1
    28   17   18 2
    29   17   19 am
    30   19   35 1
    31   19   36 1
    32   20   21 1
    33   21   26 ar
    34   21   22 ar
    35   22   23 ar
    36   22   37 1
    37   23   24 ar
    38   23   38 1
    39   24   25 ar
    40   24   27 1
    41   25   26 ar
    42   25   39 1
    43   26   40 1
@<TRIPOS>MOLECULE
ZINC16052718
   27    29     0     0     0
SMALL
USER_CHARGES
2-(4-pyridyl)-1,5,6,7-tetrahydropyrrolo[3,2-c]pyridin-4-one
@<TRIPOS>ATOM
      1 C1         -1.2211    1.7394    0.0173 C.ar      1 <0>        -0.1847
      2 C2         -0.0126    1.0758    0.0080 C.ar      1 <0>         0.1111
      3 N1          1.1266    1.7422    0.0007 N.ar      1 <0>        -0.4905
      4 C3          1.1665    3.0614    0.0069 C.ar      1 <0>         0.1119
      5 C4          0.0054    3.8049    0.0215 C.ar      1 <0>        -0.1618
      6 C5         -1.2265    3.1395    0.0297 C.ar      1 <0>         0.0379
      7 C6         -2.4974    3.8941    0.0449 C.2       1 <0>         0.0152
      8 C7         -2.6168    5.2527    0.0519 C.2       1 <0>        -0.0780
      9 C8         -3.9881    5.5373    0.0657 C.2       1 <0>        -0.2330
     10 C9         -4.6662    4.3225    0.0683 C.2       1 <0>         0.0775
     11 N2         -3.7609    3.3429    0.0484 N.pl3     1 <0>        -0.5119
     12 H1         -3.9600    2.3935    0.0405 H         1 <0>         0.4194
     13 C10        -6.1725    4.2736    0.0855 C.3       1 <0>        -0.0706
     14 C11        -6.6980    5.5192    0.7998 C.3       1 <0>         0.1242
     15 N3         -6.0502    6.7447    0.3531 N.am      1 <0>        -0.7362
     16 C12        -4.7270    6.8120    0.0741 C.2       1 <0>         0.5975
     17 O1         -4.1760    7.8712   -0.1574 O.2       1 <0>        -0.5324
     18 H2         -2.1495    1.1876    0.0191 H         1 <0>         0.1271
     19 H3          0.0021   -0.0041    0.0020 H         1 <0>         0.1582
     20 H4          2.1216    3.5654    0.0002 H         1 <0>         0.1618
     21 H5          0.0456    4.8841    0.0262 H         1 <0>         0.1422
     22 H6         -1.8098    5.9704    0.0479 H         1 <0>         0.1542
     23 H7         -6.5491    4.2527   -0.9371 H         1 <0>         0.0964
     24 H8         -6.5030    3.3798    0.6148 H         1 <0>         0.0985
     25 H9         -7.7696    5.6022    0.6183 H         1 <0>         0.0948
     26 H10        -6.5315    5.4063    1.8710 H         1 <0>         0.0675
     27 H11        -6.5885    7.5452    0.2514 H         1 <0>         0.4040
@<TRIPOS>BOND
     1    1    6 ar
     2    1    2 ar
     3    1   18 1
     4    2    3 ar
     5    2   19 1
     6    3    4 ar
     7    4    5 ar
     8    4   20 1
     9    5    6 ar
    10    5   21 1
    11    6    7 1
    12    7   11 1
    13    7    8 2
    14    8    9 1
    15    8   22 1
    16    9   16 1
    17    9   10 2
    18   10   11 1
    19   10   13 1
    20   11   12 1
    21   13   14 1
    22   13   23 1
    23   13   24 1
    24   14   15 1
    25   14   25 1
    26   14   26 1
    27   15   16 am
    28   15   27 1
    29   16   17 2
@<TRIPOS>MOLECULE
ZINC17836932
   28    30     0     0     0
SMALL
USER_CHARGES

@<TRIPOS>ATOM
      1 C1         -0.0169    1.3979    0.0097 C.2       1 <0>        -0.1853
      2 C2          1.2697    1.8211   -0.0003 C.2       1 <0>         0.0002
      3 N1          2.1027    0.7421   -0.0039 N.pl3     1 <0>        -0.5131
      4 H1          3.0718    0.7768   -0.0265 H         1 <0>         0.4179
      5 C3          1.3532   -0.3880    0.0293 C.2       1 <0>        -0.0595
      6 C4          0.0021   -0.0041    0.0020 C.2       1 <0>        -0.0520
      7 C5         -1.0943   -0.9739   -0.0791 C.2       1 <0>        -0.1071
      8 C6         -1.9967   -1.1126    0.9290 C.2       1 <0>         0.0917
      9 C7         -3.1333   -2.0409    0.9857 C.2       1 <0>         0.4671
     10 O1         -3.4883   -2.9333    0.0339 O.3       1 <0>        -0.6411
     11 N2         -3.7419   -1.8425    2.1354 N.2       1 <0>        -0.6216
     12 C8         -3.1225   -0.8813    2.8371 C.2       1 <0>         0.5790
     13 N3         -2.0365   -0.4063    2.1342 N.pl3     1 <0>        -0.7300
     14 N4         -3.4935   -0.4588    4.0222 N.2       1 <0>        -0.7933
     15 C9         -1.1768   -1.8152   -1.3382 C.3       1 <0>        -0.0886
     16 C10         0.2355   -2.2351   -1.7564 C.3       1 <0>         0.1190
     17 N5          1.0531   -2.6907   -0.6424 N.am      1 <0>        -0.7102
     18 C11         1.7353   -1.8032    0.1271 C.2       1 <0>         0.6046
     19 O2          2.6289   -2.1665    0.8693 O.2       1 <0>        -0.5478
     20 H2         -0.8960    2.0251    0.0255 H         1 <0>         0.1414
     21 H3          1.5865    2.8536   -0.0047 H         1 <0>         0.1693
     22 H4         -1.4202    0.2861    2.4198 H         1 <0>         0.4015
     23 H5         -2.9917    0.2428    4.4660 H         1 <0>         0.3149
     24 H6         -1.7784   -2.7032   -1.1441 H         1 <0>         0.1113
     25 H7         -1.6347   -1.2315   -2.1368 H         1 <0>         0.0784
     26 H8          0.1592   -3.0406   -2.4868 H         1 <0>         0.0824
     27 H9          0.7284   -1.3847   -2.2274 H         1 <0>         0.0658
     28 H10         1.1115   -3.6389   -0.4469 H         1 <0>         0.4052
@<TRIPOS>BOND
     1    1    6 1
     2    1    2 2
     3    1   20 1
     4    2    3 1
     5    2   21 1
     6    3    4 1
     7    3    5 1
     8    5   18 1
     9    5    6 2
    10    6    7 1
    11    7    8 2
    12    7   15 1
    13    8   13 1
    14    8    9 1
    15    9   10 1
    16    9   11 2
    17   11   12 1
    18   12   13 1
    19   12   14 2
    20   13   22 1
    21   14   23 1
    22   15   16 1
    23   15   24 1
    24   15   25 1
    25   16   17 1
    26   16   26 1
    27   16   27 1
    28   17   18 am
    29   17   28 1
    30   18   19 2
@<TRIPOS>MOLECULE
ZINC17836932
   29    31     0     0     0
SMALL
USER_CHARGES

@<TRIPOS>ATOM
      1 C1         -0.0169    1.3974    0.0097 C.2       1 <0>        -0.1750
      2 C2          1.2702    1.8202   -0.0003 C.2       1 <0>         0.0117
      3 N1          2.1021    0.7407   -0.0039 N.pl3     1 <0>        -0.5030
      4 H1          3.0712    0.7746   -0.0262 H         1 <0>         0.4262
      5 C3          1.3523   -0.3881    0.0294 C.2       1 <0>        -0.0307
      6 C4          0.0021   -0.0041    0.0020 C.2       1 <0>        -0.1099
      7 C5         -1.0954   -0.9746   -0.0792 C.2       1 <0>         0.0238
      8 C6         -1.9958   -1.1127    0.9263 C.2       1 <0>        -0.0099
      9 C7         -3.1409   -2.0437    0.9898 C.2       1 <0>         0.5395
     10 O1         -3.4737   -2.8538    0.1403 O.2       1 <0>        -0.4718
     11 N2         -3.7411   -1.8205    2.1670 N.2       1 <0>        -0.6438
     12 C8         -3.1131   -0.8750    2.8320 C.2       1 <0>         0.6555
     13 N3         -2.0413   -0.4096    2.1336 N.pl3     1 <0>        -0.6639
     14 N4         -3.4857   -0.4219    4.0677 N.pl3     1 <0>        -0.8053
     15 C9         -1.1779   -1.8161   -1.3382 C.3       1 <0>        -0.1059
     16 C10         0.2344   -2.2364   -1.7561 C.3       1 <0>         0.1151
     17 N5          1.0518   -2.6919   -0.6420 N.am      1 <0>        -0.7155
     18 C11         1.7342   -1.8045    0.1274 C.2       1 <0>         0.5968
     19 O2          2.6276   -2.1680    0.8695 O.2       1 <0>        -0.5284
     20 H2         -0.8959    2.0248    0.0255 H         1 <0>         0.1476
     21 H3          1.5877    2.8525   -0.0051 H         1 <0>         0.1779
     22 H4         -1.4251    0.2828    2.4195 H         1 <0>         0.4256
     23 H5         -4.2600   -0.8028    4.5107 H         1 <0>         0.4329
     24 H6         -1.7797   -2.7039   -1.1440 H         1 <0>         0.1072
     25 H7         -1.6356   -1.2324   -2.1370 H         1 <0>         0.1042
     26 H8          0.1580   -3.0419   -2.4864 H         1 <0>         0.0956
     27 H9          0.7275   -1.3860   -2.2271 H         1 <0>         0.0765
     28 H10         1.1098   -3.6401   -0.4462 H         1 <0>         0.4103
     29 H11        -2.9756    0.2802    4.5009 H         1 <0>         0.4166
@<TRIPOS>BOND
     1    1    6 1
     2    1    2 2
     3    1   20 1
     4    2    3 1
     5    2   21 1
     6    3    4 1
     7    3    5 1
     8    5   18 1
     9    5    6 2
    10    6    7 1
    11    7    8 2
    12    7   15 1
    13    8   13 1
    14    8    9 1
    15    9   10 2
    16    9   11 1
    17   11   12 2
    18   12   13 1
    19   12   14 1
    20   13   22 1
    21   14   23 1
    22   14   29 1
    23   15   16 1
    24   15   24 1
    25   15   25 1
    26   16   17 1
    27   16   26 1
    28   16   27 1
    29   17   18 am
    30   17   28 1
    31   18   19 2
@<TRIPOS>MOLECULE
ZINC17836932
   28    30     0     0     0
SMALL
USER_CHARGES

@<TRIPOS>ATOM
      1 C1         -0.0169    1.3974    0.0097 C.2       1 <0>        -0.1837
      2 C2          1.2702    1.8202   -0.0003 C.2       1 <0>         0.0004
      3 N1          2.1021    0.7407   -0.0039 N.pl3     1 <0>        -0.5128
      4 H1          3.0712    0.7746   -0.0262 H         1 <0>         0.4175
      5 C3          1.3523   -0.3881    0.0294 C.2       1 <0>        -0.0610
      6 C4          0.0021   -0.0041    0.0020 C.2       1 <0>        -0.0505
      7 C5         -1.0954   -0.9746   -0.0792 C.2       1 <0>        -0.1179
      8 C6         -1.9958   -1.1127    0.9263 C.2       1 <0>         0.0730
      9 C7         -3.1409   -2.0437    0.9898 C.2       1 <0>         0.5128
     10 O1         -3.4737   -2.8538    0.1403 O.2       1 <0>        -0.5599
     11 N2         -3.7411   -1.8205    2.1670 N.2       1 <0>        -0.7181
     12 C8         -3.1131   -0.8750    2.8320 C.2       1 <0>         0.5699
     13 N3         -2.0413   -0.4096    2.1336 N.pl3     1 <0>        -0.6706
     14 N4         -3.4857   -0.4219    4.0677 N.2       1 <0>        -0.8565
     15 C9         -1.1779   -1.8161   -1.3382 C.3       1 <0>        -0.0822
     16 C10         0.2344   -2.2364   -1.7561 C.3       1 <0>         0.1194
     17 N5          1.0518   -2.6919   -0.6420 N.am      1 <0>        -0.7119
     18 C11         1.7342   -1.8045    0.1274 C.2       1 <0>         0.6056
     19 O2          2.6276   -2.1680    0.8695 O.2       1 <0>        -0.5464
     20 H2         -0.8959    2.0248    0.0255 H         1 <0>         0.1421
     21 H3          1.5877    2.8525   -0.0051 H         1 <0>         0.1694
     22 H4         -1.4251    0.2828    2.4195 H         1 <0>         0.4081
     23 H5         -1.7797   -2.7039   -1.1440 H         1 <0>         0.0999
     24 H6         -1.6356   -1.2324   -2.1370 H         1 <0>         0.0788
     25 H7          0.1580   -3.0419   -2.4864 H         1 <0>         0.0818
     26 H8          0.7275   -1.3860   -2.2271 H         1 <0>         0.0677
     27 H9          1.1098   -3.6401   -0.4462 H         1 <0>         0.4045
     28 H10        -4.2600   -0.8028    4.5107 H         1 <0>         0.3206
@<TRIPOS>BOND
     1    1    6 1
     2    1    2 2
     3    1   20 1
     4    2    3 1
     5    2   21 1
     6    3    4 1
     7    3    5 1
     8    5   18 1
     9    5    6 2
    10    6    7 1
    11    7    8 2
    12    7   15 1
    13    8   13 1
    14    8    9 1
    15    9   10 2
    16    9   11 1
    17   11   12 2
    18   12   13 1
    19   12   14 1
    20   13   22 1
    21   14   28 1
    22   15   16 1
    23   15   23 1
    24   15   24 1
    25   16   17 1
    26   16   25 1
    27   16   26 1
    28   17   18 am
    29   17   27 1
    30   18   19 2
@<TRIPOS>MOLECULE
ZINC17836932
   29    31     0     0     0
SMALL
USER_CHARGES

@<TRIPOS>ATOM
      1 C1         -0.0169    1.3974    0.0097 C.2       1 <0>        -0.1473
      2 C2          1.2702    1.8202   -0.0003 C.2       1 <0>         0.0092
      3 N1          2.1021    0.7407   -0.0039 N.pl3     1 <0>        -0.5042
      4 H1          3.0712    0.7746   -0.0262 H         1 <0>         0.4240
      5 C3          1.3523   -0.3881    0.0294 C.2       1 <0>        -0.0387
      6 C4          0.0021   -0.0041    0.0020 C.2       1 <0>        -0.0851
      7 C5         -1.0954   -0.9746   -0.0792 C.2       1 <0>         0.0169
      8 C6         -1.9958   -1.1127    0.9263 C.2       1 <0>        -0.0073
      9 C7         -2.0476   -0.3653    2.1993 C.2       1 <0>         0.5339
     10 O1         -1.2818    0.5113    2.5652 O.2       1 <0>        -0.4536
     11 N2         -3.1040   -0.8424    2.8719 N.2       1 <0>        -0.6434
     12 C8         -3.7052   -1.7839    2.1771 C.2       1 <0>         0.6538
     13 N3         -3.0830   -1.9895    0.9838 N.pl3     1 <0>        -0.6697
     14 N4         -4.8150   -2.4643    2.5968 N.pl3     1 <0>        -0.8063
     15 C9         -1.1779   -1.8161   -1.3382 C.3       1 <0>        -0.1035
     16 C10         0.2344   -2.2364   -1.7561 C.3       1 <0>         0.1166
     17 N5          1.0518   -2.6919   -0.6420 N.am      1 <0>        -0.7221
     18 C11         1.7342   -1.8045    0.1274 C.2       1 <0>         0.6004
     19 O2          2.6276   -2.1680    0.8695 O.2       1 <0>        -0.5251
     20 H2         -0.8959    2.0248    0.0255 H         1 <0>         0.1450
     21 H3          1.5877    2.8525   -0.0051 H         1 <0>         0.1764
     22 H4         -3.3442   -2.6274    0.3014 H         1 <0>         0.4230
     23 H5         -5.2100   -2.2627    3.4595 H         1 <0>         0.4328
     24 H6         -1.7797   -2.7039   -1.1440 H         1 <0>         0.0732
     25 H7         -1.6356   -1.2324   -2.1370 H         1 <0>         0.1044
     26 H8          0.1580   -3.0419   -2.4864 H         1 <0>         0.0919
     27 H9          0.7275   -1.3860   -2.2271 H         1 <0>         0.0817
     28 H10         1.1098   -3.6401   -0.4462 H         1 <0>         0.4070
     29 H11        -5.2071   -3.1483    2.0318 H         1 <0>         0.4159
@<TRIPOS>BOND
     1    1    6 1
     2    1    2 2
     3    1   20 1
     4    2    3 1
     5    2   21 1
     6    3    4 1
     7    3    5 1
     8    5   18 1
     9    5    6 2
    10    6    7 1
    11    7    8 2
    12    7   15 1
    13    8   13 1
    14    8    9 1
    15    9   10 2
    16    9   11 1
    17   11   12 2
    18   12   13 1
    19   12   14 1
    20   13   22 1
    21   14   23 1
    22   14   29 1
    23   15   16 1
    24   15   24 1
    25   15   25 1
    26   16   17 1
    27   16   26 1
    28   16   27 1
    29   17   18 am
    30   17   28 1
    31   18   19 2
@<TRIPOS>MOLECULE
ZINC17836932
   28    30     0     0     0
SMALL
USER_CHARGES

@<TRIPOS>ATOM
      1 C1         -0.0169    1.3974    0.0097 C.2       1 <0>        -0.1537
      2 C2          1.2702    1.8202   -0.0003 C.2       1 <0>        -0.0035
      3 N1          2.1021    0.7407   -0.0039 N.pl3     1 <0>        -0.5151
      4 H1          3.0712    0.7746   -0.0262 H         1 <0>         0.4151
      5 C3          1.3523   -0.3881    0.0294 C.2       1 <0>        -0.0685
      6 C4          0.0021   -0.0041    0.0020 C.2       1 <0>        -0.0220
      7 C5         -1.0954   -0.9746   -0.0792 C.2       1 <0>        -0.1234
      8 C6         -1.9958   -1.1127    0.9263 C.2       1 <0>         0.0745
      9 C7         -2.0476   -0.3653    2.1993 C.2       1 <0>         0.5098
     10 O1         -1.2818    0.5113    2.5652 O.2       1 <0>        -0.5436
     11 N2         -3.1040   -0.8424    2.8719 N.2       1 <0>        -0.7219
     12 C8         -3.7052   -1.7839    2.1771 C.2       1 <0>         0.5705
     13 N3         -3.0830   -1.9895    0.9838 N.pl3     1 <0>        -0.6745
     14 N4         -4.8150   -2.4643    2.5968 N.2       1 <0>        -0.8610
     15 C9         -1.1779   -1.8161   -1.3382 C.3       1 <0>        -0.0821
     16 C10         0.2344   -2.2364   -1.7561 C.3       1 <0>         0.1213
     17 N5          1.0518   -2.6919   -0.6420 N.am      1 <0>        -0.7182
     18 C11         1.7342   -1.8045    0.1274 C.2       1 <0>         0.6089
     19 O2          2.6276   -2.1680    0.8695 O.2       1 <0>        -0.5443
     20 H2         -0.8959    2.0248    0.0255 H         1 <0>         0.1386
     21 H3          1.5877    2.8525   -0.0051 H         1 <0>         0.1669
     22 H4         -3.3442   -2.6274    0.3014 H         1 <0>         0.4055
     23 H5         -1.7797   -2.7039   -1.1440 H         1 <0>         0.0640
     24 H6         -1.6356   -1.2324   -2.1370 H         1 <0>         0.0817
     25 H7          0.1580   -3.0419   -2.4864 H         1 <0>         0.0793
     26 H8          0.7275   -1.3860   -2.2271 H         1 <0>         0.0735
     27 H9          1.1098   -3.6401   -0.4462 H         1 <0>         0.4020
     28 H10        -5.2100   -2.2627    3.4595 H         1 <0>         0.3204
@<TRIPOS>BOND
     1    1    6 1
     2    1    2 2
     3    1   20 1
     4    2    3 1
     5    2   21 1
     6    3    4 1
     7    3    5 1
     8    5   18 1
     9    5    6 2
    10    6    7 1
    11    7    8 2
    12    7   15 1
    13    8   13 1
    14    8    9 1
    15    9   10 2
    16    9   11 1
    17   11   12 2
    18   12   13 1
    19   12   14 1
    20   13   22 1
    21   14   28 1
    22   15   16 1
    23   15   23 1
    24   15   24 1
    25   16   17 1
    26   16   25 1
    27   16   26 1
    28   17   18 am
    29   17   27 1
    30   18   19 2
@<TRIPOS>MOLECULE
ZINC13580862
   34    37     0     0     0
SMALL
USER_CHARGES

@<TRIPOS>ATOM
      1 C1         -0.0164    1.3616    0.0095 C.ar      1 <0>        -0.1568
      2 C2          1.1701    2.0826    0.0021 C.ar      1 <0>        -0.0943
      3 C3          2.3839    1.4335   -0.0114 C.ar      1 <0>        -0.1397
      4 C4          2.4279    0.0416   -0.0160 C.ar      1 <0>         0.1068
      5 C5          1.2201   -0.6857   -0.0118 C.ar      1 <0>        -0.0636
      6 C6          0.0021   -0.0041    0.0020 C.ar      1 <0>        -0.0311
      7 C7          1.5998   -2.0957   -0.0246 C.2       1 <0>        -0.0103
      8 C8          2.9976   -2.1314    0.0009 C.2       1 <0>        -0.0027
      9 N1          3.4750   -0.8572   -0.0263 N.pl3     1 <0>        -0.5583
     10 H1          4.4143   -0.6161   -0.0496 H         1 <0>         0.4147
     11 C9          3.7166   -3.4155    0.1011 C.2       1 <0>         0.6050
     12 O1          4.6730   -3.5468    0.8418 O.2       1 <0>        -0.5339
     13 N2          3.2717   -4.4452   -0.6632 N.am      1 <0>        -0.7165
     14 C10         2.3631   -4.2092   -1.7752 C.3       1 <0>         0.1179
     15 C11         0.8937   -4.1436   -1.3483 C.3       1 <0>        -0.0809
     16 C12         0.7762   -3.3011   -0.0939 C.2       1 <0>        -0.1249
     17 C13        -0.0591   -3.6520    0.9234 C.2       1 <0>         0.1038
     18 C14        -0.2770   -2.9332    2.1846 C.2       1 <0>         0.4611
     19 O2          0.3200   -1.7809    2.5644 O.3       1 <0>        -0.6166
     20 N3         -1.1620   -3.6190    2.8767 N.2       1 <0>        -0.6256
     21 C15        -1.5457   -4.7115    2.1993 C.2       1 <0>         0.5794
     22 N4         -0.8952   -4.7692    0.9859 N.pl3     1 <0>        -0.7326
     23 N5         -2.4175   -5.5935    2.6273 N.2       1 <0>        -0.7934
     24 H2         -0.9612    1.8845    0.0259 H         1 <0>         0.1183
     25 H3          1.1404    3.1622    0.0065 H         1 <0>         0.1205
     26 H4          3.3013    2.0033   -0.0188 H         1 <0>         0.1156
     27 H5         -0.9258   -0.5566    0.0071 H         1 <0>         0.1160
     28 H6          3.5626   -5.3493   -0.4656 H         1 <0>         0.4040
     29 H7          2.6315   -3.2670   -2.2531 H         1 <0>         0.0751
     30 H8          2.4814   -5.0136   -2.5012 H         1 <0>         0.0826
     31 H9          0.3026   -3.6934   -2.1458 H         1 <0>         0.0832
     32 H10         0.5278   -5.1503   -1.1465 H         1 <0>         0.0637
     33 H11        -0.9968   -5.4546    0.3070 H         1 <0>         0.3993
     34 H12        -2.6425   -6.3597    2.0767 H         1 <0>         0.3141
@<TRIPOS>BOND
     1    1    6 ar
     2    1    2 ar
     3    1   24 1
     4    2    3 ar
     5    2   25 1
     6    3    4 ar
     7    3   26 1
     8    4    9 1
     9    4    5 ar
    10    5    6 ar
    11    5    7 1
    12    6   27 1
    13    7   16 1
    14    7    8 2
    15    8    9 1
    16    8   11 1
    17    9   10 1
    18   11   12 2
    19   11   13 am
    20   13   14 1
    21   13   28 1
    22   14   15 1
    23   14   29 1
    24   14   30 1
    25   15   16 1
    26   15   31 1
    27   15   32 1
    28   16   17 2
    29   17   22 1
    30   17   18 1
    31   18   19 1
    32   18   20 2
    33   20   21 1
    34   21   22 1
    35   21   23 2
    36   22   33 1
    37   23   34 1
@<TRIPOS>MOLECULE
ZINC13580862
   35    38     0     0     0
SMALL
USER_CHARGES

@<TRIPOS>ATOM
      1 C1         -0.0164    1.3616    0.0095 C.ar      1 <0>        -0.1343
      2 C2          1.1701    2.0828    0.0021 C.ar      1 <0>        -0.0896
      3 C3          2.3839    1.4337   -0.0123 C.ar      1 <0>        -0.1230
      4 C4          2.4280    0.0419   -0.0181 C.ar      1 <0>         0.1037
      5 C5          1.2200   -0.6856   -0.0124 C.ar      1 <0>        -0.0867
      6 C6          0.0021   -0.0041    0.0020 C.ar      1 <0>        -0.0711
      7 C7          1.6004   -2.0952   -0.0247 C.2       1 <0>        -0.1173
      8 C8          2.9975   -2.1301   -0.0021 C.2       1 <0>         0.0496
      9 N1          3.4746   -0.8574   -0.0312 N.pl3     1 <0>        -0.5456
     10 H1          4.4138   -0.6165   -0.0576 H         1 <0>         0.4254
     11 C9          3.7172   -3.4156    0.0981 C.2       1 <0>         0.5915
     12 O1          4.6750   -3.5459    0.8367 O.2       1 <0>        -0.5186
     13 N2          3.2708   -4.4465   -0.6635 N.am      1 <0>        -0.7114
     14 C10         2.3605   -4.2128   -1.7747 C.3       1 <0>         0.1119
     15 C11         0.8920   -4.1471   -1.3455 C.3       1 <0>        -0.1049
     16 C12         0.7767   -3.3024   -0.0905 C.2       1 <0>         0.0208
     17 C13        -0.0540   -3.6515    0.9268 C.2       1 <0>        -0.0037
     18 C14        -0.9343   -4.8342    1.0059 C.2       1 <0>         0.5400
     19 O2         -1.0659   -5.7065    0.1629 O.2       1 <0>        -0.4699
     20 N3         -1.5593   -4.7585    2.1891 N.2       1 <0>        -0.6424
     21 C15        -1.1761   -3.6839    2.8438 C.2       1 <0>         0.6564
     22 N4         -0.2590   -2.9736    2.1312 N.pl3     1 <0>        -0.6643
     23 N5         -1.6360   -3.3285    4.0823 N.pl3     1 <0>        -0.8045
     24 H2         -0.9612    1.8845    0.0259 H         1 <0>         0.1279
     25 H3          1.1404    3.1624    0.0072 H         1 <0>         0.1316
     26 H4          3.3013    2.0035   -0.0195 H         1 <0>         0.1265
     27 H5         -0.9258   -0.5567    0.0073 H         1 <0>         0.1227
     28 H6          3.5624   -5.3500   -0.4649 H         1 <0>         0.4132
     29 H7          2.6277   -3.2713   -2.2546 H         1 <0>         0.0772
     30 H8          2.4781   -5.0184   -2.4994 H         1 <0>         0.0992
     31 H9          0.2993   -3.6983   -2.1426 H         1 <0>         0.1051
     32 H10         0.5268   -5.1537   -1.1417 H         1 <0>         0.1090
     33 H11         0.1708   -2.1491    2.4074 H         1 <0>         0.4254
     34 H12        -2.2886   -3.8851    4.5354 H         1 <0>         0.4332
     35 H13        -1.3094   -2.5201    4.5073 H         1 <0>         0.4168
@<TRIPOS>BOND
     1    1    6 ar
     2    1    2 ar
     3    1   24 1
     4    2    3 ar
     5    2   25 1
     6    3    4 ar
     7    3   26 1
     8    4    9 1
     9    4    5 ar
    10    5    6 ar
    11    5    7 1
    12    6   27 1
    13    7   16 1
    14    7    8 2
    15    8    9 1
    16    8   11 1
    17    9   10 1
    18   11   12 2
    19   11   13 am
    20   13   14 1
    21   13   28 1
    22   14   15 1
    23   14   29 1
    24   14   30 1
    25   15   16 1
    26   15   31 1
    27   15   32 1
    28   16   17 2
    29   17   22 1
    30   17   18 1
    31   18   19 2
    32   18   20 1
    33   20   21 2
    34   21   22 1
    35   21   23 1
    36   22   33 1
    37   23   34 1
    38   23   35 1
@<TRIPOS>MOLECULE
ZINC13580862
   34    37     0     0     0
SMALL
USER_CHARGES

@<TRIPOS>ATOM
      1 C1         -0.0164    1.3616    0.0095 C.ar      1 <0>        -0.1495
      2 C2          1.1701    2.0828    0.0021 C.ar      1 <0>        -0.0925
      3 C3          2.3839    1.4337   -0.0123 C.ar      1 <0>        -0.1344
      4 C4          2.4280    0.0419   -0.0181 C.ar      1 <0>         0.1053
      5 C5          1.2200   -0.6856   -0.0124 C.ar      1 <0>        -0.0962
      6 C6          0.0021   -0.0041    0.0020 C.ar      1 <0>        -0.0532
      7 C7          1.6004   -2.0952   -0.0247 C.2       1 <0>        -0.0481
      8 C8          2.9975   -2.1301   -0.0021 C.2       1 <0>         0.0087
      9 N1          3.4746   -0.8574   -0.0312 N.pl3     1 <0>        -0.5549
     10 H1          4.4138   -0.6165   -0.0576 H         1 <0>         0.4175
     11 C9          3.7172   -3.4156    0.0981 C.2       1 <0>         0.6012
     12 O1          4.6750   -3.5459    0.8367 O.2       1 <0>        -0.5370
     13 N2          3.2708   -4.4465   -0.6635 N.am      1 <0>        -0.7082
     14 C10         2.3605   -4.2128   -1.7747 C.3       1 <0>         0.1160
     15 C11         0.8920   -4.1471   -1.3455 C.3       1 <0>        -0.0808
     16 C12         0.7767   -3.3024   -0.0905 C.2       1 <0>        -0.1251
     17 C13        -0.0540   -3.6515    0.9268 C.2       1 <0>         0.0825
     18 C14        -0.9343   -4.8342    1.0059 C.2       1 <0>         0.5128
     19 O2         -1.0659   -5.7065    0.1629 O.2       1 <0>        -0.5579
     20 N3         -1.5593   -4.7585    2.1891 N.2       1 <0>        -0.7159
     21 C15        -1.1761   -3.6839    2.8438 C.2       1 <0>         0.5690
     22 N4         -0.2590   -2.9736    2.1312 N.pl3     1 <0>        -0.6693
     23 N5         -1.6360   -3.3285    4.0823 N.2       1 <0>        -0.8523
     24 H2         -0.9612    1.8845    0.0259 H         1 <0>         0.1227
     25 H3          1.1404    3.1624    0.0072 H         1 <0>         0.1245
     26 H4          3.3013    2.0035   -0.0195 H         1 <0>         0.1193
     27 H5         -0.9258   -0.5567    0.0073 H         1 <0>         0.1234
     28 H6          3.5624   -5.3500   -0.4649 H         1 <0>         0.4073
     29 H7          2.6277   -3.2713   -2.2546 H         1 <0>         0.0683
     30 H8          2.4781   -5.0184   -2.4994 H         1 <0>         0.0854
     31 H9          0.2993   -3.6983   -2.1426 H         1 <0>         0.0798
     32 H10         0.5268   -5.1537   -1.1417 H         1 <0>         0.1019
     33 H11         0.1708   -2.1491    2.4074 H         1 <0>         0.4080
     34 H12        -2.2886   -3.8851    4.5354 H         1 <0>         0.3215
@<TRIPOS>BOND
     1    1    6 ar
     2    1    2 ar
     3    1   24 1
     4    2    3 ar
     5    2   25 1
     6    3    4 ar
     7    3   26 1
     8    4    9 1
     9    4    5 ar
    10    5    6 ar
    11    5    7 1
    12    6   27 1
    13    7   16 1
    14    7    8 2
    15    8    9 1
    16    8   11 1
    17    9   10 1
    18   11   12 2
    19   11   13 am
    20   13   14 1
    21   13   28 1
    22   14   15 1
    23   14   29 1
    24   14   30 1
    25   15   16 1
    26   15   31 1
    27   15   32 1
    28   16   17 2
    29   17   22 1
    30   17   18 1
    31   18   19 2
    32   18   20 1
    33   20   21 2
    34   21   22 1
    35   21   23 1
    36   22   33 1
    37   23   34 1
@<TRIPOS>MOLECULE
ZINC13580862
   34    37     0     0     0
SMALL
USER_CHARGES

@<TRIPOS>ATOM
      1 C1         -0.0164    1.3616    0.0095 C.ar      1 <0>        -0.1551
      2 C2          1.1701    2.0828    0.0021 C.ar      1 <0>        -0.0941
      3 C3          2.3839    1.4337   -0.0123 C.ar      1 <0>        -0.1381
      4 C4          2.4280    0.0419   -0.0181 C.ar      1 <0>         0.1061
      5 C5          1.2200   -0.6856   -0.0124 C.ar      1 <0>        -0.0710
      6 C6          0.0021   -0.0041    0.0020 C.ar      1 <0>        -0.0369
      7 C7          1.6004   -2.0952   -0.0247 C.2       1 <0>        -0.0149
      8 C8          2.9975   -2.1301   -0.0021 C.2       1 <0>        -0.0003
      9 N1          3.4746   -0.8574   -0.0312 N.pl3     1 <0>        -0.5571
     10 H1          4.4138   -0.6165   -0.0576 H         1 <0>         0.4154
     11 C9          3.7172   -3.4156    0.0981 C.2       1 <0>         0.6044
     12 O1          4.6750   -3.5459    0.8367 O.2       1 <0>        -0.5344
     13 N2          3.2708   -4.4465   -0.6635 N.am      1 <0>        -0.7147
     14 C10         2.3605   -4.2128   -1.7747 C.3       1 <0>         0.1176
     15 C11         0.8920   -4.1471   -1.3455 C.3       1 <0>        -0.0808
     16 C12         0.7767   -3.3024   -0.0905 C.2       1 <0>        -0.1328
     17 C13        -0.0540   -3.6515    0.9268 C.2       1 <0>         0.0841
     18 C14        -0.2754   -2.9318    2.1968 C.2       1 <0>         0.5077
     19 O2          0.2554   -1.8917    2.5509 O.2       1 <0>        -0.5381
     20 N3         -1.1765   -3.6488    2.8826 N.2       1 <0>        -0.7200
     21 C15        -1.5350   -4.7131    2.1976 C.2       1 <0>         0.5694
     22 N4         -0.8916   -4.7675    0.9991 N.pl3     1 <0>        -0.6726
     23 N5         -2.4406   -5.6422    2.6314 N.2       1 <0>        -0.8579
     24 H2         -0.9612    1.8845    0.0259 H         1 <0>         0.1192
     25 H3          1.1404    3.1624    0.0072 H         1 <0>         0.1216
     26 H4          3.3013    2.0035   -0.0195 H         1 <0>         0.1166
     27 H5         -0.9258   -0.5567    0.0073 H         1 <0>         0.1172
     28 H6          3.5624   -5.3500   -0.4649 H         1 <0>         0.4049
     29 H7          2.6277   -3.2713   -2.2546 H         1 <0>         0.0741
     30 H8          2.4781   -5.0184   -2.4994 H         1 <0>         0.0833
     31 H9          0.2993   -3.6983   -2.1426 H         1 <0>         0.0830
     32 H10         0.5268   -5.1537   -1.1417 H         1 <0>         0.0664
     33 H11        -0.9940   -5.4545    0.3220 H         1 <0>         0.4063
     34 H12        -2.8651   -5.5383    3.4973 H         1 <0>         0.3213
@<TRIPOS>BOND
     1    1    6 ar
     2    1    2 ar
     3    1   24 1
     4    2    3 ar
     5    2   25 1
     6    3    4 ar
     7    3   26 1
     8    4    9 1
     9    4    5 ar
    10    5    6 ar
    11    5    7 1
    12    6   27 1
    13    7   16 1
    14    7    8 2
    15    8    9 1
    16    8   11 1
    17    9   10 1
    18   11   12 2
    19   11   13 am
    20   13   14 1
    21   13   28 1
    22   14   15 1
    23   14   29 1
    24   14   30 1
    25   15   16 1
    26   15   31 1
    27   15   32 1
    28   16   17 2
    29   17   22 1
    30   17   18 1
    31   18   19 2
    32   18   20 1
    33   20   21 2
    34   21   22 1
    35   21   23 1
    36   22   33 1
    37   23   34 1
@<TRIPOS>MOLECULE
ZINC13580862
   35    38     0     0     0
SMALL
USER_CHARGES

@<TRIPOS>ATOM
      1 C1         -0.0164    1.3616    0.0095 C.ar      1 <0>        -0.1383
      2 C2          1.1701    2.0828    0.0021 C.ar      1 <0>        -0.0901
      3 C3          2.3839    1.4337   -0.0123 C.ar      1 <0>        -0.1266
      4 C4          2.4280    0.0419   -0.0181 C.ar      1 <0>         0.1046
      5 C5          1.2200   -0.6856   -0.0124 C.ar      1 <0>        -0.0646
      6 C6          0.0021   -0.0041    0.0020 C.ar      1 <0>        -0.0552
      7 C7          1.6004   -2.0952   -0.0247 C.2       1 <0>        -0.0884
      8 C8          2.9975   -2.1301   -0.0021 C.2       1 <0>         0.0410
      9 N1          3.4746   -0.8574   -0.0312 N.pl3     1 <0>        -0.5469
     10 H1          4.4138   -0.6165   -0.0576 H         1 <0>         0.4234
     11 C9          3.7172   -3.4156    0.0981 C.2       1 <0>         0.5951
     12 O1          4.6750   -3.5459    0.8367 O.2       1 <0>        -0.5149
     13 N2          3.2708   -4.4465   -0.6635 N.am      1 <0>        -0.7182
     14 C10         2.3605   -4.2128   -1.7747 C.3       1 <0>         0.1131
     15 C11         0.8920   -4.1471   -1.3455 C.3       1 <0>        -0.1026
     16 C12         0.7767   -3.3024   -0.0905 C.2       1 <0>         0.0118
     17 C13        -0.0540   -3.6515    0.9268 C.2       1 <0>        -0.0010
     18 C14        -0.2754   -2.9318    2.1968 C.2       1 <0>         0.5312
     19 O2          0.2554   -1.8917    2.5509 O.2       1 <0>        -0.4476
     20 N3         -1.1765   -3.6488    2.8826 N.2       1 <0>        -0.6417
     21 C15        -1.5350   -4.7131    2.1976 C.2       1 <0>         0.6536
     22 N4         -0.8916   -4.7675    0.9991 N.pl3     1 <0>        -0.6693
     23 N5         -2.4406   -5.6422    2.6314 N.pl3     1 <0>        -0.8057
     24 H2         -0.9612    1.8845    0.0259 H         1 <0>         0.1253
     25 H3          1.1404    3.1624    0.0072 H         1 <0>         0.1293
     26 H4          3.3013    2.0035   -0.0195 H         1 <0>         0.1242
     27 H5         -0.9258   -0.5567    0.0073 H         1 <0>         0.1167
     28 H6          3.5624   -5.3500   -0.4649 H         1 <0>         0.4100
     29 H7          2.6277   -3.2713   -2.2546 H         1 <0>         0.0824
     30 H8          2.4781   -5.0184   -2.4994 H         1 <0>         0.0958
     31 H9          0.2993   -3.6983   -2.1426 H         1 <0>         0.1056
     32 H10         0.5268   -5.1537   -1.1417 H         1 <0>         0.0754
     33 H11        -0.9940   -5.4545    0.3220 H         1 <0>         0.4235
     34 H12        -2.8651   -5.5383    3.4973 H         1 <0>         0.4331
     35 H13        -2.6582   -6.4049    2.0729 H         1 <0>         0.4161
@<TRIPOS>BOND
     1    1    6 ar
     2    1    2 ar
     3    1   24 1
     4    2    3 ar
     5    2   25 1
     6    3    4 ar
     7    3   26 1
     8    4    9 1
     9    4    5 ar
    10    5    6 ar
    11    5    7 1
    12    6   27 1
    13    7   16 1
    14    7    8 2
    15    8    9 1
    16    8   11 1
    17    9   10 1
    18   11   12 2
    19   11   13 am
    20   13   14 1
    21   13   28 1
    22   14   15 1
    23   14   29 1
    24   14   30 1
    25   15   16 1
    26   15   31 1
    27   15   32 1
    28   16   17 2
    29   17   22 1
    30   17   18 1
    31   18   19 2
    32   18   20 1
    33   20   21 2
    34   21   22 1
    35   21   23 1
    36   22   33 1
    37   23   34 1
    38   23   35 1
@<TRIPOS>MOLECULE
ZINC17175232
   28    30     0     0     0
SMALL
USER_CHARGES

@<TRIPOS>ATOM
      1 C1         -0.0163    1.3518    0.0095 C.2       1 <0>        -0.1320
      2 C2          1.3148    1.7902   -0.0009 C.2       1 <0>        -0.0473
      3 C3          2.1177    0.6382   -0.0541 C.2       1 <0>        -0.0284
      4 N1          1.2938   -0.4402   -0.0184 N.pl3     1 <0>        -0.4947
      5 H1          1.5772   -1.3679   -0.0093 H         1 <0>         0.4228
      6 C4          0.0021   -0.0041    0.0020 C.2       1 <0>         0.0135
      7 Br1        -1.5265   -1.1172    0.0181 Br        1 <0>         0.0029
      8 C5          3.5766    0.7389   -0.1870 C.2       1 <0>         0.6051
      9 O1          4.1929    0.0169   -0.9490 O.2       1 <0>        -0.5408
     10 N2          4.2121    1.6686    0.5723 N.am      1 <0>        -0.7065
     11 C6          3.5429    2.2863    1.7070 C.3       1 <0>         0.1163
     12 C7          2.6757    3.4872    1.3174 C.3       1 <0>        -0.0871
     13 C8          1.8765    3.1423    0.0746 C.2       1 <0>        -0.1143
     14 C9          1.6898    4.0463   -0.9242 C.2       1 <0>         0.1008
     15 C10         2.1957    5.4237   -0.9853 C.2       1 <0>         0.4669
     16 O2          2.9467    6.0446   -0.0478 O.3       1 <0>        -0.6390
     17 N3          1.7827    5.9409   -2.1226 N.2       1 <0>        -0.6194
     18 C11         1.0592    5.0459   -2.8124 C.2       1 <0>         0.5785
     19 N4          0.9806    3.8605   -2.1141 N.pl3     1 <0>        -0.7302
     20 N5          0.5113    5.2654   -3.9838 N.2       1 <0>        -0.7896
     21 H2         -0.8955    1.9789    0.0252 H         1 <0>         0.1528
     22 H3          5.1227    1.9234    0.3559 H         1 <0>         0.4078
     23 H4          2.9112    1.5403    2.1892 H         1 <0>         0.0663
     24 H5          4.2974    2.6164    2.4210 H         1 <0>         0.0851
     25 H6          1.9946    3.7249    2.1345 H         1 <0>         0.0799
     26 H7          3.3144    4.3465    1.1128 H         1 <0>         0.1130
     27 H8          0.5205    3.0537   -2.3935 H         1 <0>         0.4017
     28 H9          0.0011    4.5649   -4.4195 H         1 <0>         0.3159
@<TRIPOS>BOND
     1    1    6 2
     2    1    2 1
     3    1   21 1
     4    2   13 1
     5    2    3 2
     6    3    4 1
     7    3    8 1
     8    4    5 1
     9    4    6 1
    10    6    7 1
    11    8    9 2
    12    8   10 am
    13   10   11 1
    14   10   22 1
    15   11   12 1
    16   11   23 1
    17   11   24 1
    18   12   13 1
    19   12   25 1
    20   12   26 1
    21   13   14 2
    22   14   19 1
    23   14   15 1
    24   15   16 1
    25   15   17 2
    26   17   18 1
    27   18   19 1
    28   18   20 2
    29   19   27 1
    30   20   28 1
@<TRIPOS>MOLECULE
ZINC17175232
   28    30     0     0     0
SMALL
USER_CHARGES

@<TRIPOS>ATOM
      1 C1         -0.0163    1.3518    0.0095 C.2       1 <0>        -0.1303
      2 C2          1.3148    1.7902   -0.0009 C.2       1 <0>        -0.0482
      3 C3          2.1177    0.6382   -0.0541 C.2       1 <0>        -0.0280
      4 N1          1.2938   -0.4402   -0.0184 N.pl3     1 <0>        -0.4947
      5 H1          1.5772   -1.3679   -0.0093 H         1 <0>         0.4228
      6 C4          0.0021   -0.0041    0.0020 C.2       1 <0>         0.0141
      7 Br1        -1.5265   -1.1172    0.0181 Br        1 <0>         0.0028
      8 C5          3.5766    0.7389   -0.1870 C.2       1 <0>         0.6054
      9 O1          4.1929    0.0169   -0.9490 O.2       1 <0>        -0.5403
     10 N2          4.2121    1.6686    0.5723 N.am      1 <0>        -0.7071
     11 C6          3.5429    2.2863    1.7070 C.3       1 <0>         0.1165
     12 C7          2.6757    3.4872    1.3174 C.3       1 <0>        -0.0863
     13 C8          1.8765    3.1423    0.0746 C.2       1 <0>        -0.1135
     14 C9          1.6898    4.0463   -0.9242 C.2       1 <0>         0.1071
     15 C10         2.1957    5.4237   -0.9853 C.2       1 <0>         0.4664
     16 O2          2.9467    6.0446   -0.0478 O.3       1 <0>        -0.6433
     17 N3          1.7827    5.9409   -2.1226 N.2       1 <0>        -0.6748
     18 C11         1.0592    5.0459   -2.8124 C.2       1 <0>         0.5688
     19 N4          0.9806    3.8605   -2.1141 N.pl3     1 <0>        -0.6803
     20 N5          0.5113    5.2654   -3.9838 N.2       1 <0>        -0.8118
     21 H2         -0.8955    1.9789    0.0252 H         1 <0>         0.1537
     22 H3          5.1227    1.9234    0.3559 H         1 <0>         0.4075
     23 H4          2.9112    1.5403    2.1892 H         1 <0>         0.0668
     24 H5          4.2974    2.6164    2.4210 H         1 <0>         0.0848
     25 H6          1.9946    3.7249    2.1345 H         1 <0>         0.0802
     26 H7          3.3144    4.3465    1.1128 H         1 <0>         0.1125
     27 H8          0.6165    6.1282   -4.4144 H         1 <0>         0.3376
     28 H9          0.5205    3.0537   -2.3935 H         1 <0>         0.4116
@<TRIPOS>BOND
     1    1    6 2
     2    1    2 1
     3    1   21 1
     4    2   13 1
     5    2    3 2
     6    3    4 1
     7    3    8 1
     8    4    5 1
     9    4    6 1
    10    6    7 1
    11    8    9 2
    12    8   10 am
    13   10   11 1
    14   10   22 1
    15   11   12 1
    16   11   23 1
    17   11   24 1
    18   12   13 1
    19   12   25 1
    20   12   26 1
    21   13   14 2
    22   14   19 1
    23   14   15 1
    24   15   16 1
    25   15   17 2
    26   17   18 1
    27   18   19 1
    28   18   20 2
    29   19   28 1
    30   20   27 1
@<TRIPOS>MOLECULE
ZINC17175232
   28    30     0     0     0
SMALL
USER_CHARGES

@<TRIPOS>ATOM
      1 C1         -0.0163    1.3522    0.0095 C.2       1 <0>        -0.1304
      2 C2          1.3145    1.7899   -0.0009 C.2       1 <0>        -0.0459
      3 C3          2.1168    0.6384   -0.0541 C.2       1 <0>        -0.0300
      4 N1          1.2937   -0.4395   -0.0184 N.pl3     1 <0>        -0.4944
      5 H1          1.5775   -1.3670   -0.0089 H         1 <0>         0.4225
      6 C4          0.0021   -0.0041    0.0020 C.2       1 <0>         0.0140
      7 Br1        -1.5262   -1.1176    0.0181 Br        1 <0>         0.0029
      8 C5          3.5767    0.7391   -0.1874 C.2       1 <0>         0.6062
      9 O1          4.1928    0.0172   -0.9493 O.2       1 <0>        -0.5393
     10 N2          4.2125    1.6688    0.5718 N.am      1 <0>        -0.7083
     11 C6          3.5436    2.2865    1.7066 C.3       1 <0>         0.1168
     12 C7          2.6766    3.4877    1.3173 C.3       1 <0>        -0.0808
     13 C8          1.8770    3.1431    0.0747 C.2       1 <0>        -0.1250
     14 C9          1.6904    4.0451   -0.9215 C.2       1 <0>         0.0817
     15 C10         2.1965    5.4312   -0.9893 C.2       1 <0>         0.5130
     16 O2          2.8748    6.0047   -0.1528 O.2       1 <0>        -0.5579
     17 N3          1.7619    5.9328   -2.1536 N.2       1 <0>        -0.7162
     18 C11         1.0563    5.0350   -2.8068 C.2       1 <0>         0.5692
     19 N4          0.9819    3.8661   -2.1131 N.pl3     1 <0>        -0.6705
     20 N5          0.4771    5.2468   -4.0277 N.2       1 <0>        -0.8527
     21 H2         -0.8954    1.9794    0.0253 H         1 <0>         0.1535
     22 H3          5.1230    1.9236    0.3550 H         1 <0>         0.4071
     23 H4          2.9118    1.5406    2.1889 H         1 <0>         0.0681
     24 H5          4.2983    2.6165    2.4205 H         1 <0>         0.0845
     25 H6          1.9957    3.7255    2.1345 H         1 <0>         0.0803
     26 H7          3.3154    4.3469    1.1126 H         1 <0>         0.1016
     27 H8          0.5214    3.0596   -2.3928 H         1 <0>         0.4083
     28 H9          0.5746    6.1055   -4.4684 H         1 <0>         0.3216
@<TRIPOS>BOND
     1    1    6 2
     2    1    2 1
     3    1   21 1
     4    2   13 1
     5    2    3 2
     6    3    4 1
     7    3    8 1
     8    4    5 1
     9    4    6 1
    10    6    7 1
    11    8    9 2
    12    8   10 am
    13   10   11 1
    14   10   22 1
    15   11   12 1
    16   11   23 1
    17   11   24 1
    18   12   13 1
    19   12   25 1
    20   12   26 1
    21   13   14 2
    22   14   19 1
    23   14   15 1
    24   15   16 2
    25   15   17 1
    26   17   18 2
    27   18   19 1
    28   18   20 1
    29   19   27 1
    30   20   28 1
@<TRIPOS>MOLECULE
ZINC17175232
   29    31     0     0     0
SMALL
USER_CHARGES

@<TRIPOS>ATOM
      1 C1         -0.0163    1.3522    0.0095 C.2       1 <0>        -0.1233
      2 C2          1.3145    1.7899   -0.0009 C.2       1 <0>        -0.1048
      3 C3          2.1168    0.6384   -0.0541 C.2       1 <0>        -0.0013
      4 N1          1.2937   -0.4395   -0.0184 N.pl3     1 <0>        -0.4850
      5 H1          1.5775   -1.3670   -0.0089 H         1 <0>         0.4308
      6 C4          0.0021   -0.0041    0.0020 C.2       1 <0>         0.0189
      7 Br1        -1.5262   -1.1176    0.0181 Br        1 <0>         0.0227
      8 C5          3.5767    0.7391   -0.1874 C.2       1 <0>         0.5973
      9 O1          4.1928    0.0172   -0.9493 O.2       1 <0>        -0.5214
     10 N2          4.2125    1.6688    0.5718 N.am      1 <0>        -0.7121
     11 C6          3.5436    2.2865    1.7066 C.3       1 <0>         0.1126
     12 C7          2.6766    3.4877    1.3173 C.3       1 <0>        -0.1046
     13 C8          1.8770    3.1431    0.0747 C.2       1 <0>         0.0171
     14 C9          1.6904    4.0451   -0.9215 C.2       1 <0>        -0.0013
     15 C10         2.1965    5.4312   -0.9893 C.2       1 <0>         0.5402
     16 O2          2.8748    6.0047   -0.1528 O.2       1 <0>        -0.4687
     17 N3          1.7619    5.9328   -2.1536 N.2       1 <0>        -0.6424
     18 C11         1.0563    5.0350   -2.8068 C.2       1 <0>         0.6571
     19 N4          0.9819    3.8661   -2.1131 N.pl3     1 <0>        -0.6656
     20 N5          0.4771    5.2468   -4.0277 N.pl3     1 <0>        -0.8040
     21 H2         -0.8954    1.9794    0.0253 H         1 <0>         0.1589
     22 H3          5.1230    1.9236    0.3550 H         1 <0>         0.4127
     23 H4          2.9118    1.5406    2.1889 H         1 <0>         0.0771
     24 H5          4.2983    2.6165    2.4205 H         1 <0>         0.0983
     25 H6          1.9957    3.7255    2.1345 H         1 <0>         0.1057
     26 H7          3.3154    4.3469    1.1126 H         1 <0>         0.1089
     27 H8          0.5214    3.0596   -2.3928 H         1 <0>         0.4258
     28 H9          0.5746    6.1055   -4.4684 H         1 <0>         0.4334
     29 H10        -0.0311    4.5384   -4.4529 H         1 <0>         0.4171
@<TRIPOS>BOND
     1    1    6 2
     2    1    2 1
     3    1   21 1
     4    2   13 1
     5    2    3 2
     6    3    4 1
     7    3    8 1
     8    4    5 1
     9    4    6 1
    10    6    7 1
    11    8    9 2
    12    8   10 am
    13   10   11 1
    14   10   22 1
    15   11   12 1
    16   11   23 1
    17   11   24 1
    18   12   13 1
    19   12   25 1
    20   12   26 1
    21   13   14 2
    22   14   19 1
    23   14   15 1
    24   15   16 2
    25   15   17 1
    26   17   18 2
    27   18   19 1
    28   18   20 1
    29   19   27 1
    30   20   28 1
    31   20   29 1
@<TRIPOS>MOLECULE
ZINC17175232
   29    31     0     0     0
SMALL
USER_CHARGES

@<TRIPOS>ATOM
      1 C1         -0.0163    1.3522    0.0095 C.2       1 <0>        -0.0939
      2 C2          1.3145    1.7899   -0.0009 C.2       1 <0>        -0.0817
      3 C3          2.1168    0.6384   -0.0541 C.2       1 <0>        -0.0085
      4 N1          1.2937   -0.4395   -0.0184 N.pl3     1 <0>        -0.4867
      5 H1          1.5775   -1.3670   -0.0089 H         1 <0>         0.4287
      6 C4          0.0021   -0.0041    0.0020 C.2       1 <0>         0.0190
      7 Br1        -1.5262   -1.1176    0.0181 Br        1 <0>         0.0181
      8 C5          3.5767    0.7391   -0.1874 C.2       1 <0>         0.6011
      9 O1          4.1928    0.0172   -0.9493 O.2       1 <0>        -0.5178
     10 N2          4.2125    1.6688    0.5718 N.am      1 <0>        -0.7188
     11 C6          3.5436    2.2865    1.7066 C.3       1 <0>         0.1140
     12 C7          2.6766    3.4877    1.3173 C.3       1 <0>        -0.1023
     13 C8          1.8770    3.1431    0.0747 C.2       1 <0>         0.0104
     14 C9          1.6904    4.0451   -0.9215 C.2       1 <0>         0.0011
     15 C10         0.9363    3.8581   -2.1778 C.2       1 <0>         0.5331
     16 O2          0.3478    2.8508   -2.5352 O.2       1 <0>        -0.4515
     17 N3          1.0276    5.0160   -2.8462 N.2       1 <0>        -0.6417
     18 C11         1.7387    5.8869   -2.1633 C.2       1 <0>         0.6550
     19 N4          2.1642    5.3588   -0.9829 N.pl3     1 <0>        -0.6695
     20 N5          2.0107    7.1602   -2.5824 N.pl3     1 <0>        -0.8051
     21 H2         -0.8954    1.9794    0.0253 H         1 <0>         0.1559
     22 H3          5.1230    1.9236    0.3550 H         1 <0>         0.4096
     23 H4          2.9118    1.5406    2.1889 H         1 <0>         0.0822
     24 H5          4.2983    2.6165    2.4205 H         1 <0>         0.0947
     25 H6          1.9957    3.7255    2.1345 H         1 <0>         0.1060
     26 H7          3.3154    4.3469    1.1126 H         1 <0>         0.0753
     27 H8          2.6983    5.8097   -0.3104 H         1 <0>         0.4239
     28 H9          1.6708    7.4730   -3.4354 H         1 <0>         0.4333
     29 H10         2.5433    7.7504   -2.0267 H         1 <0>         0.4164
@<TRIPOS>BOND
     1    1    6 2
     2    1    2 1
     3    1   21 1
     4    2   13 1
     5    2    3 2
     6    3    4 1
     7    3    8 1
     8    4    5 1
     9    4    6 1
    10    6    7 1
    11    8    9 2
    12    8   10 am
    13   10   11 1
    14   10   22 1
    15   11   12 1
    16   11   23 1
    17   11   24 1
    18   12   13 1
    19   12   25 1
    20   12   26 1
    21   13   14 2
    22   14   19 1
    23   14   15 1
    24   15   16 2
    25   15   17 1
    26   17   18 2
    27   18   19 1
    28   18   20 1
    29   19   27 1
    30   20   28 1
    31   20   29 1
@<TRIPOS>MOLECULE
ZINC17175232
   28    30     0     0     0
SMALL
USER_CHARGES

@<TRIPOS>ATOM
      1 C1         -0.0163    1.3522    0.0095 C.2       1 <0>        -0.0983
      2 C2          1.3145    1.7899   -0.0009 C.2       1 <0>        -0.0189
      3 C3          2.1168    0.6384   -0.0541 C.2       1 <0>        -0.0368
      4 N1          1.2937   -0.4395   -0.0184 N.pl3     1 <0>        -0.4973
      5 H1          1.5775   -1.3670   -0.0089 H         1 <0>         0.4202
      6 C4          0.0021   -0.0041    0.0020 C.2       1 <0>         0.0129
      7 Br1        -1.5262   -1.1176    0.0181 Br        1 <0>        -0.0030
      8 C5          3.5767    0.7391   -0.1874 C.2       1 <0>         0.6096
      9 O1          4.1928    0.0172   -0.9493 O.2       1 <0>        -0.5369
     10 N2          4.2125    1.6688    0.5718 N.am      1 <0>        -0.7148
     11 C6          3.5436    2.2865    1.7066 C.3       1 <0>         0.1186
     12 C7          2.6766    3.4877    1.3173 C.3       1 <0>        -0.0808
     13 C8          1.8770    3.1431    0.0747 C.2       1 <0>        -0.1306
     14 C9          1.6904    4.0451   -0.9215 C.2       1 <0>         0.0830
     15 C10         0.9363    3.8581   -2.1778 C.2       1 <0>         0.5087
     16 O2          0.3478    2.8508   -2.5352 O.2       1 <0>        -0.5423
     17 N3          1.0276    5.0160   -2.8462 N.2       1 <0>        -0.7196
     18 C11         1.7387    5.8869   -2.1633 C.2       1 <0>         0.5696
     19 N4          2.1642    5.3588   -0.9829 N.pl3     1 <0>        -0.6730
     20 N5          2.0107    7.1602   -2.5824 N.2       1 <0>        -0.8577
     21 H2         -0.8954    1.9794    0.0253 H         1 <0>         0.1497
     22 H3          5.1230    1.9236    0.3550 H         1 <0>         0.4047
     23 H4          2.9118    1.5406    2.1889 H         1 <0>         0.0739
     24 H5          4.2983    2.6165    2.4205 H         1 <0>         0.0821
     25 H6          1.9957    3.7255    2.1345 H         1 <0>         0.0832
     26 H7          3.3154    4.3469    1.1126 H         1 <0>         0.0659
     27 H8          2.6983    5.8097   -0.3104 H         1 <0>         0.4064
     28 H9          1.6708    7.4730   -3.4354 H         1 <0>         0.3214
@<TRIPOS>BOND
     1    1    6 2
     2    1    2 1
     3    1   21 1
     4    2   13 1
     5    2    3 2
     6    3    4 1
     7    3    8 1
     8    4    5 1
     9    4    6 1
    10    6    7 1
    11    8    9 2
    12    8   10 am
    13   10   11 1
    14   10   22 1
    15   11   12 1
    16   11   23 1
    17   11   24 1
    18   12   13 1
    19   12   25 1
    20   12   26 1
    21   13   14 2
    22   14   19 1
    23   14   15 1
    24   15   16 2
    25   15   17 1
    26   17   18 2
    27   18   19 1
    28   18   20 1
    29   19   27 1
    30   20   28 1
@<TRIPOS>MOLECULE
ZINC14559870
   29    33     0     0     0
SMALL
USER_CHARGES
BLAHdione
@<TRIPOS>ATOM
      1 C1          2.9759    3.8341   -0.0061 C.ar      1 <0>        -0.1306
      2 C2          3.3947    2.5120   -0.0172 C.ar      1 <0>        -0.0820
      3 C3          2.4762    1.4841   -0.0141 C.ar      1 <0>        -0.1239
      4 C4          1.1147    1.7679    0.0009 C.ar      1 <0>         0.1193
      5 C5          0.6924    3.1066    0.0122 C.ar      1 <0>        -0.0737
      6 C6          1.6315    4.1362    0.0079 C.ar      1 <0>        -0.0598
      7 C7         -0.7795    3.0713    0.0261 C.2       1 <0>        -0.0973
      8 C8         -1.7990    4.1087    0.0414 C.2       1 <0>        -0.0497
      9 C9         -3.1462    3.7336    0.0523 C.2       1 <0>        -0.1086
     10 C10        -3.4795    2.3163    0.0486 C.2       1 <0>         0.0543
     11 C11        -4.6712    1.6231    0.0559 C.2       1 <0>         0.0240
     12 N1         -4.3815    0.3210    0.0467 N.2       1 <0>        -0.4427
     13 C12        -3.0844    0.1531    0.0340 C.2       1 <0>         0.1648
     14 N2         -2.4751    1.3668    0.0346 N.pl3     1 <0>        -0.3726
     15 C13        -1.1468    1.7293    0.0164 C.2       1 <0>         0.3292
     16 N3         -0.0111    0.9658    0.0074 N.pl3     1 <0>        -0.5765
     17 H1          0.0021   -0.0041    0.0020 H         1 <0>         0.4265
     18 C14        -3.9185    4.9844    0.0660 C.2       1 <0>         0.5909
     19 O1         -5.1307    5.0690    0.0782 O.2       1 <0>        -0.4444
     20 N4         -3.0589    6.0203    0.0632 N.am      1 <0>        -0.6805
     21 C15        -1.7857    5.5831    0.0489 C.2       1 <0>         0.5823
     22 O2         -0.7940    6.2843    0.0435 O.2       1 <0>        -0.4434
     23 H2          3.7061    4.6298   -0.0087 H         1 <0>         0.1343
     24 H3          4.4507    2.2857   -0.0289 H         1 <0>         0.1361
     25 H4          2.8138    0.4582   -0.0228 H         1 <0>         0.1308
     26 H5          1.3071    5.1663    0.0166 H         1 <0>         0.1415
     27 H6         -5.6605    2.0561    0.0675 H         1 <0>         0.1970
     28 H7         -2.5776   -0.8006    0.0246 H         1 <0>         0.2173
     29 H8         -3.3211    6.9542    0.0701 H         1 <0>         0.4374
@<TRIPOS>BOND
     1    1    6 ar
     2    1    2 ar
     3    1   23 1
     4    2    3 ar
     5    2   24 1
     6    3    4 ar
     7    3   25 1
     8    4   16 1
     9    4    5 ar
    10    5    6 ar
    11    5    7 1
    12    6   26 1
    13    7   15 2
    14    7    8 1
    15    8   21 1
    16    8    9 2
    17    9   10 1
    18    9   18 1
    19   10   14 1
    20   10   11 2
    21   11   12 1
    22   11   27 1
    23   12   13 2
    24   13   14 1
    25   13   28 1
    26   14   15 1
    27   15   16 1
    28   16   17 1
    29   18   19 2
    30   18   20 am
    31   20   21 am
    32   20   29 1
    33   21   22 2
@<TRIPOS>MOLECULE
ZINC14559870
   30    34     0     0     0
SMALL
USER_CHARGES
BLAHdione
@<TRIPOS>ATOM
      1 C1          2.9759    3.8341   -0.0061 C.ar      1 <0>        -0.1155
      2 C2          3.3947    2.5120   -0.0172 C.ar      1 <0>        -0.0614
      3 C3          2.4762    1.4841   -0.0141 C.ar      1 <0>        -0.1209
      4 C4          1.1147    1.7679    0.0009 C.ar      1 <0>         0.1295
      5 C5          0.6924    3.1066    0.0122 C.ar      1 <0>        -0.0818
      6 C6          1.6315    4.1362    0.0079 C.ar      1 <0>        -0.0537
      7 C7         -0.7795    3.0713    0.0261 C.2       1 <0>        -0.0524
      8 C8         -1.7990    4.1087    0.0414 C.2       1 <0>         0.0050
      9 C9         -3.1462    3.7336    0.0523 C.2       1 <0>        -0.1377
     10 C10        -3.4795    2.3163    0.0486 C.2       1 <0>         0.1323
     11 C11        -4.6712    1.6231    0.0559 C.2       1 <0>         0.0429
     12 C12        -3.0844    0.1531    0.0340 C.cat     1 <0>         0.2334
     13 N1         -2.4751    1.3668    0.0346 N.pl3     1 <0>        -0.3268
     14 C13        -1.1468    1.7293    0.0164 C.2       1 <0>         0.2979
     15 N2         -0.0111    0.9658    0.0074 N.pl3     1 <0>        -0.5619
     16 H1          0.0021   -0.0041    0.0020 H         1 <0>         0.4329
     17 C14        -3.9185    4.9844    0.0660 C.2       1 <0>         0.5944
     18 O1         -5.1307    5.0690    0.0782 O.2       1 <0>        -0.4333
     19 N3         -3.0589    6.0203    0.0632 N.am      1 <0>        -0.6713
     20 C15        -1.7857    5.5831    0.0489 C.2       1 <0>         0.5749
     21 O2         -0.7940    6.2843    0.0435 O.2       1 <0>        -0.4148
     22 H2          3.7061    4.6298   -0.0087 H         1 <0>         0.1452
     23 H3          4.4507    2.2857   -0.0289 H         1 <0>         0.1471
     24 H4          2.8138    0.4582   -0.0228 H         1 <0>         0.1400
     25 H5          1.3071    5.1663    0.0166 H         1 <0>         0.1485
     26 H6         -5.6605    2.0561    0.0675 H         1 <0>         0.2436
     27 H7         -2.5776   -0.8006    0.0246 H         1 <0>         0.2642
     28 H8         -3.3211    6.9542    0.0701 H         1 <0>         0.4480
     29 N4         -4.3834    0.3189    0.0467 N.pl3     1 <0>        -0.4408
     30 H9         -5.0759   -0.4391    0.0492 H         1 <0>         0.4927
@<TRIPOS>BOND
     1    1    6 ar
     2    1    2 ar
     3    1   22 1
     4    2    3 ar
     5    2   23 1
     6    3    4 ar
     7    3   24 1
     8    4   15 1
     9    4    5 ar
    10    5    6 ar
    11    5    7 1
    12    6   25 1
    13    7   14 2
    14    7    8 1
    15    8   20 1
    16    8    9 2
    17    9   10 1
    18    9   17 1
    19   10   13 1
    20   10   11 2
    21   11   26 1
    22   11   29 1
    23   12   13 1
    24   12   27 1
    25   12   29 2
    26   13   14 1
    27   14   15 1
    28   15   16 1
    29   17   18 2
    30   17   19 am
    31   19   20 am
    32   19   28 1
    33   20   21 2
    34   29   30 1
@<TRIPOS>MOLECULE
ZINC03964325
   57    59     0     0     0
SMALL
USER_CHARGES

@<TRIPOS>ATOM
      1 C1          0.1489    2.0884    0.1150 C.3       1 <0>        -0.1876
      2 C2          0.1348    0.5603    0.1888 C.3       1 <0>        -0.0191
      3 N1         -1.2520    0.0881    0.2979 N.4       1 <0>        -0.3822
      4 C3         -1.9779    0.4111   -0.9377 C.3       1 <0>        -0.0142
      5 C4         -3.4549    0.0484   -0.7712 C.3       1 <0>        -0.1895
      6 C5         -1.2593   -1.3663    0.5041 C.3       1 <0>        -0.0265
      7 C6         -0.6131   -1.6936    1.8518 C.3       1 <0>         0.0952
      8 N2         -0.6203   -3.1440    2.0575 N.am      1 <0>        -0.7289
      9 C7         -0.0988   -3.6675    3.1846 C.2       1 <0>         0.6111
     10 O1          0.3779   -2.9358    4.0309 O.2       1 <0>        -0.5184
     11 C8         -0.1061   -5.1270    3.3915 C.2       1 <0>        -0.2420
     12 C9          0.9071   -6.0320    3.0089 C.2       1 <0>        -0.0577
     13 C10         0.4868   -7.2892    3.3960 C.2       1 <0>        -0.0075
     14 N3         -0.7476   -7.1595    3.9982 N.pl3     1 <0>        -0.4910
     15 H1         -1.2731   -7.8879    4.3645 H         1 <0>         0.4270
     16 C11        -1.1044   -5.8642    4.0022 C.2       1 <0>         0.1158
     17 C12        -2.3825   -5.3072    4.5743 C.3       1 <0>        -0.0999
     18 C13         1.1957   -8.4957    3.2079 C.2       1 <0>         0.0729
     19 C14         0.5100   -9.6674    2.9570 C.2       1 <0>        -0.1889
     20 C15         1.0648  -11.0377    2.8871 C.ar      1 <0>        -0.0736
     21 C16         2.3472  -11.5557    3.0375 C.ar      1 <0>        -0.1000
     22 C17         2.5553  -12.9162    2.9116 C.ar      1 <0>         0.0861
     23 C18         1.4888  -13.7593    2.6366 C.ar      1 <0>        -0.1139
     24 C19         0.2139  -13.2531    2.4856 C.ar      1 <0>        -0.1021
     25 C20        -0.0144  -11.8871    2.6092 C.ar      1 <0>         0.1282
     26 N4         -1.1765  -11.1301    2.5069 N.am      1 <0>        -0.6466
     27 C21        -0.9294   -9.8245    2.7079 C.2       1 <0>         0.5595
     28 O2         -1.7538   -8.9280    2.6842 O.2       1 <0>        -0.5156
     29 F1          3.7984  -13.4252    3.0561 F         1 <0>        -0.1318
     30 C22         2.1990   -5.6919    2.3116 C.3       1 <0>        -0.0931
     31 H2          1.1793    2.4435    0.1331 H         1 <0>         0.1076
     32 H3         -0.3308    2.4121   -0.8087 H         1 <0>         0.0811
     33 H4         -0.3916    2.4984    0.9682 H         1 <0>         0.0809
     34 H5          0.5888    0.1488   -0.7126 H         1 <0>         0.1317
     35 H6          0.6996    0.2334    1.0619 H         1 <0>         0.1337
     36 H7         -1.8867    1.4775   -1.1444 H         1 <0>         0.1351
     37 H8         -1.5554   -0.1571   -1.7664 H         1 <0>         0.1307
     38 H9         -3.5537   -1.0316   -0.6617 H         1 <0>         0.0802
     39 H10        -3.8523    0.5414    0.1160 H         1 <0>         0.0808
     40 H11        -4.0109    0.3769   -1.6492 H         1 <0>         0.1074
     41 H12        -2.2871   -1.7292    0.4963 H         1 <0>         0.1397
     42 H13        -0.6973   -1.8494   -0.2952 H         1 <0>         0.1376
     43 H14         0.4147   -1.3306    1.8596 H         1 <0>         0.0893
     44 H15        -1.1751   -1.2105    2.6511 H         1 <0>         0.0890
     45 H16        -1.0005   -3.7277    1.3824 H         1 <0>         0.4099
     46 H17        -3.1529   -5.3000    3.8032 H         1 <0>         0.0840
     47 H18        -2.7087   -5.9289    5.4080 H         1 <0>         0.0782
     48 H19        -2.2103   -4.2898    4.9254 H         1 <0>         0.0840
     49 H20         2.2744   -8.5020    3.2604 H         1 <0>         0.1589
     50 H21         3.1765  -10.8977    3.2512 H         1 <0>         0.1436
     51 H22         1.6578  -14.8215    2.5394 H         1 <0>         0.1485
     52 H23        -0.6084  -13.9196    2.2712 H         1 <0>         0.1415
     53 H24        -2.0541  -11.4980    2.3189 H         1 <0>         0.4217
     54 H25         2.9686   -5.4822    3.0545 H         1 <0>         0.0785
     55 H26         2.5107   -6.5337    1.6932 H         1 <0>         0.0726
     56 H27         2.0522   -4.8138    1.6827 H         1 <0>         0.0634
     57 H28        -1.7009    0.5410    1.0799 H         1 <0>         0.4247
@<TRIPOS>BOND
     1    1    2 1
     2    1   31 1
     3    1   32 1
     4    1   33 1
     5    2    3 1
     6    2   34 1
     7    2   35 1
     8    3    4 1
     9    3    6 1
    10    3   57 1
    11    4    5 1
    12    4   36 1
    13    4   37 1
    14    5   38 1
    15    5   39 1
    16    5   40 1
    17    6    7 1
    18    6   41 1
    19    6   42 1
    20    7    8 1
    21    7   43 1
    22    7   44 1
    23    8    9 am
    24    8   45 1
    25    9   10 2
    26    9   11 1
    27   11   16 2
    28   11   12 1
    29   12   13 2
    30   12   30 1
    31   13   14 1
    32   13   18 1
    33   14   15 1
    34   14   16 1
    35   16   17 1
    36   17   46 1
    37   17   47 1
    38   17   48 1
    39   18   19 2
    40   18   49 1
    41   19   27 1
    42   19   20 1
    43   20   25 ar
    44   20   21 ar
    45   21   22 ar
    46   21   50 1
    47   22   23 ar
    48   22   29 1
    49   23   24 ar
    50   23   51 1
    51   24   25 ar
    52   24   52 1
    53   25   26 1
    54   26   27 am
    55   26   53 1
    56   27   28 2
    57   30   54 1
    58   30   55 1
    59   30   56 1
@<TRIPOS>MOLECULE
ZINC33901069
   63    70     0     0     0
SMALL
USER_CHARGES

@<TRIPOS>ATOM
      1 C1         -0.1295    1.5952   -0.2973 C.3       1 <0>        -0.1689
      2 C2         -0.0862    0.0696   -0.1900 C.3       1 <0>         0.3341
      3 C3          0.5692   -0.4501   -1.4637 C.3       1 <0>         0.0405
      4 H1          1.4796    0.1159   -1.6612 H         1 <0>         0.1376
      5 C4          0.9167   -1.9328   -1.2889 C.3       1 <0>        -0.0062
      6 H2          1.3963   -2.3075   -2.1932 H         1 <0>         0.1561
      7 C5          1.8785   -2.0596   -0.1021 C.3       1 <0>        -0.1826
      8 C6          1.2061   -1.5198    1.1541 C.3       1 <0>         0.2993
      9 H3          1.9797   -1.4243    1.9161 H         1 <0>         0.1558
     10 O1          0.6555   -0.2442    0.9666 O.3       1 <0>        -0.3230
     11 N1          0.2189   -2.4746    1.6600 N.pl3     1 <0>        -0.5360
     12 C7          0.4705   -3.5508    2.4739 C.ar      1 <0>         0.1461
     13 C8          1.6649   -4.0152    3.0240 C.ar      1 <0>        -0.1504
     14 C9          1.5948   -5.1456    3.8201 C.ar      1 <0>        -0.0584
     15 C10         0.4006   -5.7997    4.0696 C.ar      1 <0>        -0.1441
     16 C11        -0.7984   -5.3597    3.5358 C.ar      1 <0>        -0.0290
     17 C12        -0.7487   -4.2198    2.7307 C.ar      1 <0>        -0.1115
     18 C13        -1.7893   -3.4830    2.0197 C.ar      1 <0>         0.0213
     19 C14        -1.1442   -2.4197    1.3841 C.ar      1 <0>         0.0473
     20 C15        -1.8806   -1.5095    0.6175 C.ar      1 <0>         0.0846
     21 N2         -1.4718   -0.3951   -0.1095 N.pl3     1 <0>        -0.5182
     22 C16        -2.5611    0.1913   -0.7090 C.ar      1 <0>         0.1628
     23 C17        -2.6521    1.3277   -1.5118 C.ar      1 <0>        -0.1327
     24 C18        -3.9109    1.6745   -1.9733 C.ar      1 <0>        -0.0716
     25 C19        -5.0393    0.9368   -1.6616 C.ar      1 <0>        -0.1386
     26 C20        -4.9745   -0.1955   -0.8662 C.ar      1 <0>        -0.0405
     27 C21        -3.7147   -0.5596   -0.3919 C.ar      1 <0>        -0.1042
     28 C22        -3.2693   -1.6660    0.4845 C.ar      1 <0>        -0.0171
     29 C23        -3.9084   -2.7313    1.1102 C.ar      1 <0>        -0.0268
     30 C24        -3.1873   -3.6421    1.8754 C.ar      1 <0>        -0.1120
     31 C25        -4.1221   -4.6480    2.4030 C.2       1 <0>         0.5712
     32 O2         -3.8062   -5.5851    3.1110 O.2       1 <0>        -0.4999
     33 N3         -5.3744   -4.3851    1.9926 N.am      1 <0>        -0.7338
     34 C26        -5.3495   -3.1771    1.1601 C.3       1 <0>         0.3531
     35 H4         -5.7060   -3.4063    0.1559 H         1 <0>         0.1073
     36 O3         -6.1592   -2.1576    1.7492 O.3       1 <0>        -0.5461
     37 N4         -0.3067   -2.7008   -1.0216 N.4       1 <0>        -0.5258
     38 C27         0.0145   -4.1336   -0.9773 C.3       1 <0>        -0.0504
     39 O4         -0.3340   -0.2979   -2.5607 O.3       1 <0>        -0.3612
     40 C28         0.3101   -0.0933   -3.8198 C.3       1 <0>         0.0162
     41 H5          0.8261    2.0094    0.0240 H         1 <0>         0.0985
     42 H6         -0.3202    1.8814   -1.3317 H         1 <0>         0.1039
     43 H7         -0.9255    1.9818    0.3392 H         1 <0>         0.0924
     44 H8          2.1370   -3.1081    0.0458 H         1 <0>         0.1235
     45 H9          2.7835   -1.4869   -0.3048 H         1 <0>         0.1460
     46 H10         2.6036   -3.5149    2.8368 H         1 <0>         0.1371
     47 H11         2.5026   -5.5304    4.2610 H         1 <0>         0.1364
     48 H12         0.4045   -6.6780    4.6980 H         1 <0>         0.1356
     49 H13        -1.7278   -5.8736    3.7323 H         1 <0>         0.1596
     50 H14        -1.7792    1.9122   -1.7624 H         1 <0>         0.1441
     51 H15        -4.0153    2.5500   -2.5970 H         1 <0>         0.1337
     52 H16        -5.9967    1.2527   -2.0488 H         1 <0>         0.1330
     53 H17        -5.8575   -0.7687   -0.6249 H         1 <0>         0.1424
     54 H18        -6.1628   -4.9065    2.2103 H         1 <0>         0.4317
     55 H19        -7.0970   -2.3857    1.8091 H         1 <0>         0.3958
     56 H20        -0.6958   -2.4158   -0.1353 H         1 <0>         0.4181
     57 H21        -0.8932   -4.7035   -0.7789 H         1 <0>         0.1257
     58 H22         0.4349   -4.4415   -1.9347 H         1 <0>         0.1262
     59 H23         0.7403   -4.3189   -0.1854 H         1 <0>         0.1194
     60 H24         0.9482   -0.9479   -4.0446 H         1 <0>         0.0513
     61 H25        -0.4433    0.0130   -4.6003 H         1 <0>         0.1100
     62 H26         0.9168    0.8112   -3.7748 H         1 <0>         0.0633
     63 H27        -0.9785   -2.5293   -1.7546 H         1 <0>         0.4278
@<TRIPOS>BOND
     1    1    2 1
     2    1   41 1
     3    1   42 1
     4    1   43 1
     5    2   10 1
     6    2   21 1
     7    2    3 1
     8    3    4 1
     9    3    5 1
    10    3   39 1
    11    5    6 1
    12    5    7 1
    13    5   37 1
    14    7    8 1
    15    7   44 1
    16    7   45 1
    17    8    9 1
    18    8   10 1
    19    8   11 1
    20   11   19 1
    21   11   12 1
    22   12   17 ar
    23   12   13 ar
    24   13   14 ar
    25   13   46 1
    26   14   15 ar
    27   14   47 1
    28   15   16 ar
    29   15   48 1
    30   16   17 ar
    31   16   49 1
    32   17   18 1
    33   18   30 ar
    34   18   19 ar
    35   19   20 ar
    36   20   28 ar
    37   20   21 1
    38   21   22 1
    39   22   27 ar
    40   22   23 ar
    41   23   24 ar
    42   23   50 1
    43   24   25 ar
    44   24   51 1
    45   25   26 ar
    46   25   52 1
    47   26   27 ar
    48   26   53 1
    49   27   28 1
    50   28   29 ar
    51   29   34 1
    52   29   30 ar
    53   30   31 1
    54   31   32 2
    55   31   33 am
    56   33   34 1
    57   33   54 1
    58   34   35 1
    59   34   36 1
    60   36   55 1
    61   37   38 1
    62   37   56 1
    63   37   63 1
    64   38   57 1
    65   38   58 1
    66   38   59 1
    67   39   40 1
    68   40   60 1
    69   40   61 1
    70   40   62 1
