@<TRIPOS>MOLECULE
ZINC53022004
   57    60     0     0     0
SMALL
USER_CHARGES

@<TRIPOS>ATOM
      1 C1         -6.5759   -6.7397    6.4771 C.3       1 <0>        -0.1459
      2 C2         -5.6654   -5.5161    6.3560 C.3       1 <0>        -0.0559
      3 C3         -4.2048   -5.9524    6.4863 C.3       1 <0>        -0.1454
      4 C4         -5.8769   -4.8633    5.0143 C.ar      1 <0>        -0.0905
      5 C5         -5.6410   -5.5783    3.8544 C.ar      1 <0>        -0.0916
      6 C6         -5.8339   -4.9829    2.6232 C.ar      1 <0>        -0.1249
      7 C7         -6.2653   -3.6649    2.5508 C.ar      1 <0>         0.1539
      8 C8         -6.5013   -2.9497    3.7175 C.ar      1 <0>        -0.1415
      9 C9         -6.3119   -3.5525    4.9456 C.ar      1 <0>        -0.0951
     10 N1         -6.4612   -3.0586    1.3049 N.am      1 <0>        -0.6456
     11 C10        -6.7557   -3.8128    0.2273 C.2       1 <0>         0.6418
     12 O1         -6.9596   -5.0038    0.3566 O.2       1 <0>        -0.5338
     13 O2         -6.8241   -3.2464   -0.9925 O.3       1 <0>        -0.2947
     14 C11        -7.2270   -4.0217   -2.0347 C.ar      1 <0>         0.0496
     15 C12        -6.3470   -4.3153   -3.0658 C.ar      1 <0>        -0.0665
     16 C13        -6.7555   -5.1000   -4.1234 C.ar      1 <0>        -0.1616
     17 C14        -8.0512   -5.6126   -4.1624 C.ar      1 <0>         0.1991
     18 C15        -8.9279   -5.3113   -3.1282 C.ar      1 <0>        -0.1393
     19 C16        -8.5198   -4.5218   -2.0713 C.ar      1 <0>        -0.0551
     20 C17       -10.2530   -5.9756   -3.4216 C.3       1 <0>        -0.0358
     21 C18       -10.6179   -6.9191   -2.2503 C.3       1 <0>        -0.1104
     22 C19        -9.6556   -8.1083   -2.5226 C.3       1 <0>         0.0431
     23 N2         -9.7712   -8.2804   -3.9937 N.3       1 <0>        -0.5449
     24 C20        -9.9210   -6.9480   -4.5883 C.3       1 <0>         0.3105
     25 H1        -10.7175   -6.9280   -5.3382 H         1 <0>         0.1113
     26 N3         -8.6775   -6.4059   -5.1322 N.pl3     1 <0>        -0.6392
     27 C21        -8.1768   -6.5968   -6.4961 C.3       1 <0>         0.1072
     28 C22        -8.6737   -9.0786   -4.5288 C.3       1 <0>         0.0376
     29 C23       -11.3626   -4.9911   -3.7674 C.3       1 <0>        -0.1254
     30 H2         -6.4229   -7.2118    7.4475 H         1 <0>         0.0585
     31 H3         -7.6165   -6.4289    6.3842 H         1 <0>         0.0561
     32 H4         -6.3369   -7.4501    5.6857 H         1 <0>         0.0569
     33 H5         -5.9044   -4.8056    7.1474 H         1 <0>         0.0777
     34 H6         -3.9658   -6.6628    5.6949 H         1 <0>         0.0567
     35 H7         -3.5561   -5.0806    6.4001 H         1 <0>         0.0561
     36 H8         -4.0518   -6.4245    7.4568 H         1 <0>         0.0585
     37 H9         -5.3052   -6.6032    3.9113 H         1 <0>         0.1256
     38 H10        -5.6492   -5.5417    1.7176 H         1 <0>         0.1432
     39 H11        -6.8365   -1.9244    3.6645 H         1 <0>         0.1280
     40 H12        -6.4995   -2.9982    5.8533 H         1 <0>         0.1279
     41 H13        -6.3851   -2.0957    1.2167 H         1 <0>         0.4187
     42 H14        -5.3388   -3.9289   -3.0408 H         1 <0>         0.1341
     43 H15        -6.0613   -5.3164   -4.9225 H         1 <0>         0.1273
     44 H16        -9.2076   -4.2931   -1.2704 H         1 <0>         0.1240
     45 H17       -10.3984   -6.4555   -1.2928 H         1 <0>         0.0794
     46 H18       -11.6545   -7.2376   -2.3152 H         1 <0>         0.0844
     47 H19        -8.6372   -7.8507   -2.2402 H         1 <0>         0.0490
     48 H20        -9.9936   -9.0010   -2.0001 H         1 <0>         0.0848
     49 H21        -7.2546   -6.0307   -6.6271 H         1 <0>         0.0733
     50 H22        -7.9805   -7.6555   -6.6662 H         1 <0>         0.0557
     51 H23        -8.9227   -6.2464   -7.2094 H         1 <0>         0.0589
     52 H24        -8.6810  -10.0643   -4.0636 H         1 <0>         0.0691
     53 H25        -8.7937   -9.1847   -5.6069 H         1 <0>         0.0652
     54 H26        -7.7265   -8.5832   -4.3156 H         1 <0>         0.0284
     55 H27       -11.0723   -4.4090   -4.6421 H         1 <0>         0.0600
     56 H28       -12.2799   -5.5388   -3.9836 H         1 <0>         0.0670
     57 H29       -11.5297   -4.3210   -2.9241 H         1 <0>         0.0644
@<TRIPOS>BOND
     1    1    2 1
     2    1   30 1
     3    1   31 1
     4    1   32 1
     5    2    3 1
     6    2    4 1
     7    2   33 1
     8    3   34 1
     9    3   35 1
    10    3   36 1
    11    4    9 ar
    12    4    5 ar
    13    5    6 ar
    14    5   37 1
    15    6    7 ar
    16    6   38 1
    17    7    8 ar
    18    7   10 1
    19    8    9 ar
    20    8   39 1
    21    9   40 1
    22   10   11 am
    23   10   41 1
    24   11   12 2
    25   11   13 1
    26   13   14 1
    27   14   19 ar
    28   14   15 ar
    29   15   16 ar
    30   15   42 1
    31   16   17 ar
    32   16   43 1
    33   17   26 1
    34   17   18 ar
    35   18   19 ar
    36   18   20 1
    37   19   44 1
    38   20   24 1
    39   20   21 1
    40   20   29 1
    41   21   22 1
    42   21   45 1
    43   21   46 1
    44   22   23 1
    45   22   47 1
    46   22   48 1
    47   23   24 1
    48   23   28 1
    49   24   25 1
    50   24   26 1
    51   26   27 1
    52   27   49 1
    53   27   50 1
    54   27   51 1
    55   28   52 1
    56   28   53 1
    57   28   54 1
    58   29   55 1
    59   29   56 1
    60   29   57 1
@<TRIPOS>MOLECULE
ZINC00968311
   44    46     0     0     0
SMALL
USER_CHARGES
1-(1-phenylcyclohexyl)piperidine
@<TRIPOS>ATOM
      1 C1         -6.8504    0.6158   -1.3000 C.ar      1 <0>        -0.0983
      2 C2         -5.9618   -0.3997   -1.0001 C.ar      1 <0>        -0.0987
      3 C3         -4.6847   -0.0953   -0.5672 C.ar      1 <0>        -0.0916
      4 C4         -4.2963    1.2246   -0.4342 C.ar      1 <0>        -0.1122
      5 C5         -5.1866    2.2402   -0.7291 C.ar      1 <0>        -0.1651
      6 C6         -6.4619    1.9358   -1.1669 C.ar      1 <0>        -0.1010
      7 C7         -2.9042    1.5565    0.0381 C.3       1 <0>         0.1193
      8 C8         -1.8862    0.7425   -0.7631 C.3       1 <0>        -0.1361
      9 C9         -0.4729    1.0794   -0.2835 C.3       1 <0>        -0.1341
     10 C10        -0.3434    0.7376    1.2022 C.3       1 <0>        -0.1320
     11 C11        -1.3614    1.5516    2.0034 C.3       1 <0>        -0.1367
     12 C12        -2.7747    1.2147    1.5238 C.3       1 <0>        -0.1352
     13 C13        -3.4122    3.7968    0.8019 C.3       1 <0>        -0.0359
     14 C14        -3.0128    5.2678    0.6650 C.3       1 <0>        -0.1453
     15 C15        -3.2968    5.7378   -0.7643 C.3       1 <0>        -0.1398
     16 C16        -2.5281    4.8504   -1.7473 C.3       1 <0>        -0.1447
     17 C17        -2.9415    3.3915   -1.5404 C.3       1 <0>        -0.0394
     18 H1         -7.8482    0.3780   -1.6378 H         1 <0>         0.1358
     19 H2         -6.2654   -1.4310   -1.1036 H         1 <0>         0.1373
     20 H3         -3.9906   -0.8888   -0.3326 H         1 <0>         0.1331
     21 H4         -4.8845    3.2714   -0.6209 H         1 <0>         0.1421
     22 H5         -7.1563    2.7292   -1.4009 H         1 <0>         0.1351
     23 H6         -1.9784    0.9860   -1.8215 H         1 <0>         0.0898
     24 H7         -2.0755   -0.3209   -0.6171 H         1 <0>         0.1120
     25 H8         -0.2835    2.1429   -0.4295 H         1 <0>         0.0554
     26 H9          0.2524    0.4995   -0.8543 H         1 <0>         0.0955
     27 H10        -0.5328   -0.3259    1.3482 H         1 <0>         0.0810
     28 H11         0.6635    0.9776    1.5438 H         1 <0>         0.0819
     29 H12        -1.2692    1.3081    3.0618 H         1 <0>         0.0942
     30 H13        -1.1721    2.6150    1.8574 H         1 <0>         0.0570
     31 H14        -3.5000    1.7946    2.0946 H         1 <0>         0.0914
     32 H15        -2.9641    0.1512    1.6698 H         1 <0>         0.1109
     33 H16        -4.4780    3.6896    0.6004 H         1 <0>         0.1454
     34 H17        -3.1980    3.4551    1.8145 H         1 <0>         0.1336
     35 H18        -1.9499    5.3779    0.8798 H         1 <0>         0.0864
     36 H19        -3.5902    5.8691    1.3673 H         1 <0>         0.1130
     37 H20        -2.9737    6.7726   -0.8785 H         1 <0>         0.0959
     38 H21        -4.3653    5.6654   -0.9671 H         1 <0>         0.0810
     39 H22        -1.4576    4.9538   -1.5704 H         1 <0>         0.0851
     40 H23        -2.7597    5.1530   -2.7685 H         1 <0>         0.1123
     41 H24        -2.3855    2.7553   -2.2290 H         1 <0>         0.1276
     42 H25        -4.0096    3.2863   -1.7309 H         1 <0>         0.1542
     43 N1         -2.6198    2.9937   -0.1533 N.4       1 <0>        -0.3833
     44 H26        -1.6215    3.1617    0.0183 H         1 <0>         0.4232
@<TRIPOS>BOND
     1    1    6 ar
     2    1    2 ar
     3    1   18 1
     4    2    3 ar
     5    2   19 1
     6    3    4 ar
     7    3   20 1
     8    4    5 ar
     9    4    7 1
    10    5    6 ar
    11    5   21 1
    12    6   22 1
    13    7   12 1
    14    7    8 1
    15    7   43 1
    16    8    9 1
    17    8   23 1
    18    8   24 1
    19    9   10 1
    20    9   25 1
    21    9   26 1
    22   10   11 1
    23   10   27 1
    24   10   28 1
    25   11   12 1
    26   11   29 1
    27   11   30 1
    28   12   31 1
    29   12   32 1
    30   13   14 1
    31   13   33 1
    32   13   34 1
    33   13   43 1
    34   14   15 1
    35   14   35 1
    36   14   36 1
    37   15   16 1
    38   15   37 1
    39   15   38 1
    40   16   17 1
    41   16   39 1
    42   16   40 1
    43   17   41 1
    44   17   42 1
    45   17   43 1
    46   43   44 1
@<TRIPOS>MOLECULE
ZINC00004413
   41    41     0     0     0
SMALL
USER_CHARGES

@<TRIPOS>ATOM
      1 C1          4.4626    0.9331   -2.8658 C.3       1 <0>        -0.1716
      2 C2          3.0922    1.3370   -2.3184 C.3       1 <0>         0.1225
      3 N1          2.1977    0.1769   -2.3368 N.am      1 <0>        -0.5889
      4 C3          2.1273   -0.7122   -1.1746 C.3       1 <0>         0.0754
      5 C4          1.4396   -0.0723   -3.4229 C.2       1 <0>         0.6477
      6 O1          1.4980    0.6652   -4.3869 O.2       1 <0>        -0.5535
      7 O2          0.6173   -1.1388   -3.4398 O.3       1 <0>        -0.3075
      8 C5         -0.2031   -1.2952   -4.5123 C.ar      1 <0>         0.1261
      9 C6         -1.5478   -0.9685   -4.4120 C.ar      1 <0>        -0.0937
     10 C7         -2.3794   -1.1283   -5.5033 C.ar      1 <0>        -0.0860
     11 C8         -1.8728   -1.6139   -6.6949 C.ar      1 <0>        -0.1221
     12 C9         -0.5334   -1.9405   -6.7972 C.ar      1 <0>        -0.1238
     13 C10         0.3039   -1.7762   -5.7104 C.ar      1 <0>        -0.0901
     14 C11         0.0152   -2.4704   -8.0969 C.3       1 <0>         0.0788
     15 H1          0.9527   -2.9938   -7.9091 H         1 <0>         0.1439
     16 C12         0.2648   -1.3060   -9.0576 C.3       1 <0>        -0.1799
     17 N2         -0.9531   -3.3994   -8.6947 N.4       1 <0>        -0.3859
     18 C13        -0.4184   -3.9159   -9.9616 C.3       1 <0>        -0.0520
     19 C14        -1.1928   -4.5173   -7.7723 C.3       1 <0>        -0.0508
     20 H2          4.8824    0.1408   -2.2460 H         1 <0>         0.0603
     21 H3          4.3537    0.5745   -3.8894 H         1 <0>         0.0581
     22 H4          5.1281    1.7962   -2.8522 H         1 <0>         0.0766
     23 H5          3.2011    1.6957   -1.2949 H         1 <0>         0.0928
     24 H6          2.6725    2.1293   -2.9383 H         1 <0>         0.0905
     25 H7          1.3554   -0.3572   -0.4918 H         1 <0>         0.0654
     26 H8          1.8843   -1.7224   -1.5042 H         1 <0>         0.0784
     27 H9          3.0898   -0.7185   -0.6631 H         1 <0>         0.0821
     28 H10        -1.9440   -0.5899   -3.4814 H         1 <0>         0.1446
     29 H11        -3.4262   -0.8742   -5.4257 H         1 <0>         0.1465
     30 H12        -2.5247   -1.7385   -7.5469 H         1 <0>         0.1259
     31 H13         1.3512   -2.0270   -5.7923 H         1 <0>         0.1385
     32 H14         0.9833   -0.6167   -8.6140 H         1 <0>         0.1084
     33 H15         0.6616   -1.6892   -9.9977 H         1 <0>         0.0875
     34 H16        -0.6727   -0.7825   -9.2453 H         1 <0>         0.0834
     35 H17        -0.2406   -3.0863  -10.6460 H         1 <0>         0.1268
     36 H18         0.5191   -4.4393   -9.7738 H         1 <0>         0.1237
     37 H19        -1.1369   -4.6052  -10.4052 H         1 <0>         0.1270
     38 H20        -1.5895   -4.1341   -6.8322 H         1 <0>         0.1235
     39 H21        -1.9113   -5.2066   -8.2158 H         1 <0>         0.1263
     40 H22        -0.2553   -5.0408   -7.5845 H         1 <0>         0.1229
     41 H23        -1.8209   -2.9148   -8.8685 H         1 <0>         0.4225
@<TRIPOS>BOND
     1    1    2 1
     2    1   20 1
     3    1   21 1
     4    1   22 1
     5    2    3 1
     6    2   23 1
     7    2   24 1
     8    3    4 1
     9    3    5 am
    10    4   25 1
    11    4   26 1
    12    4   27 1
    13    5    6 2
    14    5    7 1
    15    7    8 1
    16    8   13 ar
    17    8    9 ar
    18    9   10 ar
    19    9   28 1
    20   10   11 ar
    21   10   29 1
    22   11   12 ar
    23   11   30 1
    24   12   13 ar
    25   12   14 1
    26   13   31 1
    27   14   15 1
    28   14   16 1
    29   14   17 1
    30   16   32 1
    31   16   33 1
    32   16   34 1
    33   17   18 1
    34   17   19 1
    35   17   41 1
    36   18   35 1
    37   18   36 1
    38   18   37 1
    39   19   38 1
    40   19   39 1
    41   19   40 1
@<TRIPOS>MOLECULE
ZINC33971762
   41    43     0     0     0
SMALL
USER_CHARGES

@<TRIPOS>ATOM
      1 C1         -0.1882    1.7290    0.1955 C.3       1 <0>        -0.1309
      2 C2         -0.0702    0.2073    0.0878 C.3       1 <0>        -0.0259
      3 C3          0.7161   -0.2302   -1.1676 C.3       1 <0>        -0.1094
      4 C4          2.1268   -0.5350   -0.6041 C.3       1 <0>         0.0405
      5 N1          1.8390   -1.1603    0.7115 N.3       1 <0>        -0.5322
      6 C5          0.6980   -0.4088    1.2788 C.3       1 <0>         0.2994
      7 H1          1.0394    0.3565    1.9759 H         1 <0>         0.0776
      8 N2         -0.2494   -1.3390    1.8987 N.pl3     1 <0>        -0.6082
      9 C6         -1.4512   -1.3519    1.1851 C.ar      1 <0>         0.2180
     10 C7         -1.4185   -0.4740    0.1132 C.ar      1 <0>        -0.1472
     11 C8         -2.5141   -0.3423   -0.7184 C.ar      1 <0>        -0.0389
     12 C9         -3.6592   -1.0890   -0.4850 C.ar      1 <0>         0.0429
     13 C10        -3.7001   -1.9683    0.5867 C.ar      1 <0>        -0.0563
     14 C11        -2.6072   -2.1000    1.4164 C.ar      1 <0>        -0.1688
     15 O1         -4.7376   -0.9593   -1.3035 O.3       1 <0>        -0.2261
     16 C12        -4.6383   -1.4352   -2.5634 C.2       1 <0>         0.4996
     17 N3         -3.5806   -2.0956   -2.9265 N.2       1 <0>        -0.6269
     18 C13        -3.4728   -2.6119   -4.2933 C.3       1 <0>         0.0245
     19 O2         -5.6388   -1.2245   -3.4457 O.3       1 <0>        -0.4978
     20 C14         0.0235   -2.1399    3.0947 C.3       1 <0>         0.1095
     21 C15         3.0095   -1.0875    1.5963 C.3       1 <0>         0.0155
     22 H2          0.8083    2.1700    0.2180 H         1 <0>         0.0606
     23 H3         -0.7361    2.1127   -0.6652 H         1 <0>         0.0678
     24 H4         -0.7211    1.9882    1.1104 H         1 <0>         0.0624
     25 H5          0.2747   -1.1248   -1.6069 H         1 <0>         0.0841
     26 H6          0.7587    0.5784   -1.8973 H         1 <0>         0.0791
     27 H7          2.6581   -1.2312   -1.2530 H         1 <0>         0.0875
     28 H8          2.6971    0.3850   -0.4763 H         1 <0>         0.0502
     29 H9         -2.4788    0.3438   -1.5516 H         1 <0>         0.1225
     30 H10        -4.5905   -2.5508    0.7720 H         1 <0>         0.1326
     31 H11        -2.6452   -2.7858    2.2498 H         1 <0>         0.1268
     32 H12        -4.2937   -3.3025   -4.4866 H         1 <0>         0.0494
     33 H13        -3.5212   -1.7831   -4.9996 H         1 <0>         0.0495
     34 H14        -2.5234   -3.1342   -4.4105 H         1 <0>         0.0898
     35 H15        -5.4773   -1.6022   -4.3211 H         1 <0>         0.4199
     36 H16        -0.2683   -1.5785    3.9823 H         1 <0>         0.0491
     37 H17        -0.5461   -3.0680    3.0482 H         1 <0>         0.0679
     38 H18         1.0881   -2.3690    3.1434 H         1 <0>         0.0697
     39 H19         3.2777   -0.0435    1.7587 H         1 <0>         0.0309
     40 H20         2.7720   -1.5546    2.5521 H         1 <0>         0.0681
     41 H21         3.8471   -1.6102    1.1345 H         1 <0>         0.0733
@<TRIPOS>BOND
     1    1    2 1
     2    1   22 1
     3    1   23 1
     4    1   24 1
     5    2    6 1
     6    2   10 1
     7    2    3 1
     8    3    4 1
     9    3   25 1
    10    3   26 1
    11    4    5 1
    12    4   27 1
    13    4   28 1
    14    5    6 1
    15    5   21 1
    16    6    7 1
    17    6    8 1
    18    8    9 1
    19    8   20 1
    20    9   14 ar
    21    9   10 ar
    22   10   11 ar
    23   11   12 ar
    24   11   29 1
    25   12   13 ar
    26   12   15 1
    27   13   14 ar
    28   13   30 1
    29   14   31 1
    30   15   16 1
    31   16   17 2
    32   16   19 1
    33   17   18 1
    34   18   32 1
    35   18   33 1
    36   18   34 1
    37   19   35 1
    38   20   36 1
    39   20   37 1
    40   20   38 1
    41   21   39 1
    42   21   40 1
    43   21   41 1
@<TRIPOS>MOLECULE
ZINC33971762
   42    44     0     0     0
SMALL
USER_CHARGES

@<TRIPOS>ATOM
      1 C1         -0.1882    1.7290    0.1955 C.3       1 <0>        -0.1392
      2 C2         -0.0702    0.2073    0.0878 C.3       1 <0>        -0.0229
      3 C3          0.7161   -0.2302   -1.1676 C.3       1 <0>        -0.1344
      4 C4          2.1268   -0.5350   -0.6041 C.3       1 <0>        -0.0013
      5 N1          1.8390   -1.1603    0.7115 N.4       1 <0>        -0.4135
      6 C5          0.6980   -0.4088    1.2788 C.3       1 <0>         0.2646
      7 H1          1.0394    0.3565    1.9759 H         1 <0>         0.1606
      8 N2         -0.2494   -1.3390    1.8987 N.pl3     1 <0>        -0.6268
      9 C6         -1.4512   -1.3519    1.1851 C.ar      1 <0>         0.1765
     10 C7         -1.4185   -0.4740    0.1132 C.ar      1 <0>        -0.1459
     11 C8         -2.5141   -0.3423   -0.7184 C.ar      1 <0>        -0.0416
     12 C9         -3.6592   -1.0890   -0.4850 C.ar      1 <0>         0.0843
     13 C10        -3.7001   -1.9683    0.5867 C.ar      1 <0>        -0.0559
     14 C11        -2.6072   -2.1000    1.4164 C.ar      1 <0>        -0.1358
     15 O1         -4.7376   -0.9593   -1.3035 O.3       1 <0>        -0.2266
     16 C12        -4.6383   -1.4352   -2.5634 C.2       1 <0>         0.5068
     17 N3         -3.5806   -2.0956   -2.9265 N.2       1 <0>        -0.6345
     18 C13        -3.4728   -2.6119   -4.2933 C.3       1 <0>         0.0224
     19 O2         -5.6388   -1.2245   -3.4457 O.3       1 <0>        -0.4909
     20 C14         0.0238   -2.1405    3.0942 C.3       1 <0>         0.0905
     21 C15         3.0087   -1.0454    1.5928 C.3       1 <0>        -0.0450
     22 H2          0.8083    2.1700    0.2180 H         1 <0>         0.0725
     23 H3         -0.7361    2.1127   -0.6652 H         1 <0>         0.0852
     24 H4         -0.7211    1.9882    1.1104 H         1 <0>         0.0759
     25 H5          0.2747   -1.1248   -1.6069 H         1 <0>         0.1057
     26 H6          0.7587    0.5784   -1.8973 H         1 <0>         0.1233
     27 H7          2.6581   -1.2312   -1.2530 H         1 <0>         0.1390
     28 H8          2.6971    0.3850   -0.4763 H         1 <0>         0.1379
     29 H9         -2.4788    0.3438   -1.5516 H         1 <0>         0.1344
     30 H10        -4.5905   -2.5508    0.7720 H         1 <0>         0.1460
     31 H11        -2.6452   -2.7858    2.2498 H         1 <0>         0.1374
     32 H12        -3.5212   -1.7831   -4.9996 H         1 <0>         0.0540
     33 H13        -2.5234   -3.1342   -4.4105 H         1 <0>         0.0911
     34 H14        -4.2937   -3.3025   -4.4866 H         1 <0>         0.0548
     35 H15        -5.4773   -1.6022   -4.3211 H         1 <0>         0.4255
     36 H16        -0.2674   -1.5795    3.9822 H         1 <0>         0.0730
     37 H17        -0.5461   -3.0685    3.0476 H         1 <0>         0.0899
     38 H18         1.0883   -2.3700    3.1423 H         1 <0>         0.0704
     39 H19         3.2642    0.0063    1.7221 H         1 <0>         0.1241
     40 H20         2.7772   -1.4850    2.5630 H         1 <0>         0.1183
     41 H21         3.8525   -1.5722    1.1472 H         1 <0>         0.1259
     42 H22         1.5894   -2.1301    0.5881 H         1 <0>         0.4242
@<TRIPOS>BOND
     1    1    2 1
     2    1   22 1
     3    1   23 1
     4    1   24 1
     5    2    6 1
     6    2   10 1
     7    2    3 1
     8    3    4 1
     9    3   25 1
    10    3   26 1
    11    4    5 1
    12    4   27 1
    13    4   28 1
    14    5    6 1
    15    5   21 1
    16    5   42 1
    17    6    7 1
    18    6    8 1
    19    8    9 1
    20    8   20 1
    21    9   14 ar
    22    9   10 ar
    23   10   11 ar
    24   11   12 ar
    25   11   29 1
    26   12   13 ar
    27   12   15 1
    28   13   14 ar
    29   13   30 1
    30   14   31 1
    31   15   16 1
    32   16   17 2
    33   16   19 1
    34   17   18 1
    35   18   32 1
    36   18   33 1
    37   18   34 1
    38   19   35 1
    39   20   36 1
    40   20   37 1
    41   20   38 1
    42   21   39 1
    43   21   40 1
    44   21   41 1
