@<TRIPOS>MOLECULE
ZINC13726469
   47    48     0     0     0
SMALL
USER_CHARGES
N-[2-[[5-(dimethylaminomethyl)-2-furyl]methylsulfanyl]ethyl]-5-fluoro-2,4-dinitro-aniline
@<TRIPOS>ATOM
      1 C1          0.3964   -2.5473    2.0415 C.3       1 <0>        -0.0442
      2 C2          2.3123   -3.8709    1.3780 C.3       1 <0>        -0.0432
      3 C3          1.5421   -2.0623   -0.0357 C.3       1 <0>         0.0937
      4 C4          1.1337   -0.6117   -0.0240 C.2       1 <0>        -0.0990
      5 C5          1.9708    0.4412   -0.0279 C.2       1 <0>        -0.1368
      6 C6          1.1666    1.6039   -0.0128 C.2       1 <0>        -0.1843
      7 C7         -0.1138    1.1920   -0.0005 C.2       1 <0>         0.0480
      8 O1         -0.1277   -0.1510   -0.0073 O.3       1 <0>        -0.1607
      9 C8         -1.3271    2.0858    0.0123 C.3       1 <0>        -0.0255
     10 S1         -1.8257    2.4527   -1.6928 S.3       1 <0>        -0.2019
     11 C9         -3.2783    3.5229   -1.5046 C.3       1 <0>        -0.1131
     12 C10        -3.8073    3.9123   -2.8864 C.3       1 <0>         0.1183
     13 N1         -4.9804    4.7765   -2.7344 N.pl3     1 <0>        -0.6929
     14 C11        -5.6408    5.2628   -3.8650 C.ar      1 <0>         0.3466
     15 C12        -5.1192    5.0272   -5.1305 C.ar      1 <0>        -0.2413
     16 C13        -5.7758    5.5102   -6.2477 C.ar      1 <0>         0.2699
     17 C14        -6.9521    6.2279   -6.1042 C.ar      1 <0>        -0.1438
     18 C15        -7.4719    6.4634   -4.8452 C.ar      1 <0>         0.0912
     19 C16        -6.8235    5.9780   -3.7262 C.ar      1 <0>        -0.1371
     20 N2         -7.3855    6.2252   -2.3793 N.pl3     1 <0>         0.0499
     21 O2         -8.4745    6.7580   -2.2622 O.2       1 <0>        -0.1166
     22 O3         -6.7590    5.8957   -1.3881 O.3       1 <0>        -0.1902
     23 N3         -7.6533    6.7440   -7.3013 N.pl3     1 <0>         0.0353
     24 O4         -8.6875    7.3752   -7.1764 O.2       1 <0>        -0.1416
     25 O5         -7.1961    6.5376   -8.4112 O.3       1 <0>        -0.1374
     26 F1         -5.2703    5.2817   -7.4796 F         1 <0>        -0.0792
     27 H1         -0.2956   -3.2053    1.5160 H         1 <0>         0.1254
     28 H2          0.5347   -2.9055    3.0616 H         1 <0>         0.1254
     29 H3         -0.0096   -1.5360    2.0635 H         1 <0>         0.1172
     30 H4          3.2990   -3.8218    0.9175 H         1 <0>         0.1247
     31 H5          2.4099   -4.2010    2.4122 H         1 <0>         0.1263
     32 H6          1.6896   -4.5768    0.8284 H         1 <0>         0.1258
     33 H7          0.7782   -2.6507   -0.5442 H         1 <0>         0.1466
     34 H8          2.4915   -2.1683   -0.5606 H         1 <0>         0.1574
     35 H9          3.0502    0.4053   -0.0408 H         1 <0>         0.1659
     36 H10         1.5138    2.6266   -0.0113 H         1 <0>         0.1671
     37 H11        -2.1439    1.5823    0.5293 H         1 <0>         0.1099
     38 H12        -1.0881    3.0153    0.5289 H         1 <0>         0.1250
     39 H13        -4.0541    2.9892   -0.9557 H         1 <0>         0.1004
     40 H14        -2.9983    4.4222   -0.9561 H         1 <0>         0.1020
     41 H15        -3.0315    4.4460   -3.4354 H         1 <0>         0.0916
     42 H16        -4.0873    3.0129   -3.4350 H         1 <0>         0.0908
     43 H17        -5.2985    5.0111   -1.8486 H         1 <0>         0.4289
     44 H18        -4.2020    4.4679   -5.2419 H         1 <0>         0.1792
     45 H19        -8.3890    7.0232   -4.7366 H         1 <0>         0.1940
     46 N4          1.7073   -2.5224    1.3592 N.4       1 <0>        -0.4001
     47 H20         2.3284   -1.8713    1.8537 H         1 <0>         0.4326
@<TRIPOS>BOND
     1    1   27 1
     2    1   28 1
     3    1   29 1
     4    1   46 1
     5    2   30 1
     6    2   31 1
     7    2   32 1
     8    2   46 1
     9    3    4 1
    10    3   33 1
    11    3   34 1
    12    3   46 1
    13    4    8 1
    14    4    5 2
    15    5    6 1
    16    5   35 1
    17    6    7 2
    18    6   36 1
    19    7    8 1
    20    7    9 1
    21    9   10 1
    22    9   37 1
    23    9   38 1
    24   10   11 1
    25   11   12 1
    26   11   39 1
    27   11   40 1
    28   12   13 1
    29   12   41 1
    30   12   42 1
    31   13   14 1
    32   13   43 1
    33   14   19 ar
    34   14   15 ar
    35   15   16 ar
    36   15   44 1
    37   16   17 ar
    38   16   26 1
    39   17   18 ar
    40   17   23 1
    41   18   19 ar
    42   18   45 1
    43   19   20 1
    44   20   21 2
    45   20   22 1
    46   23   24 2
    47   23   25 1
    48   46   47 1
@<TRIPOS>MOLECULE
ZINC00002009
   26    26     0     0     0
SMALL
USER_CHARGES

@<TRIPOS>ATOM
      1 C1          0.2034    1.4237   -0.0505 C.3       1 <0>         0.0099
      2 N1          0.1008   -0.0377   -0.0358 N.ar      1 <0>        -0.3220
      3 C2         -0.0104   -0.6846   -1.1796 C.ar      1 <0>         0.1214
      4 C3         -0.1092   -2.0628   -1.2085 C.ar      1 <0>        -0.0984
      5 C4         -0.0903   -2.7676   -0.0154 C.ar      1 <0>        -0.0125
      6 C5          0.0283   -2.0536    1.1723 C.ar      1 <0>         0.1209
      7 C6          0.1277   -0.6708    1.1201 C.ar      1 <0>         0.1163
      8 O1          0.0512   -2.7018    2.3671 O.3       1 <0>        -0.2925
      9 C7          1.1407   -3.4339    2.6684 C.2       1 <0>         0.6461
     10 O2          2.1079   -3.4148    1.9331 O.2       1 <0>        -0.5461
     11 N2          1.1581   -4.1878    3.7854 N.am      1 <0>        -0.5811
     12 C8          2.3432   -4.9843    4.1132 C.3       1 <0>         0.0917
     13 C9         -0.0080   -4.2109    4.6719 C.3       1 <0>         0.0682
     14 H1          1.2520    1.7136   -0.1176 H         1 <0>         0.1267
     15 H2         -0.3382    1.8173   -0.9106 H         1 <0>         0.1293
     16 H3         -0.2273    1.8274    0.8658 H         1 <0>         0.1263
     17 H4         -0.0250   -0.1299   -2.1061 H         1 <0>         0.2151
     18 H5         -0.2003   -2.5844   -2.1497 H         1 <0>         0.1957
     19 H6         -0.1660   -3.8449   -0.0080 H         1 <0>         0.1802
     20 H7          0.2245   -0.1069    2.0361 H         1 <0>         0.2129
     21 H8          3.0233   -4.3897    4.7231 H         1 <0>         0.0710
     22 H9          2.0417   -5.8734    4.6669 H         1 <0>         0.0914
     23 H10         2.8464   -5.2824    3.1934 H         1 <0>         0.0868
     24 H11        -0.7849   -3.5622    4.2673 H         1 <0>         0.0865
     25 H12        -0.3878   -5.2299    4.7462 H         1 <0>         0.0784
     26 H13         0.2811   -3.8578    5.6618 H         1 <0>         0.0778
@<TRIPOS>BOND
     1    1    2 1
     2    1   14 1
     3    1   15 1
     4    1   16 1
     5    2    7 ar
     6    2    3 ar
     7    3    4 ar
     8    3   17 1
     9    4    5 ar
    10    4   18 1
    11    5    6 ar
    12    5   19 1
    13    6    7 ar
    14    6    8 1
    15    7   20 1
    16    8    9 1
    17    9   10 2
    18    9   11 am
    19   11   12 1
    20   11   13 1
    21   12   21 1
    22   12   22 1
    23   12   23 1
    24   13   24 1
    25   13   25 1
    26   13   26 1
@<TRIPOS>MOLECULE
ZINC04257702
   27    29     0     0     0
SMALL
USER_CHARGES

@<TRIPOS>ATOM
      1 C1         -0.0164    1.3583    0.0095 C.ar      1 <0>        -0.1096
      2 C2          1.1702    2.0876    0.0021 C.ar      1 <0>        -0.0295
      3 C3          2.3789    1.4619   -0.0126 C.ar      1 <0>        -0.1465
      4 C4          2.4378    0.0572   -0.0196 C.ar      1 <0>         0.1783
      5 C5          1.2297   -0.6802   -0.0128 C.ar      1 <0>        -0.1339
      6 C6          0.0021   -0.0041    0.0020 C.ar      1 <0>        -0.0595
      7 C7          1.2951   -2.0928   -0.0213 C.ar      1 <0>         0.3684
      8 C8          2.5476   -2.6891   -0.0341 C.ar      1 <0>        -0.2376
      9 C9          3.6902   -1.8995   -0.0392 C.ar      1 <0>         0.2398
     10 N1          3.6096   -0.5836   -0.0321 N.ar      1 <0>        -0.5012
     11 C10         4.9173   -2.7903   -0.0531 C.3       1 <0>        -0.0975
     12 C11         4.4149   -4.1811    0.3868 C.3       1 <0>        -0.1153
     13 C12         2.9333   -4.1521   -0.0440 C.3       1 <0>        -0.0720
     14 N2          0.1403   -2.8601   -0.0165 N.pl3     1 <0>        -0.7981
     15 H1         -0.9625    1.8789    0.0259 H         1 <0>         0.1523
     16 H2          1.1306    3.1669    0.0077 H         1 <0>         0.1554
     17 H3          3.2895    2.0424   -0.0191 H         1 <0>         0.1562
     18 H4         -0.9240   -0.5598    0.0075 H         1 <0>         0.1466
     19 H5          5.3365   -2.8403   -1.0581 H         1 <0>         0.1241
     20 H6          5.6625   -2.4179    0.6498 H         1 <0>         0.1116
     21 H7          4.9547   -4.9708   -0.1358 H         1 <0>         0.1041
     22 H8          4.5019   -4.3004    1.4668 H         1 <0>         0.0906
     23 H9          2.3220   -4.7093    0.6658 H         1 <0>         0.0905
     24 H10         2.8226   -4.5658   -1.0463 H         1 <0>         0.0968
     25 H11        -0.7285   -2.4288   -0.0072 H         1 <0>         0.4209
     26 H12         0.2011   -3.8281   -0.0225 H         1 <0>         0.4263
     27 H13         4.4285   -0.0636   -0.0366 H         1 <0>         0.4388
@<TRIPOS>BOND
     1    1    6 ar
     2    1    2 ar
     3    1   15 1
     4    2    3 ar
     5    2   16 1
     6    3    4 ar
     7    3   17 1
     8    4   10 ar
     9    4    5 ar
    10    5    6 ar
    11    5    7 ar
    12    6   18 1
    13    7    8 ar
    14    7   14 1
    15    8   13 1
    16    8    9 ar
    17    9   10 ar
    18    9   11 1
    19   10   27 1
    20   11   12 1
    21   11   19 1
    22   11   20 1
    23   12   13 1
    24   12   21 1
    25   12   22 1
    26   13   23 1
    27   13   24 1
    28   14   25 1
    29   14   26 1
@<TRIPOS>MOLECULE
ZINC01660914
   36    38     0     0     0
SMALL
USER_CHARGES
BLAHamine
@<TRIPOS>ATOM
      1 C1          1.1633    1.7647    0.0004 C.ar      1 <0>        -0.1185
      2 C2          1.1773    3.1569    0.0127 C.ar      1 <0>        -0.0243
      3 C3          0.0159    3.8672    0.0284 C.ar      1 <0>        -0.1574
      4 C4         -1.2144    3.1899    0.0268 C.ar      1 <0>         0.1905
      5 C5         -1.2284    1.7742    0.0175 C.ar      1 <0>        -0.1433
      6 C6         -0.0126    1.0755    0.0080 C.ar      1 <0>        -0.0545
      7 C7         -2.4709    1.1151    0.0281 C.ar      1 <0>         0.3574
      8 C8         -3.6692    1.8604    0.0363 C.ar      1 <0>        -0.1876
      9 C9         -3.5504    3.2343    0.0256 C.ar      1 <0>         0.2702
     10 C10        -4.7325    4.1719    0.0120 C.3       1 <0>        -0.1207
     11 C11        -5.3109    4.2403   -1.3995 C.3       1 <0>        -0.1196
     12 C12        -5.6630    2.8480   -1.9066 C.3       1 <0>        -0.1303
     13 C13        -6.7338    2.3661   -0.9545 C.3       1 <0>        -0.1330
     14 C14        -6.2240    1.6563    0.2863 C.3       1 <0>        -0.1192
     15 C15        -4.8869    0.9723    0.0447 C.3       1 <0>        -0.0689
     16 N1         -2.5154   -0.2719    0.0256 N.pl3     1 <0>        -0.7954
     17 H1          2.0972    1.2222   -0.0165 H         1 <0>         0.1507
     18 H2          2.1218    3.6804    0.0080 H         1 <0>         0.1532
     19 H3          0.0404    4.9468    0.0406 H         1 <0>         0.1540
     20 H4          0.0021   -0.0041    0.0020 H         1 <0>         0.1460
     21 H5         -5.4872    3.8578    0.7227 H         1 <0>         0.1236
     22 H6         -4.3872    5.1742    0.3002 H         1 <0>         0.0945
     23 H7         -6.2105    4.8599   -1.3926 H         1 <0>         0.0921
     24 H8         -4.5767    4.6929   -2.0697 H         1 <0>         0.0665
     25 H9         -6.0674    2.9134   -2.9231 H         1 <0>         0.0794
     26 H10        -4.7956    2.1951   -1.9035 H         1 <0>         0.0722
     27 H11        -7.3332    3.2248   -0.6426 H         1 <0>         0.0719
     28 H12        -7.3921    1.6809   -1.4973 H         1 <0>         0.0654
     29 H13        -6.1458    2.3501    1.1188 H         1 <0>         0.0715
     30 H14        -6.9586    0.8881    0.5684 H         1 <0>         0.0808
     31 H15        -4.7596    0.2205    0.8321 H         1 <0>         0.0828
     32 H16        -4.9367    0.4434   -0.9097 H         1 <0>         0.0902
     33 H17        -3.3705   -0.7297    0.0293 H         1 <0>         0.4264
     34 H18        -1.6913   -0.7835    0.0200 H         1 <0>         0.4212
     35 N2         -2.3714    3.9322    0.0264 N.ar      1 <0>        -0.5524
     36 H19        -2.3530    4.9588    0.0268 H         1 <0>         0.4646
@<TRIPOS>BOND
     1    1    6 ar
     2    1    2 ar
     3    1   17 1
     4    2    3 ar
     5    2   18 1
     6    3    4 ar
     7    3   19 1
     8    4    5 ar
     9    4   35 ar
    10    5    6 ar
    11    5    7 ar
    12    6   20 1
    13    7    8 ar
    14    7   16 1
    15    8   15 1
    16    8    9 ar
    17    9   10 1
    18    9   35 ar
    19   10   11 1
    20   10   21 1
    21   10   22 1
    22   11   12 1
    23   11   23 1
    24   11   24 1
    25   12   13 1
    26   12   25 1
    27   12   26 1
    28   13   14 1
    29   13   27 1
    30   13   28 1
    31   14   15 1
    32   14   29 1
    33   14   30 1
    34   15   31 1
    35   15   32 1
    36   16   33 1
    37   16   34 1
    38   35   36 1
@<TRIPOS>MOLECULE
ZINC03995599
   78    79     0     0     0
SMALL
USER_CHARGES

@<TRIPOS>ATOM
      1 C1         -4.6735    1.1423    4.1239 C.3       1 <0>        -0.1945
      2 C2         -4.8227   -0.3214    3.7040 C.3       1 <0>        -0.0252
      3 N1         -3.8668   -0.6226    2.6301 N.4       1 <0>        -0.2565
      4 C3         -4.0100   -2.0280    2.2269 C.3       1 <0>        -0.0237
      5 C4         -3.1315   -2.2999    1.0042 C.3       1 <0>        -0.1952
      6 C5         -4.1353    0.2473    1.4772 C.3       1 <0>        -0.0322
      7 C6         -5.5599    0.0034    0.9752 C.3       1 <0>         0.0949
      8 N2         -5.8276    0.8710   -0.1745 N.am      1 <0>        -0.7000
      9 C7         -7.0281    0.8284   -0.7858 C.2       1 <0>         0.5181
     10 O1         -7.8871    0.0714   -0.3838 O.2       1 <0>        -0.4978
     11 C8         -7.3013    1.7134   -1.9586 C.2       1 <0>         0.5180
     12 O2         -6.4423    2.4705   -2.3606 O.2       1 <0>        -0.4978
     13 N3         -8.5017    1.6708   -2.5699 N.am      1 <0>        -0.6999
     14 C9         -8.7695    2.5384   -3.7196 C.3       1 <0>         0.0949
     15 C10       -10.1940    2.2945   -4.2217 C.3       1 <0>        -0.0322
     16 N4        -10.4626    3.1645   -5.3745 N.4       1 <0>        -0.2565
     17 C11       -10.3193    4.5698   -4.9714 C.3       1 <0>        -0.0252
     18 C12       -11.3150    4.8835   -3.8528 C.3       1 <0>        -0.1945
     19 C13        -9.5066    2.8632   -6.4484 C.3       1 <0>        -0.0238
     20 C14        -9.5426    1.3653   -6.7580 C.3       1 <0>        -0.1952
     21 C15       -11.8303    2.9303   -5.8566 C.3       1 <0>         0.0329
     22 C16       -12.1630    3.9335   -6.9308 C.ar      1 <0>        -0.1447
     23 C17       -12.7133    5.1548   -6.5897 C.ar      1 <0>        -0.0924
     24 C18       -13.0184    6.0750   -7.5749 C.ar      1 <0>        -0.1044
     25 C19       -12.7734    5.7746   -8.9021 C.ar      1 <0>        -0.0701
     26 C20       -12.2232    4.5540   -9.2443 C.ar      1 <0>        -0.1000
     27 C21       -11.9123    3.6346   -8.2580 C.ar      1 <0>        -0.0263
     28 Cl1       -11.2150    2.1037   -8.6866 Cl        1 <0>        -0.0444
     29 C22        -2.4990   -0.3885    3.1121 C.3       1 <0>         0.0329
     30 C23        -2.2785   -1.1562    4.3900 C.ar      1 <0>        -0.1448
     31 C24        -2.5856   -0.5763    5.6067 C.ar      1 <0>        -0.0925
     32 C25        -2.3834   -1.2803    6.7788 C.ar      1 <0>        -0.1044
     33 C26        -1.8738   -2.5649    6.7353 C.ar      1 <0>        -0.0701
     34 C27        -1.5664   -3.1457    5.5196 C.ar      1 <0>        -0.1001
     35 C28        -1.7739   -2.4435    4.3454 C.ar      1 <0>        -0.0263
     36 Cl2        -1.3941   -3.1748    2.8175 Cl        1 <0>        -0.0444
     37 H1         -3.6587    1.3160    4.4816 H         1 <0>         0.0860
     38 H2         -4.8728    1.7878    3.2685 H         1 <0>         0.0810
     39 H3         -5.3829    1.3658    4.9208 H         1 <0>         0.1106
     40 H4         -4.6235   -0.9669    4.5594 H         1 <0>         0.1355
     41 H5         -5.8376   -0.4951    3.3463 H         1 <0>         0.1313
     42 H6         -3.7005   -2.6748    3.0478 H         1 <0>         0.1331
     43 H7         -5.0518   -2.2301    1.9780 H         1 <0>         0.1308
     44 H8         -3.5207   -1.7496    0.1475 H         1 <0>         0.0783
     45 H9         -2.1113   -1.9764    1.2107 H         1 <0>         0.0891
     46 H10        -3.1366   -3.3672    0.7833 H         1 <0>         0.1070
     47 H11        -4.0290    1.2901    1.7764 H         1 <0>         0.1420
     48 H12        -3.4260    0.0238    0.6804 H         1 <0>         0.1425
     49 H13        -5.6662   -1.0393    0.6760 H         1 <0>         0.0995
     50 H14        -6.2692    0.2270    1.7720 H         1 <0>         0.0994
     51 H15        -5.1410    1.4761   -0.4959 H         1 <0>         0.4218
     52 H16        -9.1883    1.0657   -2.2486 H         1 <0>         0.4218
     53 H17        -8.6632    3.5811   -3.4205 H         1 <0>         0.0994
     54 H18        -8.0602    2.3149   -4.5165 H         1 <0>         0.0995
     55 H19       -10.3003    1.2518   -4.5208 H         1 <0>         0.1425
     56 H20       -10.9034    2.5180   -3.4248 H         1 <0>         0.1420
     57 H21        -9.3044    4.7435   -4.6137 H         1 <0>         0.1313
     58 H22       -10.5186    5.2153   -5.8268 H         1 <0>         0.1355
     59 H23       -11.2087    5.9263   -3.5537 H         1 <0>         0.1106
     60 H24       -12.3299    4.7098   -4.2105 H         1 <0>         0.0859
     61 H25       -11.1157    4.2380   -2.9974 H         1 <0>         0.0810
     62 H26        -9.7756    3.4256   -7.3426 H         1 <0>         0.1331
     63 H27        -8.5026    3.1445   -6.1306 H         1 <0>         0.1308
     64 H28        -8.9320    1.1613   -7.6375 H         1 <0>         0.1070
     65 H29        -9.1509    0.8088   -5.9066 H         1 <0>         0.0782
     66 H30       -10.5708    1.0587   -6.9504 H         1 <0>         0.0891
     67 H31       -11.9040    1.9225   -6.2652 H         1 <0>         0.1411
     68 H32       -12.5309    3.0388   -5.0286 H         1 <0>         0.1431
     69 H33       -12.9053    5.3899   -5.5532 H         1 <0>         0.1463
     70 H34       -13.4488    7.0290   -7.3079 H         1 <0>         0.1458
     71 H35       -13.0124    6.4939   -9.6714 H         1 <0>         0.1486
     72 H36       -12.0322    4.3193  -10.2810 H         1 <0>         0.1491
     73 H37        -1.7860   -0.7240    2.3591 H         1 <0>         0.1411
     74 H38        -2.3567    0.6760    3.2986 H         1 <0>         0.1431
     75 H39        -2.9834    0.4272    5.6414 H         1 <0>         0.1464
     76 H40        -2.6232   -0.8267    7.7292 H         1 <0>         0.1457
     77 H41        -1.7157   -3.1144    7.6515 H         1 <0>         0.1486
     78 H42        -1.1680   -4.1490    5.4857 H         1 <0>         0.1491
@<TRIPOS>BOND
     1    1    2 1
     2    1   37 1
     3    1   38 1
     4    1   39 1
     5    2    3 1
     6    2   40 1
     7    2   41 1
     8    3    4 1
     9    3    6 1
    10    3   29 1
    11    4    5 1
    12    4   42 1
    13    4   43 1
    14    5   44 1
    15    5   45 1
    16    5   46 1
    17    6    7 1
    18    6   47 1
    19    6   48 1
    20    7    8 1
    21    7   49 1
    22    7   50 1
    23    8    9 am
    24    8   51 1
    25    9   10 2
    26    9   11 1
    27   11   12 2
    28   11   13 am
    29   13   14 1
    30   13   52 1
    31   14   15 1
    32   14   53 1
    33   14   54 1
    34   15   16 1
    35   15   55 1
    36   15   56 1
    37   16   17 1
    38   16   19 1
    39   16   21 1
    40   17   18 1
    41   17   57 1
    42   17   58 1
    43   18   59 1
    44   18   60 1
    45   18   61 1
    46   19   20 1
    47   19   62 1
    48   19   63 1
    49   20   64 1
    50   20   65 1
    51   20   66 1
    52   21   22 1
    53   21   67 1
    54   21   68 1
    55   22   27 ar
    56   22   23 ar
    57   23   24 ar
    58   23   69 1
    59   24   25 ar
    60   24   70 1
    61   25   26 ar
    62   25   71 1
    63   26   27 ar
    64   26   72 1
    65   27   28 1
    66   29   30 1
    67   29   73 1
    68   29   74 1
    69   30   35 ar
    70   30   31 ar
    71   31   32 ar
    72   31   75 1
    73   32   33 ar
    74   32   76 1
    75   33   34 ar
    76   33   77 1
    77   34   35 ar
    78   34   78 1
    79   35   36 1
@<TRIPOS>MOLECULE
ZINC00004227
   47    49     0     0     0
SMALL
USER_CHARGES

@<TRIPOS>ATOM
      1 C1         -0.3864    1.2876   -1.8325 C.3       1 <0>        -0.1859
      2 C2         -0.3157   -0.2095   -2.1403 C.3       1 <0>        -0.0240
      3 N1          0.6186   -0.8571   -1.2097 N.4       1 <0>        -0.3832
      4 C3          0.0897   -0.7660    0.1577 C.3       1 <0>        -0.0204
      5 C4          1.1332   -1.2937    1.1443 C.3       1 <0>        -0.1883
      6 C5          0.7782   -2.2697   -1.5800 C.3       1 <0>        -0.0016
      7 H1          1.3799   -2.7771   -0.8260 H         1 <0>         0.1421
      8 C6         -0.5979   -2.9331   -1.6655 C.3       1 <0>        -0.1800
      9 C7          1.4757   -2.3652   -2.9383 C.3       1 <0>         0.0998
     10 N2          2.7748   -1.6917   -2.8686 N.pl3     1 <0>        -0.5905
     11 C8          2.8771   -0.3657   -3.3027 C.ar      1 <0>         0.1504
     12 C9          2.1619    0.0653   -4.4091 C.ar      1 <0>        -0.1519
     13 C10         2.2696    1.3782   -4.8336 C.ar      1 <0>        -0.0755
     14 C11         3.0873    2.2665   -4.1616 C.ar      1 <0>        -0.1184
     15 C12         3.8065    1.8466   -3.0545 C.ar      1 <0>        -0.0534
     16 C13         3.7022    0.5369   -2.6267 C.ar      1 <0>        -0.1559
     17 S1          4.6067   -0.0283   -1.2193 S.3       1 <0>         0.0092
     18 C14         4.8280   -1.7433   -1.5774 C.ar      1 <0>        -0.1482
     19 C15         3.8768   -2.3910   -2.3646 C.ar      1 <0>         0.1681
     20 C16         4.0390   -3.7383   -2.6468 C.ar      1 <0>        -0.1418
     21 C17         5.1328   -4.4229   -2.1464 C.ar      1 <0>        -0.0754
     22 C18         6.0682   -3.7723   -1.3648 C.ar      1 <0>        -0.1192
     23 C19         5.9194   -2.4329   -1.0851 C.ar      1 <0>        -0.0550
     24 H2         -0.7338    1.4322   -0.8095 H         1 <0>         0.0818
     25 H3          0.6037    1.7290   -1.9459 H         1 <0>         0.0783
     26 H4         -1.0796    1.7680   -2.5230 H         1 <0>         0.1082
     27 H5         -1.3058   -0.6509   -2.0269 H         1 <0>         0.1351
     28 H6          0.0317   -0.3541   -3.1633 H         1 <0>         0.1246
     29 H7         -0.1374    0.2743    0.3909 H         1 <0>         0.1328
     30 H8         -0.8191   -1.3627    0.2363 H         1 <0>         0.1322
     31 H9          0.7229   -1.2709    2.1539 H         1 <0>         0.1079
     32 H10         1.3957   -2.3186    0.8819 H         1 <0>         0.0772
     33 H11         2.0244   -0.6677    1.1001 H         1 <0>         0.0828
     34 H12        -1.1997   -2.4256   -2.4194 H         1 <0>         0.0854
     35 H13        -0.4795   -3.9812   -1.9402 H         1 <0>         0.1081
     36 H14        -1.0948   -2.8650   -0.6977 H         1 <0>         0.0881
     37 H15         1.6234   -3.4135   -3.1980 H         1 <0>         0.1245
     38 H16         0.8584   -1.8861   -3.6983 H         1 <0>         0.1070
     39 H17         1.5211   -0.6232   -4.9398 H         1 <0>         0.1331
     40 H18         1.7110    1.7105   -5.6961 H         1 <0>         0.1391
     41 H19         3.1660    3.2891   -4.5000 H         1 <0>         0.1408
     42 H20         4.4462    2.5397   -2.5284 H         1 <0>         0.1425
     43 H21         3.3119   -4.2538   -3.2567 H         1 <0>         0.1319
     44 H22         5.2558   -5.4727   -2.3680 H         1 <0>         0.1375
     45 H23         6.9190   -4.3140   -0.9786 H         1 <0>         0.1392
     46 H24         6.6510   -1.9255   -0.4738 H         1 <0>         0.1394
     47 H25         1.5139   -0.3941   -1.2556 H         1 <0>         0.4214
@<TRIPOS>BOND
     1    1    2 1
     2    1   24 1
     3    1   25 1
     4    1   26 1
     5    2    3 1
     6    2   27 1
     7    2   28 1
     8    3    4 1
     9    3    6 1
    10    3   47 1
    11    4    5 1
    12    4   29 1
    13    4   30 1
    14    5   31 1
    15    5   32 1
    16    5   33 1
    17    6    7 1
    18    6    8 1
    19    6    9 1
    20    8   34 1
    21    8   35 1
    22    8   36 1
    23    9   10 1
    24    9   37 1
    25    9   38 1
    26   10   19 1
    27   10   11 1
    28   11   16 ar
    29   11   12 ar
    30   12   13 ar
    31   12   39 1
    32   13   14 ar
    33   13   40 1
    34   14   15 ar
    35   14   41 1
    36   15   16 ar
    37   15   42 1
    38   16   17 1
    39   17   18 1
    40   18   23 ar
    41   18   19 ar
    42   19   20 ar
    43   20   21 ar
    44   20   43 1
    45   21   22 ar
    46   21   44 1
    47   22   23 ar
    48   22   45 1
    49   23   46 1
@<TRIPOS>MOLECULE
ZINC00056651
   47    49     0     0     0
SMALL
USER_CHARGES

@<TRIPOS>ATOM
      1 C1          1.1666    0.9115   -2.7285 C.3       1 <0>        -0.1835
      2 C2          0.5062   -0.4267   -2.3911 C.3       1 <0>        -0.0270
      3 N1          1.0642   -0.9452   -1.1350 N.4       1 <0>        -0.3752
      4 C3          0.6710   -0.0670   -0.0251 C.3       1 <0>        -0.0493
      5 C4          1.3831   -0.5116    1.2540 C.3       1 <0>        -0.1755
      6 C5          0.5503   -2.3000   -0.8933 C.3       1 <0>        -0.0010
      7 H1          0.6745   -2.5532    0.1596 H         1 <0>         0.1431
      8 C6          1.3252   -3.3004   -1.7533 C.3       1 <0>        -0.1782
      9 C7         -0.9342   -2.3552   -1.2593 C.3       1 <0>         0.0981
     10 N2         -1.7069   -1.5824   -0.2836 N.pl3     1 <0>        -0.5884
     11 C8         -1.7847   -2.0387    1.0366 C.ar      1 <0>         0.1667
     12 C9         -1.8783   -3.3957    1.3033 C.ar      1 <0>        -0.1429
     13 C10        -1.9567   -3.8394    2.6119 C.ar      1 <0>        -0.0749
     14 C11        -1.9425   -2.9379    3.6590 C.ar      1 <0>        -0.1193
     15 C12        -1.8491   -1.5794    3.4040 C.ar      1 <0>        -0.0539
     16 C13        -1.7704   -1.1314    2.0992 C.ar      1 <0>        -0.1520
     17 S1         -1.6508    0.5938    1.7422 S.3       1 <0>         0.0153
     18 C14        -2.4017    0.7016    0.1476 C.ar      1 <0>        -0.1603
     19 C15        -2.3413   -0.4060   -0.6971 C.ar      1 <0>         0.1614
     20 C16        -2.9232   -0.3294   -1.9528 C.ar      1 <0>        -0.1525
     21 C17        -3.5509    0.8370   -2.3540 C.ar      1 <0>        -0.0723
     22 C18        -3.6027    1.9301   -1.5104 C.ar      1 <0>        -0.1192
     23 C19        -3.0339    1.8610   -0.2590 C.ar      1 <0>        -0.0506
     24 H2          0.9764    1.6233   -1.9252 H         1 <0>         0.0797
     25 H3          2.2414    0.7683   -2.8402 H         1 <0>         0.0811
     26 H4          0.7525    1.2963   -3.6605 H         1 <0>         0.1056
     27 H5         -0.5686   -0.2835   -2.2794 H         1 <0>         0.1274
     28 H6          0.6964   -1.1385   -3.1943 H         1 <0>         0.1299
     29 H7          0.9504    0.9605   -0.2581 H         1 <0>         0.1263
     30 H8         -0.4077   -0.1261    0.1203 H         1 <0>         0.1564
     31 H9          1.1698    0.1974    2.0539 H         1 <0>         0.1057
     32 H10         1.0287   -1.5014    1.5419 H         1 <0>         0.0735
     33 H11         2.4581   -0.5477    1.0776 H         1 <0>         0.0750
     34 H12         1.2719   -2.9983   -2.7992 H         1 <0>         0.0822
     35 H13         2.3672   -3.3231   -1.4343 H         1 <0>         0.0886
     36 H14         0.8885   -4.2926   -1.6390 H         1 <0>         0.1078
     37 H15        -1.0791   -1.9331   -2.2538 H         1 <0>         0.1132
     38 H16        -1.2721   -3.3915   -1.2517 H         1 <0>         0.1161
     39 H17        -1.8905   -4.1064    0.4902 H         1 <0>         0.1322
     40 H18        -2.0297   -4.8974    2.8160 H         1 <0>         0.1379
     41 H19        -2.0048   -3.2927    4.6771 H         1 <0>         0.1396
     42 H20        -1.8381   -0.8736    4.2214 H         1 <0>         0.1408
     43 H21        -2.8865   -1.1794   -2.6180 H         1 <0>         0.1339
     44 H22        -4.0030    0.8934   -3.3333 H         1 <0>         0.1394
     45 H23        -4.0949    2.8363   -1.8312 H         1 <0>         0.1411
     46 H24        -3.0748    2.7160    0.3995 H         1 <0>         0.1417
     47 H25         2.0707   -0.9741   -1.2007 H         1 <0>         0.4165
@<TRIPOS>BOND
     1    1    2 1
     2    1   24 1
     3    1   25 1
     4    1   26 1
     5    2    3 1
     6    2   27 1
     7    2   28 1
     8    3    4 1
     9    3    6 1
    10    3   47 1
    11    4    5 1
    12    4   29 1
    13    4   30 1
    14    5   31 1
    15    5   32 1
    16    5   33 1
    17    6    7 1
    18    6    8 1
    19    6    9 1
    20    8   34 1
    21    8   35 1
    22    8   36 1
    23    9   10 1
    24    9   37 1
    25    9   38 1
    26   10   19 1
    27   10   11 1
    28   11   16 ar
    29   11   12 ar
    30   12   13 ar
    31   12   39 1
    32   13   14 ar
    33   13   40 1
    34   14   15 ar
    35   14   41 1
    36   15   16 ar
    37   15   42 1
    38   16   17 1
    39   17   18 1
    40   18   23 ar
    41   18   19 ar
    42   19   20 ar
    43   20   21 ar
    44   20   43 1
    45   21   22 ar
    46   21   44 1
    47   22   23 ar
    48   22   45 1
    49   23   46 1
@<TRIPOS>MOLECULE
ZINC53022004
   57    60     0     0     0
SMALL
USER_CHARGES

@<TRIPOS>ATOM
      1 C1         -6.5759   -6.7397    6.4771 C.3       1 <0>        -0.1459
      2 C2         -5.6654   -5.5161    6.3560 C.3       1 <0>        -0.0559
      3 C3         -4.2048   -5.9524    6.4863 C.3       1 <0>        -0.1454
      4 C4         -5.8769   -4.8633    5.0143 C.ar      1 <0>        -0.0905
      5 C5         -5.6410   -5.5783    3.8544 C.ar      1 <0>        -0.0916
      6 C6         -5.8339   -4.9829    2.6232 C.ar      1 <0>        -0.1249
      7 C7         -6.2653   -3.6649    2.5508 C.ar      1 <0>         0.1539
      8 C8         -6.5013   -2.9497    3.7175 C.ar      1 <0>        -0.1415
      9 C9         -6.3119   -3.5525    4.9456 C.ar      1 <0>        -0.0951
     10 N1         -6.4612   -3.0586    1.3049 N.am      1 <0>        -0.6456
     11 C10        -6.7557   -3.8128    0.2273 C.2       1 <0>         0.6418
     12 O1         -6.9596   -5.0038    0.3566 O.2       1 <0>        -0.5338
     13 O2         -6.8241   -3.2464   -0.9925 O.3       1 <0>        -0.2947
     14 C11        -7.2270   -4.0217   -2.0347 C.ar      1 <0>         0.0496
     15 C12        -6.3470   -4.3153   -3.0658 C.ar      1 <0>        -0.0665
     16 C13        -6.7555   -5.1000   -4.1234 C.ar      1 <0>        -0.1616
     17 C14        -8.0512   -5.6126   -4.1624 C.ar      1 <0>         0.1991
     18 C15        -8.9279   -5.3113   -3.1282 C.ar      1 <0>        -0.1393
     19 C16        -8.5198   -4.5218   -2.0713 C.ar      1 <0>        -0.0551
     20 C17       -10.2530   -5.9756   -3.4216 C.3       1 <0>        -0.0358
     21 C18       -10.6179   -6.9191   -2.2503 C.3       1 <0>        -0.1104
     22 C19        -9.6556   -8.1083   -2.5226 C.3       1 <0>         0.0431
     23 N2         -9.7712   -8.2804   -3.9937 N.3       1 <0>        -0.5449
     24 C20        -9.9210   -6.9480   -4.5883 C.3       1 <0>         0.3105
     25 H1        -10.7175   -6.9280   -5.3382 H         1 <0>         0.1113
     26 N3         -8.6775   -6.4059   -5.1322 N.pl3     1 <0>        -0.6392
     27 C21        -8.1768   -6.5968   -6.4961 C.3       1 <0>         0.1072
     28 C22        -8.6737   -9.0786   -4.5288 C.3       1 <0>         0.0376
     29 C23       -11.3626   -4.9911   -3.7674 C.3       1 <0>        -0.1254
     30 H2         -6.4229   -7.2118    7.4475 H         1 <0>         0.0585
     31 H3         -7.6165   -6.4289    6.3842 H         1 <0>         0.0561
     32 H4         -6.3369   -7.4501    5.6857 H         1 <0>         0.0569
     33 H5         -5.9044   -4.8056    7.1474 H         1 <0>         0.0777
     34 H6         -3.9658   -6.6628    5.6949 H         1 <0>         0.0567
     35 H7         -3.5561   -5.0806    6.4001 H         1 <0>         0.0561
     36 H8         -4.0518   -6.4245    7.4568 H         1 <0>         0.0585
     37 H9         -5.3052   -6.6032    3.9113 H         1 <0>         0.1256
     38 H10        -5.6492   -5.5417    1.7176 H         1 <0>         0.1432
     39 H11        -6.8365   -1.9244    3.6645 H         1 <0>         0.1280
     40 H12        -6.4995   -2.9982    5.8533 H         1 <0>         0.1279
     41 H13        -6.3851   -2.0957    1.2167 H         1 <0>         0.4187
     42 H14        -5.3388   -3.9289   -3.0408 H         1 <0>         0.1341
     43 H15        -6.0613   -5.3164   -4.9225 H         1 <0>         0.1273
     44 H16        -9.2076   -4.2931   -1.2704 H         1 <0>         0.1240
     45 H17       -10.3984   -6.4555   -1.2928 H         1 <0>         0.0794
     46 H18       -11.6545   -7.2376   -2.3152 H         1 <0>         0.0844
     47 H19        -8.6372   -7.8507   -2.2402 H         1 <0>         0.0490
     48 H20        -9.9936   -9.0010   -2.0001 H         1 <0>         0.0848
     49 H21        -7.2546   -6.0307   -6.6271 H         1 <0>         0.0733
     50 H22        -7.9805   -7.6555   -6.6662 H         1 <0>         0.0557
     51 H23        -8.9227   -6.2464   -7.2094 H         1 <0>         0.0589
     52 H24        -8.6810  -10.0643   -4.0636 H         1 <0>         0.0691
     53 H25        -8.7937   -9.1847   -5.6069 H         1 <0>         0.0652
     54 H26        -7.7265   -8.5832   -4.3156 H         1 <0>         0.0284
     55 H27       -11.0723   -4.4090   -4.6421 H         1 <0>         0.0600
     56 H28       -12.2799   -5.5388   -3.9836 H         1 <0>         0.0670
     57 H29       -11.5297   -4.3210   -2.9241 H         1 <0>         0.0644
@<TRIPOS>BOND
     1    1    2 1
     2    1   30 1
     3    1   31 1
     4    1   32 1
     5    2    3 1
     6    2    4 1
     7    2   33 1
     8    3   34 1
     9    3   35 1
    10    3   36 1
    11    4    9 ar
    12    4    5 ar
    13    5    6 ar
    14    5   37 1
    15    6    7 ar
    16    6   38 1
    17    7    8 ar
    18    7   10 1
    19    8    9 ar
    20    8   39 1
    21    9   40 1
    22   10   11 am
    23   10   41 1
    24   11   12 2
    25   11   13 1
    26   13   14 1
    27   14   19 ar
    28   14   15 ar
    29   15   16 ar
    30   15   42 1
    31   16   17 ar
    32   16   43 1
    33   17   26 1
    34   17   18 ar
    35   18   19 ar
    36   18   20 1
    37   19   44 1
    38   20   24 1
    39   20   21 1
    40   20   29 1
    41   21   22 1
    42   21   45 1
    43   21   46 1
    44   22   23 1
    45   22   47 1
    46   22   48 1
    47   23   24 1
    48   23   28 1
    49   24   25 1
    50   24   26 1
    51   26   27 1
    52   27   49 1
    53   27   50 1
    54   27   51 1
    55   28   52 1
    56   28   53 1
    57   28   54 1
    58   29   55 1
    59   29   56 1
    60   29   57 1
@<TRIPOS>MOLECULE
ZINC00115374
   32    33     0     0     0
SMALL
USER_CHARGES
3-(4-chlorophenyl)-N,N-dimethyl-5-methylsulfanyl-1,2,4-triazole-1-carboxamide
@<TRIPOS>ATOM
      1 C1          1.3711    5.3651   -0.4348 C.3       1 <0>         0.0990
      2 N1          0.8821    4.0287   -0.0868 N.am      1 <0>        -0.6023
      3 C2         -0.5572    3.7556   -0.0743 C.3       1 <0>         0.0634
      4 C3          1.7563    3.0504    0.2218 C.2       1 <0>         0.7213
      5 O1          2.9458    3.2932    0.2751 O.2       1 <0>        -0.5219
      6 N2          1.3113    1.8030    0.4713 N.am      1 <0>        -0.3649
      7 C4          2.0721    0.6918    0.6949 C.2       1 <0>         0.2997
      8 N3          1.2571   -0.3196    0.8961 N.2       1 <0>        -0.5200
      9 C5         -0.0146    0.0996    0.8103 C.2       1 <0>         0.3006
     10 N4         -0.0275    1.3870    0.5526 N.2       1 <0>        -0.2954
     11 C6         -1.2151   -0.7555    0.9797 C.ar      1 <0>        -0.0217
     12 C7         -2.4891   -0.2009    0.8728 C.ar      1 <0>        -0.0660
     13 C8         -3.6026   -1.0014    1.0264 C.ar      1 <0>        -0.1138
     14 C9         -3.4556   -2.3512    1.2968 C.ar      1 <0>        -0.0154
     15 C10        -2.1920   -2.9058    1.4093 C.ar      1 <0>        -0.1142
     16 C11        -1.0724   -2.1147    1.2521 C.ar      1 <0>        -0.0574
     17 Cl1        -4.8603   -3.3518    1.4951 Cl        1 <0>        -0.0600
     18 S1          3.8327    0.6253    0.7108 S.3       1 <0>         0.0946
     19 C12         4.0776   -1.1330    1.0640 C.3       1 <0>        -0.1722
     20 H1          2.0137    5.2996   -1.3128 H         1 <0>         0.0686
     21 H2          0.5246    6.0166   -0.6519 H         1 <0>         0.0865
     22 H3          1.9387    5.7734    0.4014 H         1 <0>         0.0695
     23 H4         -0.9376    3.8578    0.9421 H         1 <0>         0.0613
     24 H5         -1.0673    4.4648   -0.7262 H         1 <0>         0.0745
     25 H6         -0.7376    2.7410   -0.4294 H         1 <0>         0.1062
     26 H7         -2.6048    0.8527    0.6658 H         1 <0>         0.1419
     27 H8         -4.5903   -0.5734    0.9393 H         1 <0>         0.1426
     28 H9         -2.0825   -3.9592    1.6207 H         1 <0>         0.1427
     29 H10        -0.0871   -2.5482    1.3403 H         1 <0>         0.1462
     30 H11         3.6164   -1.3791    2.0204 H         1 <0>         0.0957
     31 H12         3.6189   -1.7293    0.2752 H         1 <0>         0.0953
     32 H13         5.1450   -1.3493    1.1090 H         1 <0>         0.1155
@<TRIPOS>BOND
     1    1    2 1
     2    1   20 1
     3    1   21 1
     4    1   22 1
     5    2    3 1
     6    2    4 am
     7    3   23 1
     8    3   24 1
     9    3   25 1
    10    4    5 2
    11    4    6 am
    12    6   10 1
    13    6    7 1
    14    7    8 2
    15    7   18 1
    16    8    9 1
    17    9   10 2
    18    9   11 1
    19   11   16 ar
    20   11   12 ar
    21   12   13 ar
    22   12   26 1
    23   13   14 ar
    24   13   27 1
    25   14   15 ar
    26   14   17 1
    27   15   16 ar
    28   15   28 1
    29   16   29 1
    30   18   19 1
    31   19   30 1
    32   19   31 1
    33   19   32 1
@<TRIPOS>MOLECULE
ZINC00367097
   41    44     0     0     0
SMALL
USER_CHARGES

@<TRIPOS>ATOM
      1 C1         -0.0187    1.5258    0.0104 C.3       1 <0>        -0.1447
      2 C2          0.0021   -0.0041    0.0020 C.3       1 <0>        -0.0990
      3 C3          0.7074   -0.4901   -1.2379 C.2       1 <0>        -0.0987
      4 C4          1.9676   -0.7761   -1.1521 C.2       1 <0>        -0.1702
      5 C5          2.8028   -1.2650   -2.2969 C.3       1 <0>        -0.0486
      6 H1          3.4403   -2.0817   -1.9583 H         1 <0>         0.1105
      7 C6          3.6734   -0.1272   -2.8302 C.3       1 <0>        -0.1024
      8 C7          2.8126    0.9269   -3.4829 C.ar      1 <0>         0.2732
      9 C8          1.5157    0.6647   -3.8896 C.ar      1 <0>        -0.1983
     10 C9          0.7664    1.6713   -4.4909 C.ar      1 <0>         0.3632
     11 C10         1.3607    2.9413   -4.6635 C.ar      1 <0>        -0.1279
     12 C11         0.6660    4.0032   -5.2580 C.ar      1 <0>        -0.0521
     13 C12         1.2793    5.2124   -5.4032 C.ar      1 <0>        -0.0378
     14 C13         2.5893    5.4044   -4.9677 C.ar      1 <0>        -0.0246
     15 C14         3.2911    4.3930   -4.3870 C.ar      1 <0>        -0.1322
     16 C15         2.6908    3.1329   -4.2197 C.ar      1 <0>         0.1838
     17 N1          3.3516    2.1216   -3.6534 N.ar      1 <0>        -0.5137
     18 Cl1         0.4186    6.5280   -6.1395 Cl        1 <0>        -0.0210
     19 N2         -0.5334    1.4332   -4.9114 N.pl3     1 <0>        -0.7960
     20 C16         0.8583   -0.6771   -3.7068 C.3       1 <0>        -0.0385
     21 H2          0.2933   -0.9307   -4.6038 H         1 <0>         0.0966
     22 C17         1.9075   -1.7565   -3.4395 C.3       1 <0>        -0.1179
     23 C18        -0.0914   -0.6216   -2.5028 C.3       1 <0>        -0.0877
     24 H3          1.0039    1.9031    0.0027 H         1 <0>         0.0503
     25 H4         -0.5459    1.8868   -0.8726 H         1 <0>         0.0487
     26 H5         -0.5289    1.8773    0.9072 H         1 <0>         0.0636
     27 H6          0.5293   -0.3651    0.8851 H         1 <0>         0.0749
     28 H7         -1.0205   -0.3814    0.0098 H         1 <0>         0.0744
     29 H8          2.4485   -0.6541   -0.1928 H         1 <0>         0.1136
     30 H9          4.2284    0.3197   -2.0054 H         1 <0>         0.1127
     31 H10         4.3766   -0.5236   -3.5627 H         1 <0>         0.1248
     32 H11        -0.3492    3.8646   -5.5996 H         1 <0>         0.1554
     33 H12         3.0551    6.3707   -5.0934 H         1 <0>         0.1648
     34 H13         4.3054    4.5583   -4.0551 H         1 <0>         0.1657
     35 H14        -0.9303    0.5568   -4.7877 H         1 <0>         0.4267
     36 H15        -1.0456    2.1430   -5.3293 H         1 <0>         0.4220
     37 H16         2.5072   -1.9197   -4.3349 H         1 <0>         0.0814
     38 H17         1.4145   -2.6845   -3.1497 H         1 <0>         0.0924
     39 H18        -0.6860   -1.5343   -2.4632 H         1 <0>         0.0975
     40 H19        -0.7538    0.2381   -2.6047 H         1 <0>         0.0742
     41 H20         4.2629    2.2688   -3.3554 H         1 <0>         0.4409
@<TRIPOS>BOND
     1    1    2 1
     2    1   24 1
     3    1   25 1
     4    1   26 1
     5    2    3 1
     6    2   27 1
     7    2   28 1
     8    3   23 1
     9    3    4 2
    10    4    5 1
    11    4   29 1
    12    5    6 1
    13    5   22 1
    14    5    7 1
    15    7    8 1
    16    7   30 1
    17    7   31 1
    18    8   17 ar
    19    8    9 ar
    20    9   10 ar
    21    9   20 1
    22   10   11 ar
    23   10   19 1
    24   11   16 ar
    25   11   12 ar
    26   12   13 ar
    27   12   32 1
    28   13   14 ar
    29   13   18 1
    30   14   15 ar
    31   14   33 1
    32   15   16 ar
    33   15   34 1
    34   16   17 ar
    35   17   41 1
    36   19   35 1
    37   19   36 1
    38   20   21 1
    39   20   22 1
    40   20   23 1
    41   22   37 1
    42   22   38 1
    43   23   39 1
    44   23   40 1
@<TRIPOS>MOLECULE
ZINC00367100
   41    44     0     0     0
SMALL
USER_CHARGES

@<TRIPOS>ATOM
      1 C1         -0.0187    1.5258    0.0104 C.3       1 <0>        -0.1499
      2 C2          0.0021   -0.0041    0.0020 C.3       1 <0>        -0.0956
      3 C3          0.7074   -0.4901   -1.2379 C.2       1 <0>        -0.0988
      4 C4          1.9676   -0.7761   -1.1521 C.2       1 <0>        -0.1703
      5 C5          2.8005   -1.2744   -2.2945 C.3       1 <0>        -0.0487
      6 H1          3.7626   -0.7621   -2.2928 H         1 <0>         0.1104
      7 C6          3.0254   -2.7802   -2.1577 C.3       1 <0>        -0.1022
      8 C7          1.7260   -3.5222   -2.3552 C.ar      1 <0>         0.2732
      9 C8          0.6357   -2.9374   -2.9761 C.ar      1 <0>        -0.1994
     10 C9         -0.5380   -3.6674   -3.1367 C.ar      1 <0>         0.3632
     11 C10        -0.5777   -4.9936   -2.6512 C.ar      1 <0>        -0.1279
     12 C11        -1.7257   -5.7876   -2.7754 C.ar      1 <0>        -0.0520
     13 C12        -1.7189   -7.0625   -2.2914 C.ar      1 <0>        -0.0379
     14 C13        -0.5835   -7.5849   -1.6745 C.ar      1 <0>        -0.0247
     15 C14         0.5470   -6.8393   -1.5382 C.ar      1 <0>        -0.1321
     16 C15         0.5769   -5.5211   -2.0257 C.ar      1 <0>         0.1838
     17 N1          1.6697   -4.7647   -1.9079 N.ar      1 <0>        -0.5137
     18 Cl1        -3.1411   -8.0460   -2.4450 Cl        1 <0>        -0.0209
     19 N2         -1.6431   -3.1061   -3.7584 N.pl3     1 <0>        -0.7960
     20 C16         0.6514   -1.5233   -3.4918 C.3       1 <0>        -0.0379
     21 H2          0.1574   -1.4846   -4.4626 H         1 <0>         0.0968
     22 C17         2.0880   -1.0175   -3.6268 C.3       1 <0>        -0.1176
     23 C18        -0.0914   -0.6216   -2.5028 C.3       1 <0>        -0.0878
     24 H3          1.0039    1.9031    0.0027 H         1 <0>         0.0584
     25 H4         -0.5459    1.8868   -0.8726 H         1 <0>         0.0565
     26 H5         -0.5289    1.8773    0.9072 H         1 <0>         0.0614
     27 H6          0.5293   -0.3651    0.8851 H         1 <0>         0.0705
     28 H7         -1.0205   -0.3814    0.0098 H         1 <0>         0.0676
     29 H8          2.4502   -0.6468   -0.1947 H         1 <0>         0.1137
     30 H9          3.7455   -3.1073   -2.9078 H         1 <0>         0.1248
     31 H10         3.4181   -2.9978   -1.1645 H         1 <0>         0.1129
     32 H11        -2.6109   -5.3920   -3.2512 H         1 <0>         0.1555
     33 H12        -0.6011   -8.5972   -1.2985 H         1 <0>         0.1648
     34 H13         1.4181   -7.2589   -1.0571 H         1 <0>         0.1658
     35 H14        -1.6036   -2.1944   -4.0873 H         1 <0>         0.4267
     36 H15        -2.4556   -3.6252   -3.8645 H         1 <0>         0.4220
     37 H16         2.0826    0.0509   -3.8430 H         1 <0>         0.0922
     38 H17         2.5963   -1.5548   -4.4274 H         1 <0>         0.0816
     39 H18        -1.0647   -1.0557   -2.2738 H         1 <0>         0.0742
     40 H19        -0.2300    0.3634   -2.9485 H         1 <0>         0.0965
     41 H20         2.4532   -5.1412   -1.4776 H         1 <0>         0.4409
@<TRIPOS>BOND
     1    1    2 1
     2    1   24 1
     3    1   25 1
     4    1   26 1
     5    2    3 1
     6    2   27 1
     7    2   28 1
     8    3   23 1
     9    3    4 2
    10    4    5 1
    11    4   29 1
    12    5    6 1
    13    5   22 1
    14    5    7 1
    15    7    8 1
    16    7   30 1
    17    7   31 1
    18    8   17 ar
    19    8    9 ar
    20    9   10 ar
    21    9   20 1
    22   10   11 ar
    23   10   19 1
    24   11   16 ar
    25   11   12 ar
    26   12   13 ar
    27   12   32 1
    28   13   14 ar
    29   13   18 1
    30   14   15 ar
    31   14   33 1
    32   15   16 ar
    33   15   34 1
    34   16   17 ar
    35   17   41 1
    36   19   35 1
    37   19   36 1
    38   20   21 1
    39   20   22 1
    40   20   23 1
    41   22   37 1
    42   22   38 1
    43   23   39 1
    44   23   40 1
@<TRIPOS>MOLECULE
ZINC01668162
   49    52     0     0     0
SMALL
USER_CHARGES
2-[5-(2-isoquinolyl)pentyl]isoquinoline
@<TRIPOS>ATOM
      1 C1         -3.6189    1.8553    0.0285 C.ar      1 <0>        -0.0432
      2 C2         -3.5797    3.2485    0.0360 C.ar      1 <0>        -0.0842
      3 C3         -2.3942    3.9185    0.0437 C.ar      1 <0>        -0.0747
      4 C4         -1.1911    3.1954    0.0292 C.ar      1 <0>        -0.0961
      5 C5          0.0611    3.8310    0.0208 C.ar      1 <0>         0.1969
      6 N1          1.1591    3.1123    0.0073 N.ar      1 <0>        -0.3400
      7 C6          1.1491    1.7862    0.0007 C.ar      1 <0>         0.0424
      8 C7         -0.0126    1.0758    0.0080 C.ar      1 <0>        -0.0673
      9 C8         -1.2323    1.7769    0.0175 C.ar      1 <0>         0.0022
     10 C9         -2.4717    1.1209    0.0197 C.ar      1 <0>        -0.1117
     11 C10         2.4504    3.8041   -0.0013 C.3       1 <0>         0.0474
     12 C11         2.8865    4.0523   -1.4467 C.3       1 <0>        -0.1415
     13 C12         4.2351    4.7748   -1.4557 C.3       1 <0>        -0.1173
     14 C13         4.6711    5.0230   -2.9011 C.3       1 <0>        -0.1414
     15 C14         6.0197    5.7456   -2.9100 C.3       1 <0>         0.0474
     16 N2          6.4372    5.9832   -4.2940 N.ar      1 <0>        -0.3401
     17 C15         6.0685    7.1123   -4.8836 C.ar      1 <0>         0.0424
     18 C16         6.4189    7.4009   -6.1674 C.ar      1 <0>        -0.0674
     19 C17         7.1948    6.4692   -6.8811 C.ar      1 <0>         0.0023
     20 C18         7.5971    6.6899   -8.2062 C.ar      1 <0>        -0.1117
     21 C19         8.3476    5.7492   -8.8444 C.ar      1 <0>        -0.0432
     22 C20         8.7218    4.5710   -8.2007 C.ar      1 <0>        -0.0842
     23 C21         8.3491    4.3235   -6.9146 C.ar      1 <0>        -0.0747
     24 C22         7.5752    5.2698   -6.2246 C.ar      1 <0>        -0.0962
     25 C23         7.1648    5.0719   -4.8962 C.ar      1 <0>         0.1970
     26 H1         -4.5736    1.3503    0.0302 H         1 <0>         0.1545
     27 H2         -4.5048    3.8058    0.0433 H         1 <0>         0.1545
     28 H3         -2.3797    4.9984    0.0491 H         1 <0>         0.1556
     29 H4          0.1205    4.9094    0.0257 H         1 <0>         0.2084
     30 H5          2.0892    1.2546   -0.0104 H         1 <0>         0.1971
     31 H6          0.0021   -0.0041    0.0020 H         1 <0>         0.1840
     32 H7         -2.5164    0.0418    0.0147 H         1 <0>         0.1572
     33 H8          2.3552    4.7576    0.5183 H         1 <0>         0.1288
     34 H9          3.1957    3.1887    0.5025 H         1 <0>         0.1309
     35 H10         2.9817    3.0988   -1.9663 H         1 <0>         0.0865
     36 H11         2.1411    4.6677   -1.9505 H         1 <0>         0.0848
     37 H12         4.1399    5.7283   -0.9361 H         1 <0>         0.0861
     38 H13         4.9804    4.1594   -0.9519 H         1 <0>         0.0861
     39 H14         4.7663    4.0695   -3.4206 H         1 <0>         0.0848
     40 H15         3.9258    5.6385   -3.4049 H         1 <0>         0.0865
     41 H16         5.9245    6.6990   -2.3905 H         1 <0>         0.1308
     42 H17         6.7650    5.1301   -2.4063 H         1 <0>         0.1288
     43 H18         5.4729    7.8230   -4.3299 H         1 <0>         0.1971
     44 H19         6.1078    8.3267   -6.6285 H         1 <0>         0.1839
     45 H20         7.3141    7.5986   -8.7167 H         1 <0>         0.1572
     46 H21         8.6572    5.9189   -9.8651 H         1 <0>         0.1545
     47 H22         9.3169    3.8421   -8.7309 H         1 <0>         0.1545
     48 H23         8.6463    3.4057   -6.4292 H         1 <0>         0.1556
     49 H24         7.4443    4.1698   -4.3724 H         1 <0>         0.2085
@<TRIPOS>BOND
     1    1   10 ar
     2    1    2 ar
     3    1   26 1
     4    2    3 ar
     5    2   27 1
     6    3    4 ar
     7    3   28 1
     8    4    9 ar
     9    4    5 ar
    10    5    6 ar
    11    5   29 1
    12    6    7 ar
    13    6   11 1
    14    7    8 ar
    15    7   30 1
    16    8    9 ar
    17    8   31 1
    18    9   10 ar
    19   10   32 1
    20   11   12 1
    21   11   33 1
    22   11   34 1
    23   12   13 1
    24   12   35 1
    25   12   36 1
    26   13   14 1
    27   13   37 1
    28   13   38 1
    29   14   15 1
    30   14   39 1
    31   14   40 1
    32   15   16 1
    33   15   41 1
    34   15   42 1
    35   16   25 ar
    36   16   17 ar
    37   17   18 ar
    38   17   43 1
    39   18   19 ar
    40   18   44 1
    41   19   24 ar
    42   19   20 ar
    43   20   21 ar
    44   20   45 1
    45   21   22 ar
    46   21   46 1
    47   22   23 ar
    48   22   47 1
    49   23   24 ar
    50   23   48 1
    51   24   25 ar
    52   25   49 1
@<TRIPOS>MOLECULE
ZINC02156539
   52    55     0     0     0
SMALL
USER_CHARGES
2-[6-(2-isoquinolyl)hexyl]isoquinoline
@<TRIPOS>ATOM
      1 C1         -0.0126    1.0758    0.0080 C.ar      1 <0>        -0.0443
      2 C2         -1.2349    1.7453    0.0174 C.ar      1 <0>        -0.0848
      3 C3         -1.2912    3.1059    0.0301 C.ar      1 <0>        -0.0746
      4 C4         -0.0994    3.8474    0.0227 C.ar      1 <0>        -0.0961
      5 C5         -0.0947    5.2517    0.0292 C.ar      1 <0>         0.1969
      6 N1          1.0453    5.9018    0.0214 N.ar      1 <0>        -0.3389
      7 C6          2.2212    5.2889    0.0077 C.ar      1 <0>         0.0435
      8 C7          2.3244    3.9311   -0.0000 C.ar      1 <0>        -0.0682
      9 C8          1.1447    3.1645    0.0076 C.ar      1 <0>         0.0020
     10 C9          1.1639    1.7624    0.0004 C.ar      1 <0>        -0.1117
     11 C10         1.0177    7.3666    0.0285 C.3       1 <0>         0.0469
     12 C11         1.0219    7.8697    1.4734 C.3       1 <0>        -0.1418
     13 C12         0.9930    9.3994    1.4808 C.3       1 <0>        -0.1188
     14 C13         0.9972    9.9026    2.9257 C.3       1 <0>        -0.1188
     15 C14         0.9684   11.4323    2.9331 C.3       1 <0>        -0.1417
     16 C15         0.9725   11.9355    4.3780 C.3       1 <0>         0.0469
     17 N2          0.9449   13.4002    4.3851 N.ar      1 <0>        -0.3389
     18 C16        -0.2310   14.0132    4.3992 C.ar      1 <0>         0.0435
     19 C17        -0.3342   15.3709    4.4070 C.ar      1 <0>        -0.0682
     20 C18         0.8455   16.1376    4.3993 C.ar      1 <0>         0.0021
     21 C19         0.8264   17.5397    4.4071 C.ar      1 <0>        -0.1117
     22 C20         2.0028   18.2263    4.3995 C.ar      1 <0>        -0.0442
     23 C21         3.2251   17.5567    4.3840 C.ar      1 <0>        -0.0849
     24 C22         3.2814   16.1962    4.3766 C.ar      1 <0>        -0.0746
     25 C23         2.0895   15.4547    4.3837 C.ar      1 <0>        -0.0961
     26 C24         2.0850   14.0503    4.3826 C.ar      1 <0>         0.1971
     27 H1          0.0021   -0.0041    0.0020 H         1 <0>         0.1540
     28 H2         -2.1525    1.1757    0.0191 H         1 <0>         0.1540
     29 H3         -2.2459    3.6107    0.0417 H         1 <0>         0.1554
     30 H4         -1.0276    5.7957    0.0411 H         1 <0>         0.2082
     31 H5          3.1227    5.8836    0.0026 H         1 <0>         0.1969
     32 H6          3.2924    3.4523   -0.0111 H         1 <0>         0.1837
     33 H7          2.1041    1.2311   -0.0107 H         1 <0>         0.1568
     34 H8          1.8957    7.7490   -0.4920 H         1 <0>         0.1292
     35 H9          0.1162    7.7154   -0.4751 H         1 <0>         0.1272
     36 H10         0.1438    7.4872    1.9938 H         1 <0>         0.0836
     37 H11         1.9234    7.5209    1.9770 H         1 <0>         0.0854
     38 H12         1.8711    9.7819    0.9603 H         1 <0>         0.0777
     39 H13         0.0915    9.7483    0.9772 H         1 <0>         0.0777
     40 H14         0.1192    9.5201    3.4461 H         1 <0>         0.0777
     41 H15         1.8987    9.5538    3.4293 H         1 <0>         0.0776
     42 H16         1.8464   11.8148    2.4126 H         1 <0>         0.0836
     43 H17         0.0668   11.7812    2.4295 H         1 <0>         0.0854
     44 H18         0.0945   11.5530    4.8984 H         1 <0>         0.1291
     45 H19         1.8741   11.5866    4.8816 H         1 <0>         0.1272
     46 H20        -1.1325   13.4185    4.4050 H         1 <0>         0.1969
     47 H21        -1.3022   15.8497    4.4184 H         1 <0>         0.1837
     48 H22        -0.1138   18.0710    4.4194 H         1 <0>         0.1568
     49 H23         1.9882   19.3062    4.4058 H         1 <0>         0.1540
     50 H24         4.1427   18.1263    4.3782 H         1 <0>         0.1540
     51 H25         4.2361   15.6913    4.3650 H         1 <0>         0.1554
     52 H26         3.0179   13.5063    4.3754 H         1 <0>         0.2082
@<TRIPOS>BOND
     1    1   10 ar
     2    1    2 ar
     3    1   27 1
     4    2    3 ar
     5    2   28 1
     6    3    4 ar
     7    3   29 1
     8    4    9 ar
     9    4    5 ar
    10    5    6 ar
    11    5   30 1
    12    6    7 ar
    13    6   11 1
    14    7    8 ar
    15    7   31 1
    16    8    9 ar
    17    8   32 1
    18    9   10 ar
    19   10   33 1
    20   11   12 1
    21   11   34 1
    22   11   35 1
    23   12   13 1
    24   12   36 1
    25   12   37 1
    26   13   14 1
    27   13   38 1
    28   13   39 1
    29   14   15 1
    30   14   40 1
    31   14   41 1
    32   15   16 1
    33   15   42 1
    34   15   43 1
    35   16   17 1
    36   16   44 1
    37   16   45 1
    38   17   26 ar
    39   17   18 ar
    40   18   19 ar
    41   18   46 1
    42   19   20 ar
    43   19   47 1
    44   20   25 ar
    45   20   21 ar
    46   21   22 ar
    47   21   48 1
    48   22   23 ar
    49   22   49 1
    50   23   24 ar
    51   23   50 1
    52   24   25 ar
    53   24   51 1
    54   25   26 ar
    55   26   52 1
@<TRIPOS>MOLECULE
ZINC00016827
   30    32     0     0     0
SMALL
USER_CHARGES
1,2,3,4-tetrahydroacridin-9-amine
@<TRIPOS>ATOM
      1 C1         -2.2590   -4.1734    0.7266 C.ar      1 <0>        -0.1151
      2 C2         -1.1015   -4.8453    0.3414 C.ar      1 <0>        -0.0282
      3 C3          0.0181   -4.1626   -0.0240 C.ar      1 <0>        -0.1547
      4 C4          0.0125   -2.7569   -0.0146 C.ar      1 <0>         0.1855
      5 C5         -1.1660   -2.0778    0.3770 C.ar      1 <0>        -0.1377
      6 C6         -2.3011   -2.8116    0.7474 C.ar      1 <0>        -0.0565
      7 C7         -1.1623   -0.6653    0.3817 C.ar      1 <0>         0.3675
      8 C8          0.0021   -0.0041    0.0020 C.ar      1 <0>        -0.2105
      9 C9          1.1175   -0.7361   -0.3646 C.ar      1 <0>         0.2712
     10 C10         2.4120   -0.0754   -0.7701 C.3       1 <0>        -0.1168
     11 C11         2.1762    1.3865   -1.1417 C.3       1 <0>        -0.1213
     12 C12         1.4039    2.0583   -0.0003 C.3       1 <0>        -0.1267
     13 C13        -0.0183    1.5015    0.0103 C.3       1 <0>        -0.0727
     14 N1         -2.2920    0.0458    0.7563 N.pl3     1 <0>        -0.7940
     15 H1         -3.1340   -4.7385    1.0119 H         1 <0>         0.1511
     16 H2         -1.0919   -5.9252    0.3327 H         1 <0>         0.1529
     17 H3          0.9072   -4.6991   -0.3207 H         1 <0>         0.1539
     18 H4         -3.2041   -2.3007    1.0473 H         1 <0>         0.1465
     19 H5          3.1167   -0.1260    0.0600 H         1 <0>         0.1184
     20 H6          2.8304   -0.6013   -1.6283 H         1 <0>         0.1086
     21 H7          3.1338    1.8881   -1.2812 H         1 <0>         0.0939
     22 H8          1.5929    1.4414   -2.0609 H         1 <0>         0.0797
     23 H9          1.3752    3.1361   -0.1607 H         1 <0>         0.0897
     24 H10         1.8906    1.8408    0.9505 H         1 <0>         0.0760
     25 H11        -0.5506    1.8586   -0.8713 H         1 <0>         0.0921
     26 H12        -0.5337    1.8490    0.9057 H         1 <0>         0.0852
     27 H13        -2.2768    1.0157    0.7558 H         1 <0>         0.4265
     28 H14        -3.0975   -0.4265    1.0190 H         1 <0>         0.4221
     29 N2          1.1637   -2.1007   -0.3898 N.ar      1 <0>        -0.5514
     30 H15         2.0097   -2.6092   -0.6727 H         1 <0>         0.4649
@<TRIPOS>BOND
     1    1    6 ar
     2    1    2 ar
     3    1   15 1
     4    2    3 ar
     5    2   16 1
     6    3    4 ar
     7    3   17 1
     8    4    5 ar
     9    4   29 ar
    10    5    6 ar
    11    5    7 ar
    12    6   18 1
    13    7    8 ar
    14    7   14 1
    15    8   13 1
    16    8    9 ar
    17    9   10 1
    18    9   29 ar
    19   10   11 1
    20   10   19 1
    21   10   20 1
    22   11   12 1
    23   11   21 1
    24   11   22 1
    25   12   13 1
    26   12   23 1
    27   12   24 1
    28   13   25 1
    29   13   26 1
    30   14   27 1
    31   14   28 1
    32   29   30 1
@<TRIPOS>MOLECULE
ZINC00597013
   58    61     0     0     0
SMALL
USER_CHARGES

@<TRIPOS>ATOM
      1 C1         -0.0173    1.4248    0.0099 C.3       1 <0>         0.0208
      2 O1          0.0021   -0.0041    0.0020 O.3       1 <0>        -0.2950
      3 C2          0.6051   -0.6064   -1.0545 C.ar      1 <0>         0.1532
      4 C3          1.1721    0.1632   -2.0609 C.ar      1 <0>        -0.1821
      5 C4          1.7866   -0.4410   -3.1387 C.ar      1 <0>        -0.0371
      6 C5          1.8416   -1.8340   -3.2219 C.ar      1 <0>        -0.2044
      7 C6          1.2663   -2.6106   -2.2012 C.ar      1 <0>        -0.1044
      8 C7          0.6597   -1.9984   -1.1254 C.ar      1 <0>         0.0877
      9 O2          0.1088   -2.7516   -0.1361 O.3       1 <0>        -0.3011
     10 C8          0.2013   -4.1710   -0.2735 C.3       1 <0>         0.0231
     11 C9          2.5389   -2.2531   -4.4456 C.2       1 <0>         0.4182
     12 O3          2.7420   -3.3976   -4.7923 O.2       1 <0>        -0.4477
     13 C10         2.9584   -1.0129   -5.1966 C.3       1 <0>        -0.1391
     14 H1          4.0434   -0.9806   -5.2959 H         1 <0>         0.1138
     15 C11         2.4673    0.1645   -4.3432 C.3       1 <0>        -0.0780
     16 C12         2.2994   -0.9808   -6.5770 C.3       1 <0>        -0.0982
     17 C13         2.8476   -2.1260   -7.4307 C.3       1 <0>        -0.1155
     18 C14         4.3380   -1.8972   -7.6982 C.3       1 <0>        -0.1415
     19 C15         4.8612   -3.0029   -8.6175 C.3       1 <0>        -0.0066
     20 N1          4.1252   -2.9777   -9.8872 N.4       1 <0>        -0.3801
     21 C16         2.7066   -3.2675   -9.6464 C.3       1 <0>        -0.0118
     22 C17         2.1004   -2.1720   -8.7666 C.3       1 <0>        -0.1383
     23 C18         4.6828   -3.9891  -10.7949 C.3       1 <0>         0.0438
     24 C19         4.0113   -3.8820  -12.1398 C.ar      1 <0>        -0.1605
     25 C20         2.8641   -4.6083  -12.3993 C.ar      1 <0>        -0.0978
     26 C21         2.2481   -4.5101  -13.6329 C.ar      1 <0>        -0.1135
     27 C22         2.7790   -3.6851  -14.6068 C.ar      1 <0>        -0.0847
     28 C23         3.9256   -2.9580  -14.3470 C.ar      1 <0>        -0.1130
     29 C24         4.5392   -3.0530  -13.1119 C.ar      1 <0>        -0.0942
     30 H2          1.0053    1.8021    0.0021 H         1 <0>         0.0608
     31 H3         -0.5445    1.7859   -0.8732 H         1 <0>         0.0604
     32 H4         -0.5275    1.7763    0.9067 H         1 <0>         0.1088
     33 H5          1.1317    1.2407   -2.0004 H         1 <0>         0.1449
     34 H6          1.3038   -3.6885   -2.2575 H         1 <0>         0.1426
     35 H7         -0.2763   -4.6506    0.5809 H         1 <0>         0.1075
     36 H8         -0.2996   -4.4806   -1.1908 H         1 <0>         0.0566
     37 H9          1.2502   -4.4644   -0.3155 H         1 <0>         0.0572
     38 H10         1.7583    0.7678   -4.9101 H         1 <0>         0.0961
     39 H11         3.3123    0.7764   -4.0277 H         1 <0>         0.0964
     40 H12         1.2208   -1.0934   -6.4674 H         1 <0>         0.0800
     41 H13         2.5179   -0.0293   -7.0618 H         1 <0>         0.0849
     42 H14         2.7114   -3.0706   -6.9042 H         1 <0>         0.1081
     43 H15         4.4772   -0.9286   -8.1782 H         1 <0>         0.0886
     44 H16         4.8846   -1.9188   -6.7553 H         1 <0>         0.1118
     45 H17         5.9222   -2.8432   -8.8098 H         1 <0>         0.1305
     46 H18         4.7218   -3.9711   -8.1364 H         1 <0>         0.1303
     47 H19         2.1768   -3.3031  -10.5983 H         1 <0>         0.1310
     48 H20         2.6131   -4.2300   -9.1434 H         1 <0>         0.1282
     49 H21         1.0476   -2.3899   -8.5875 H         1 <0>         0.1106
     50 H22         2.1932   -1.2090   -9.2688 H         1 <0>         0.0874
     51 H23         5.7540   -3.8234  -10.9095 H         1 <0>         0.1365
     52 H24         4.5111   -4.9828  -10.3812 H         1 <0>         0.1348
     53 H25         2.4494   -5.2529  -11.6384 H         1 <0>         0.1308
     54 H26         1.3522   -5.0781  -13.8359 H         1 <0>         0.1360
     55 H27         2.2981   -3.6088  -15.5708 H         1 <0>         0.1358
     56 H28         4.3405   -2.3138  -15.1080 H         1 <0>         0.1360
     57 H29         5.4329   -2.4822  -12.9076 H         1 <0>         0.1309
     58 H30         4.2142   -2.0651  -10.3083 H         1 <0>         0.4207
@<TRIPOS>BOND
     1    1    2 1
     2    1   30 1
     3    1   31 1
     4    1   32 1
     5    2    3 1
     6    3    8 ar
     7    3    4 ar
     8    4    5 ar
     9    4   33 1
    10    5   15 1
    11    5    6 ar
    12    6    7 ar
    13    6   11 1
    14    7    8 ar
    15    7   34 1
    16    8    9 1
    17    9   10 1
    18   10   35 1
    19   10   36 1
    20   10   37 1
    21   11   12 2
    22   11   13 1
    23   13   14 1
    24   13   15 1
    25   13   16 1
    26   15   38 1
    27   15   39 1
    28   16   17 1
    29   16   40 1
    30   16   41 1
    31   17   22 1
    32   17   18 1
    33   17   42 1
    34   18   19 1
    35   18   43 1
    36   18   44 1
    37   19   20 1
    38   19   45 1
    39   19   46 1
    40   20   21 1
    41   20   23 1
    42   20   58 1
    43   21   22 1
    44   21   47 1
    45   21   48 1
    46   22   49 1
    47   22   50 1
    48   23   24 1
    49   23   51 1
    50   23   52 1
    51   24   29 ar
    52   24   25 ar
    53   25   26 ar
    54   25   53 1
    55   26   27 ar
    56   26   54 1
    57   27   28 ar
    58   27   55 1
    59   28   29 ar
    60   28   56 1
    61   29   57 1
@<TRIPOS>MOLECULE
ZINC00897251
   58    61     0     0     0
SMALL
USER_CHARGES

@<TRIPOS>ATOM
      1 C1         -0.4000    2.7928   -9.4111 C.3       1 <0>         0.0217
      2 O1         -0.3921    3.3043   -8.0768 O.3       1 <0>        -0.2952
      3 C2          0.2864    2.5865   -7.1456 C.ar      1 <0>         0.1496
      4 C3          0.9365    1.4157   -7.5106 C.ar      1 <0>        -0.1810
      5 C4          1.6280    0.6797   -6.5702 C.ar      1 <0>        -0.0432
      6 C5          1.6776    1.1109   -5.2428 C.ar      1 <0>        -0.1980
      7 C6          1.0179    2.2969   -4.8763 C.ar      1 <0>        -0.1053
      8 C7          0.3345    3.0288   -5.8236 C.ar      1 <0>         0.0903
      9 O2         -0.2981    4.1789   -5.4680 O.3       1 <0>        -0.3013
     10 C8         -0.2072    4.5722   -4.0972 C.3       1 <0>         0.0223
     11 C9          2.4645    0.1785   -4.4238 C.2       1 <0>         0.4126
     12 O3          2.6844    0.2862   -3.2359 O.2       1 <0>        -0.4369
     13 C10         2.9517   -0.9365   -5.3169 C.3       1 <0>        -0.1385
     14 H1          2.5591   -1.8938   -4.9740 H         1 <0>         0.1136
     15 C11         2.4055   -0.6071   -6.7129 C.3       1 <0>        -0.0752
     16 C12         4.4812   -0.9687   -5.3380 C.3       1 <0>        -0.1018
     17 C13         4.9548   -2.1846   -6.1369 C.3       1 <0>        -0.0999
     18 C14         4.5565   -3.4674   -5.4014 C.3       1 <0>        -0.1473
     19 C15         5.1018   -4.6765   -6.1643 C.3       1 <0>        -0.0062
     20 N1          6.5650   -4.5904   -6.2436 N.4       1 <0>        -0.3817
     21 C16         6.9530   -3.4000   -7.0098 C.3       1 <0>        -0.0117
     22 C17         6.4789   -2.1417   -6.2794 C.3       1 <0>        -0.1414
     23 C18         7.0894   -5.7910   -6.9081 C.3       1 <0>         0.0445
     24 C19         8.5959   -5.7625   -6.8811 C.ar      1 <0>        -0.1617
     25 C20         9.2944   -5.1622   -7.9119 C.ar      1 <0>        -0.0980
     26 C21        10.6763   -5.1361   -7.8871 C.ar      1 <0>        -0.1136
     27 C22        11.3596   -5.7098   -6.8313 C.ar      1 <0>        -0.0841
     28 C23        10.6611   -6.3093   -5.8000 C.ar      1 <0>        -0.1126
     29 C24         9.2791   -6.3317   -5.8227 C.ar      1 <0>        -0.0940
     30 H2          0.6233    2.7264   -9.7808 H         1 <0>         0.0592
     31 H3         -0.8537    1.8018   -9.4176 H         1 <0>         0.0598
     32 H4         -0.9755    3.4601  -10.0527 H         1 <0>         0.1082
     33 H5          0.9006    1.0787   -8.5360 H         1 <0>         0.1432
     34 H6          1.0506    2.6377   -3.8520 H         1 <0>         0.1438
     35 H7         -0.7539    5.5035   -3.9494 H         1 <0>         0.1078
     36 H8         -0.6376    3.7942   -3.4667 H         1 <0>         0.0580
     37 H9          0.8393    4.7188   -3.8299 H         1 <0>         0.0577
     38 H10         1.7480   -1.4060   -7.0558 H         1 <0>         0.0927
     39 H11         3.2285   -0.4716   -7.4146 H         1 <0>         0.0925
     40 H12         4.8574   -0.0583   -5.8047 H         1 <0>         0.0823
     41 H13         4.8574   -1.0358   -4.3172 H         1 <0>         0.0822
     42 H14         4.4958   -2.1724   -7.1255 H         1 <0>         0.0950
     43 H15         4.9736   -3.4540   -4.3944 H         1 <0>         0.0914
     44 H16         3.4699   -3.5323   -5.3452 H         1 <0>         0.1144
     45 H17         4.8199   -5.5916   -5.6435 H         1 <0>         0.1311
     46 H18         4.6840   -4.6890   -7.1710 H         1 <0>         0.1295
     47 H19         8.0378   -3.3726   -7.1131 H         1 <0>         0.1315
     48 H20         6.4957   -3.4397   -7.9984 H         1 <0>         0.1282
     49 H21         6.7664   -1.2591   -6.8507 H         1 <0>         0.1129
     50 H22         6.9359   -2.1009   -5.2906 H         1 <0>         0.0893
     51 H23         6.7334   -6.6795   -6.3867 H         1 <0>         0.1365
     52 H24         6.7449   -5.8138   -7.9420 H         1 <0>         0.1348
     53 H25         8.7606   -4.7139   -8.7368 H         1 <0>         0.1306
     54 H26        11.2221   -4.6677   -8.6928 H         1 <0>         0.1361
     55 H27        12.4393   -5.6901   -6.8123 H         1 <0>         0.1360
     56 H28        11.1949   -6.7579   -4.9753 H         1 <0>         0.1363
     57 H29         8.7332   -6.7968   -5.0151 H         1 <0>         0.1311
     58 H30         6.9482   -4.5293   -5.3123 H         1 <0>         0.4220
@<TRIPOS>BOND
     1    1    2 1
     2    1   30 1
     3    1   31 1
     4    1   32 1
     5    2    3 1
     6    3    8 ar
     7    3    4 ar
     8    4    5 ar
     9    4   33 1
    10    5   15 1
    11    5    6 ar
    12    6    7 ar
    13    6   11 1
    14    7    8 ar
    15    7   34 1
    16    8    9 1
    17    9   10 1
    18   10   35 1
    19   10   36 1
    20   10   37 1
    21   11   12 2
    22   11   13 1
    23   13   14 1
    24   13   15 1
    25   13   16 1
    26   15   38 1
    27   15   39 1
    28   16   17 1
    29   16   40 1
    30   16   41 1
    31   17   22 1
    32   17   18 1
    33   17   42 1
    34   18   19 1
    35   18   43 1
    36   18   44 1
    37   19   20 1
    38   19   45 1
    39   19   46 1
    40   20   21 1
    41   20   23 1
    42   20   58 1
    43   21   22 1
    44   21   47 1
    45   21   48 1
    46   22   49 1
    47   22   50 1
    48   23   24 1
    49   23   51 1
    50   23   52 1
    51   24   29 ar
    52   24   25 ar
    53   25   26 ar
    54   25   53 1
    55   26   27 ar
    56   26   54 1
    57   27   28 ar
    58   27   55 1
    59   28   29 ar
    60   28   56 1
    61   29   57 1
@<TRIPOS>MOLECULE
ZINC27623417
   40    41     0     0     0
SMALL
USER_CHARGES
[(3R)-3-(prop-2-ynylamino)indan-5-yl] N-ethyl-N-methyl-carbamate
@<TRIPOS>ATOM
      1 C1         -5.1809   -4.9697    0.2602 C.3       1 <0>        -0.1728
      2 C2         -3.8693   -4.4486    0.8510 C.3       1 <0>         0.1231
      3 N1         -2.8066   -4.5524   -0.1521 N.am      1 <0>        -0.5955
      4 C3         -1.9983   -5.7711   -0.2394 C.3       1 <0>         0.0740
      5 C4         -2.5727   -3.5268   -0.9946 C.2       1 <0>         0.6414
      6 O1         -3.2431   -2.5160   -0.9222 O.2       1 <0>        -0.5463
      7 O2         -1.5958   -3.6223   -1.9167 O.3       1 <0>        -0.3028
      8 C5         -1.3291   -2.5096   -2.6508 C.ar      1 <0>         0.0990
      9 C6         -1.6573   -2.4701   -3.9982 C.ar      1 <0>        -0.1107
     10 C7         -1.3850   -1.3381   -4.7392 C.ar      1 <0>        -0.0940
     11 C8         -0.7856   -0.2403   -4.1433 C.ar      1 <0>        -0.0897
     12 C9         -0.4558   -0.2787   -2.7995 C.ar      1 <0>        -0.0676
     13 C10        -0.7291   -1.4115   -2.0551 C.ar      1 <0>        -0.0921
     14 C11         0.1803    1.0336   -2.3934 C.3       1 <0>         0.1148
     15 H1          1.2632    0.9380   -2.2252 H         1 <0>         0.0652
     16 C12        -0.1897    2.0282   -3.5141 C.3       1 <0>        -0.1146
     17 C13        -0.3901    1.0983   -4.7295 C.3       1 <0>        -0.0765
     18 N2         -0.3655    1.4883   -1.1076 N.3       1 <0>        -0.6662
     19 C14         0.3950    0.9251    0.0159 C.3       1 <0>         0.1556
     20 C15        -0.1791    1.4014    1.2849 C.1       1 <0>        -0.1946
     21 C16        -0.6371    1.7813    2.2969 C.1       1 <0>        -0.1941
     22 H2         -5.9788   -4.8918    1.0134 H         1 <0>         0.0726
     23 H3         -5.0573   -6.0220   -0.0355 H         1 <0>         0.0583
     24 H4         -5.4495   -4.3700   -0.6220 H         1 <0>         0.0610
     25 H5         -3.9929   -3.3963    1.1467 H         1 <0>         0.0894
     26 H6         -3.6007   -5.0483    1.7332 H         1 <0>         0.0876
     27 H7         -1.2577   -5.6629   -1.0455 H         1 <0>         0.0872
     28 H8         -2.6515   -6.6297   -0.4544 H         1 <0>         0.0665
     29 H9         -1.4788   -5.9358    0.7161 H         1 <0>         0.0669
     30 H10        -2.1253   -3.3235   -4.4663 H         1 <0>         0.1334
     31 H11        -1.6406   -1.3077   -5.7881 H         1 <0>         0.1319
     32 H12        -0.4727   -1.4408   -1.0064 H         1 <0>         0.1214
     33 H13        -1.1050    2.5709   -3.2352 H         1 <0>         0.0890
     34 H14         0.6330    2.7447   -3.6548 H         1 <0>         0.0814
     35 H15         0.5377    0.9849   -5.3094 H         1 <0>         0.0865
     36 H16        -1.1924    1.4614   -5.3887 H         1 <0>         0.0825
     37 H17        -0.3126    2.5857   -1.0544 H         1 <0>         0.3487
     38 H18         0.3436   -0.1731   -0.0205 H         1 <0>         0.0910
     39 H19         1.4449    1.2456   -0.0547 H         1 <0>         0.0568
     40 H20        -1.0662    2.1373    3.2451 H         1 <0>         0.2323
@<TRIPOS>BOND
     1    1    2 1
     2    1   22 1
     3    1   23 1
     4    1   24 1
     5    2    3 1
     6    2   25 1
     7    2   26 1
     8    3    4 1
     9    3    5 am
    10    4   27 1
    11    4   28 1
    12    4   29 1
    13    5    6 2
    14    5    7 1
    15    7    8 1
    16    8   13 ar
    17    8    9 ar
    18    9   10 ar
    19    9   30 1
    20   10   11 ar
    21   10   31 1
    22   11   17 1
    23   11   12 ar
    24   12   13 ar
    25   12   14 1
    26   13   32 1
    27   14   15 1
    28   14   16 1
    29   14   18 1
    30   16   17 1
    31   16   33 1
    32   16   34 1
    33   17   35 1
    34   17   36 1
    35   18   19 1
    36   18   37 1
    37   19   20 1
    38   19   38 1
    39   19   39 1
    40   20   21 3
    41   21   40 1
@<TRIPOS>MOLECULE
ZINC00240941
   12    12     0     0     0
SMALL
USER_CHARGES
2,3,5,6-tetrachloro-1,4-benzoquinone
@<TRIPOS>ATOM
      1 C1         -1.3306    3.9299    0.0350 C.2       1 <0>        -0.0674
      2 C2         -0.1766    4.6173    0.0282 C.2       1 <0>        -0.0674
      3 C3          1.1125    3.8962    0.0119 C.2       1 <0>         0.4278
      4 O1          2.1560    4.5177    0.0053 O.2       1 <0>        -0.3486
      5 C4          1.1326    2.4191    0.0042 C.2       1 <0>        -0.0674
      6 C5         -0.0215    1.7317    0.0116 C.2       1 <0>        -0.0674
      7 C6         -1.3106    2.4529    0.0216 C.2       1 <0>         0.4278
      8 O2         -2.3541    1.8314    0.0232 O.2       1 <0>        -0.3486
      9 Cl1         0.0021   -0.0041    0.0020 Cl        1 <0>         0.0278
     10 Cl2         2.6476    1.5717   -0.0148 Cl        1 <0>         0.0278
     11 Cl3        -0.2001    6.3531    0.0378 Cl        1 <0>         0.0278
     12 Cl4        -2.8456    4.7773    0.0536 Cl        1 <0>         0.0278
@<TRIPOS>BOND
     1    1    7 1
     2    1    2 2
     3    1   12 1
     4    2    3 1
     5    2   11 1
     6    3    4 2
     7    3    5 1
     8    5    6 2
     9    5   10 1
    10    6    7 1
    11    6    9 1
    12    7    8 2
@<TRIPOS>MOLECULE
ZINC00001792
   35    35     0     0     0
SMALL
USER_CHARGES

@<TRIPOS>ATOM
      1 C1         -2.3864   -0.1136    0.8491 C.3       1 <0>         0.0945
      2 N1         -1.1535   -0.7733    0.4119 N.am      1 <0>        -0.5903
      3 C2          0.0376   -0.7388    1.2642 C.3       1 <0>         0.0743
      4 C3         -1.1151   -1.4118   -0.7743 C.2       1 <0>         0.6463
      5 O1         -2.1030   -1.4404   -1.4812 O.2       1 <0>        -0.5504
      6 O2          0.0183   -2.0183   -1.1762 O.3       1 <0>        -0.3048
      7 C4         -0.0166   -2.7362   -2.3300 C.ar      1 <0>         0.1376
      8 C5          0.0059   -2.0847   -3.5547 C.ar      1 <0>        -0.0737
      9 C6         -0.0298   -2.8164   -4.7257 C.ar      1 <0>        -0.0768
     10 C7         -0.0882   -4.1972   -4.6780 C.ar      1 <0>        -0.0953
     11 C8         -0.1111   -4.8487   -3.4589 C.ar      1 <0>        -0.0299
     12 C9         -0.0690   -4.1215   -2.2849 C.ar      1 <0>        -0.0979
     13 N2         -0.1712   -6.2447   -3.4141 N.4       1 <0>        -0.2093
     14 C10        -0.2000   -6.7778   -4.7826 C.3       1 <0>        -0.0508
     15 C11         1.0100   -6.7633   -2.7113 C.3       1 <0>        -0.0465
     16 C12        -1.3866   -6.6599   -2.7011 C.3       1 <0>        -0.0461
     17 H1         -2.3896    0.9188    0.4997 H         1 <0>         0.0682
     18 H2         -3.2465   -0.6400    0.4353 H         1 <0>         0.0840
     19 H3         -2.4403   -0.1289    1.9377 H         1 <0>         0.0869
     20 H4          0.0305   -1.5991    1.9335 H         1 <0>         0.0651
     21 H5          0.9313   -0.7706    0.6410 H         1 <0>         0.0800
     22 H6          0.0372    0.1790    1.8522 H         1 <0>         0.0853
     23 H7          0.0508   -1.0063   -3.5925 H         1 <0>         0.1518
     24 H8         -0.0123   -2.3097   -5.6793 H         1 <0>         0.1593
     25 H9         -0.1164   -4.7676   -5.5947 H         1 <0>         0.1574
     26 H10        -0.0821   -4.6311   -1.3327 H         1 <0>         0.1508
     27 H11         0.7019   -6.4697   -5.3116 H         1 <0>         0.1266
     28 H12        -0.2468   -7.8662   -4.7476 H         1 <0>         0.1304
     29 H13        -1.0764   -6.3930   -5.3040 H         1 <0>         0.1265
     30 H14         1.0314   -6.3677   -1.6958 H         1 <0>         0.1205
     31 H15         0.9632   -7.8517   -2.6763 H         1 <0>         0.1286
     32 H16         1.9119   -6.4552   -3.2403 H         1 <0>         0.1246
     33 H17        -2.2631   -6.2751   -3.2226 H         1 <0>         0.1247
     34 H18        -1.4334   -7.7483   -2.6661 H         1 <0>         0.1289
     35 H19        -1.3652   -6.2643   -1.6857 H         1 <0>         0.1197
@<TRIPOS>BOND
     1    1    2 1
     2    1   17 1
     3    1   18 1
     4    1   19 1
     5    2    3 1
     6    2    4 am
     7    3   20 1
     8    3   21 1
     9    3   22 1
    10    4    5 2
    11    4    6 1
    12    6    7 1
    13    7   12 ar
    14    7    8 ar
    15    8    9 ar
    16    8   23 1
    17    9   10 ar
    18    9   24 1
    19   10   11 ar
    20   10   25 1
    21   11   12 ar
    22   11   13 1
    23   12   26 1
    24   13   14 1
    25   13   15 1
    26   13   16 1
    27   14   27 1
    28   14   28 1
    29   14   29 1
    30   15   30 1
    31   15   31 1
    32   15   32 1
    33   16   33 1
    34   16   34 1
    35   16   35 1
@<TRIPOS>MOLECULE
ZINC01665662
   64    67     0     0     0
SMALL
USER_CHARGES
1-[10-(1-quinolyl)decyl]quinoline
@<TRIPOS>ATOM
      1 C1          2.4866    4.0671    0.0011 C.ar      1 <0>        -0.0974
      2 C2          3.6688    3.3294   -0.0140 C.ar      1 <0>        -0.0321
      3 C3          3.6475    1.9688   -0.0216 C.ar      1 <0>        -0.1479
      4 C4          2.4160    1.2903   -0.0140 C.ar      1 <0>         0.1313
      5 C5          1.2152    2.0427    0.0014 C.ar      1 <0>        -0.0826
      6 C6          1.2754    3.4457    0.0088 C.ar      1 <0>        -0.0626
      7 C7         -0.0165    1.3619    0.0095 C.ar      1 <0>         0.0431
      8 C8          0.0021   -0.0041    0.0020 C.ar      1 <0>        -0.1677
      9 C9          1.2184   -0.6827   -0.0133 C.ar      1 <0>         0.1942
     10 N1          2.3640   -0.0452   -0.0207 N.ar      1 <0>        -0.3476
     11 C10         3.6122   -0.8121   -0.0373 C.3       1 <0>         0.0452
     12 C11         4.1265   -0.9802    1.3938 C.3       1 <0>        -0.1414
     13 C12         5.4300   -1.7811    1.3765 C.3       1 <0>        -0.1186
     14 C13         5.9443   -1.9492    2.8076 C.3       1 <0>        -0.1206
     15 C14         7.2478   -2.7501    2.7903 C.3       1 <0>        -0.1217
     16 C15         7.7621   -2.9182    4.2215 C.3       1 <0>        -0.1217
     17 C16         9.0656   -3.7191    4.2042 C.3       1 <0>        -0.1206
     18 C17         9.5799   -3.8873    5.6353 C.3       1 <0>        -0.1186
     19 C18        10.8834   -4.6882    5.6180 C.3       1 <0>        -0.1413
     20 C19        11.3978   -4.8563    7.0491 C.3       1 <0>         0.0451
     21 N2         12.6459   -5.6232    7.0326 N.ar      1 <0>        -0.3475
     22 C20        12.6065   -6.9188    7.2293 C.ar      1 <0>         0.1942
     23 C21        13.7614   -7.6974    7.2176 C.ar      1 <0>        -0.1677
     24 C22        14.9772   -7.1105    7.0090 C.ar      1 <0>         0.0431
     25 C23        15.0162   -5.7187    6.8044 C.ar      1 <0>        -0.0826
     26 C24        13.8025   -4.9872    6.8226 C.ar      1 <0>         0.1312
     27 C25        13.8395   -3.5966    6.6185 C.ar      1 <0>        -0.1479
     28 C26        15.0324   -2.9767    6.4075 C.ar      1 <0>        -0.0321
     29 C27        16.2247   -3.6980    6.3904 C.ar      1 <0>        -0.0974
     30 C28        16.2289   -5.0454    6.5846 C.ar      1 <0>        -0.0626
     31 H1          2.5319    5.1462    0.0064 H         1 <0>         0.1552
     32 H2          4.6173    3.8458   -0.0202 H         1 <0>         0.1557
     33 H3          4.5730    1.4123   -0.0329 H         1 <0>         0.1537
     34 H4          0.3661    4.0283    0.0201 H         1 <0>         0.1615
     35 H5         -0.9504    1.9043    0.0169 H         1 <0>         0.1790
     36 H6         -0.9255   -0.5573    0.0083 H         1 <0>         0.1866
     37 H7          1.2177   -1.7627   -0.0187 H         1 <0>         0.2059
     38 H8          3.4299   -1.7933   -0.4755 H         1 <0>         0.1301
     39 H9          4.3567   -0.2816   -0.6310 H         1 <0>         0.1257
     40 H10         4.3087    0.0011    1.8320 H         1 <0>         0.0819
     41 H11         3.3820   -1.5106    1.9875 H         1 <0>         0.0829
     42 H12         5.2477   -2.7623    0.9383 H         1 <0>         0.0744
     43 H13         6.1745   -1.2507    0.7828 H         1 <0>         0.0730
     44 H14         6.1266   -0.9679    3.2458 H         1 <0>         0.0655
     45 H15         5.1998   -2.4796    3.4013 H         1 <0>         0.0662
     46 H16         7.0655   -3.7314    2.3521 H         1 <0>         0.0649
     47 H17         7.9923   -2.2197    2.1967 H         1 <0>         0.0643
     48 H18         7.9444   -1.9370    4.6597 H         1 <0>         0.0643
     49 H19         7.0176   -3.4487    4.8152 H         1 <0>         0.0649
     50 H20         8.8834   -4.7004    3.7660 H         1 <0>         0.0661
     51 H21         9.8101   -3.1887    3.6105 H         1 <0>         0.0655
     52 H22         9.7622   -2.9060    6.0735 H         1 <0>         0.0730
     53 H23         8.8354   -4.4177    6.2290 H         1 <0>         0.0744
     54 H24        10.7012   -5.6694    5.1798 H         1 <0>         0.0829
     55 H25        11.6279   -4.1577    5.0243 H         1 <0>         0.0819
     56 H26        11.5800   -3.8750    7.4873 H         1 <0>         0.1256
     57 H27        10.6533   -5.3867    7.6428 H         1 <0>         0.1301
     58 H28        11.6527   -7.3958    7.4003 H         1 <0>         0.2059
     59 H29        13.6962   -8.7635    7.3776 H         1 <0>         0.1866
     60 H30        15.8832   -7.6982    7.0011 H         1 <0>         0.1790
     61 H31        12.9247   -3.0227    6.6287 H         1 <0>         0.1537
     62 H32        15.0555   -1.9084    6.2512 H         1 <0>         0.1557
     63 H33        17.1577   -3.1811    6.2211 H         1 <0>         0.1552
     64 H34        17.1593   -5.5936    6.5691 H         1 <0>         0.1615
@<TRIPOS>BOND
     1    1    6 ar
     2    1    2 ar
     3    1   31 1
     4    2    3 ar
     5    2   32 1
     6    3    4 ar
     7    3   33 1
     8    4   10 ar
     9    4    5 ar
    10    5    6 ar
    11    5    7 ar
    12    6   34 1
    13    7    8 ar
    14    7   35 1
    15    8    9 ar
    16    8   36 1
    17    9   10 ar
    18    9   37 1
    19   10   11 1
    20   11   12 1
    21   11   38 1
    22   11   39 1
    23   12   13 1
    24   12   40 1
    25   12   41 1
    26   13   14 1
    27   13   42 1
    28   13   43 1
    29   14   15 1
    30   14   44 1
    31   14   45 1
    32   15   16 1
    33   15   46 1
    34   15   47 1
    35   16   17 1
    36   16   48 1
    37   16   49 1
    38   17   18 1
    39   17   50 1
    40   17   51 1
    41   18   19 1
    42   18   52 1
    43   18   53 1
    44   19   20 1
    45   19   54 1
    46   19   55 1
    47   20   21 1
    48   20   56 1
    49   20   57 1
    50   21   26 ar
    51   21   22 ar
    52   22   23 ar
    53   22   58 1
    54   23   24 ar
    55   23   59 1
    56   24   25 ar
    57   24   60 1
    58   25   30 ar
    59   25   26 ar
    60   26   27 ar
    61   27   28 ar
    62   27   61 1
    63   28   29 ar
    64   28   62 1
    65   29   30 ar
    66   29   63 1
    67   30   64 1
@<TRIPOS>MOLECULE
ZINC01669613
   52    53     0     0     0
SMALL
USER_CHARGES
1-[10-(1-pyridyl)decyl]pyridine
@<TRIPOS>ATOM
      1 C1          1.3008    0.1891    4.6689 C.ar      1 <0>         0.0004
      2 C2          1.6322    1.4058    4.0924 C.ar      1 <0>        -0.1184
      3 C3          0.9424    1.8307    2.9727 C.ar      1 <0>         0.1195
      4 N1         -0.0203    1.0939    2.4537 N.ar      1 <0>        -0.3357
      5 C4         -0.3656   -0.0657    2.9782 C.ar      1 <0>         0.1195
      6 C5          0.2834   -0.5578    4.0947 C.ar      1 <0>        -0.1184
      7 C6         -0.7288    1.5792    1.2668 C.3       1 <0>         0.0446
      8 C7         -0.0127    1.0858    0.0080 C.3       1 <0>        -0.1407
      9 C8         -0.7527    1.5927   -1.2315 C.3       1 <0>        -0.1193
     10 C9         -0.0366    1.0992   -2.4903 C.3       1 <0>        -0.1210
     11 C10        -0.7766    1.6061   -3.7298 C.3       1 <0>        -0.1220
     12 C11        -0.0604    1.1126   -4.9886 C.3       1 <0>        -0.1220
     13 C12        -0.8004    1.6195   -6.2282 C.3       1 <0>        -0.1210
     14 C13        -0.0843    1.1261   -7.4870 C.3       1 <0>        -0.1193
     15 C14        -0.8243    1.6329   -8.7265 C.3       1 <0>        -0.1407
     16 C15        -0.1081    1.1395   -9.9853 C.3       1 <0>         0.0446
     17 N2         -0.8167    1.6248  -11.1722 N.ar      1 <0>        -0.3357
     18 C16        -1.7757    0.8856  -11.6944 C.ar      1 <0>         0.1194
     19 C17        -2.4692    1.3129  -12.8109 C.ar      1 <0>        -0.1183
     20 C18        -2.1377    2.5296  -13.3873 C.ar      1 <0>         0.0003
     21 C19        -1.1204    3.2765  -12.8133 C.ar      1 <0>        -0.1183
     22 C20        -0.4751    2.7869  -11.6935 C.ar      1 <0>         0.1194
     23 H1          1.8229   -0.1685    5.5440 H         1 <0>         0.1780
     24 H2          2.4197    2.0136    4.5129 H         1 <0>         0.1859
     25 H3          1.1945    2.7771    2.5178 H         1 <0>         0.2039
     26 H4         -1.1622   -0.6392    2.5278 H         1 <0>         0.2039
     27 H5         -0.0013   -1.5099    4.5175 H         1 <0>         0.1859
     28 H6         -0.7436    2.6691    1.2728 H         1 <0>         0.1295
     29 H7         -1.7514    1.2020    1.2746 H         1 <0>         0.1295
     30 H8          0.0021   -0.0041    0.0020 H         1 <0>         0.0824
     31 H9          1.0099    1.4631    0.0003 H         1 <0>         0.0824
     32 H10        -1.7753    1.2154   -1.2238 H         1 <0>         0.0742
     33 H11        -0.7675    2.6825   -1.2255 H         1 <0>         0.0742
     34 H12         0.9860    1.4765   -2.4981 H         1 <0>         0.0660
     35 H13        -0.0218    0.0093   -2.4963 H         1 <0>         0.0660
     36 H14        -1.7991    1.2288   -3.7221 H         1 <0>         0.0648
     37 H15        -0.7913    2.6960   -3.7239 H         1 <0>         0.0648
     38 H16         0.9622    1.4899   -4.9964 H         1 <0>         0.0648
     39 H17        -0.0456    0.0228   -4.9946 H         1 <0>         0.0648
     40 H18        -1.8230    1.2422   -6.2204 H         1 <0>         0.0660
     41 H19        -0.8152    2.7094   -6.2222 H         1 <0>         0.0660
     42 H20         0.9383    1.5033   -7.4947 H         1 <0>         0.0742
     43 H21        -0.0695    0.0362   -7.4930 H         1 <0>         0.0742
     44 H22        -1.8469    1.2556   -8.7188 H         1 <0>         0.0824
     45 H23        -0.8390    2.7228   -8.7205 H         1 <0>         0.0824
     46 H24         0.9145    1.5168   -9.9930 H         1 <0>         0.1295
     47 H25        -0.0933    0.0496   -9.9913 H         1 <0>         0.1295
     48 H26        -2.0247   -0.0631  -11.2422 H         1 <0>         0.2040
     49 H27        -3.2562    0.7048  -13.2318 H         1 <0>         0.1859
     50 H28        -2.6598    2.8872  -14.2625 H         1 <0>         0.1779
     51 H29        -0.8361    4.2289  -13.2356 H         1 <0>         0.1859
     52 H30         0.3184    3.3626  -11.2403 H         1 <0>         0.2039
@<TRIPOS>BOND
     1    1    6 ar
     2    1    2 ar
     3    1   23 1
     4    2    3 ar
     5    2   24 1
     6    3    4 ar
     7    3   25 1
     8    4    5 ar
     9    4    7 1
    10    5    6 ar
    11    5   26 1
    12    6   27 1
    13    7    8 1
    14    7   28 1
    15    7   29 1
    16    8    9 1
    17    8   30 1
    18    8   31 1
    19    9   10 1
    20    9   32 1
    21    9   33 1
    22   10   11 1
    23   10   34 1
    24   10   35 1
    25   11   12 1
    26   11   36 1
    27   11   37 1
    28   12   13 1
    29   12   38 1
    30   12   39 1
    31   13   14 1
    32   13   40 1
    33   13   41 1
    34   14   15 1
    35   14   42 1
    36   14   43 1
    37   15   16 1
    38   15   44 1
    39   15   45 1
    40   16   17 1
    41   16   46 1
    42   16   47 1
    43   17   22 ar
    44   17   18 ar
    45   18   19 ar
    46   18   48 1
    47   19   20 ar
    48   19   49 1
    49   20   21 ar
    50   20   50 1
    51   21   22 ar
    52   21   51 1
    53   22   52 1
@<TRIPOS>MOLECULE
ZINC01691218
   17    18     0     0     0
SMALL
USER_CHARGES
indane-1,2-dione
@<TRIPOS>ATOM
      1 C1          0.5499    5.9326    0.0286 C.ar      1 <0>        -0.0721
      2 C2         -0.8342    5.8935    0.0417 C.ar      1 <0>        -0.1313
      3 C3         -1.4926    4.6841    0.0415 C.ar      1 <0>        -0.0389
      4 C4         -0.7607    3.4871    0.0281 C.ar      1 <0>        -0.1905
      5 C5          0.6344    3.5368    0.0150 C.ar      1 <0>        -0.0455
      6 C6          1.2800    4.7573    0.0158 C.ar      1 <0>        -0.1145
      7 C7          1.1795    2.1296    0.0022 C.3       1 <0>        -0.1271
      8 C8         -0.0143    1.2037    0.0087 C.2       1 <0>         0.3403
      9 O1          0.0021   -0.0041    0.0020 O.2       1 <0>        -0.3744
     10 C9         -1.2166    2.0849    0.0183 C.2       1 <0>         0.3545
     11 O2         -2.3719    1.7123    0.0210 O.2       1 <0>        -0.3863
     12 H1          1.0614    6.8838    0.0289 H         1 <0>         0.1365
     13 H2         -1.3989    6.8141    0.0523 H         1 <0>         0.1365
     14 H3         -2.5722    4.6569    0.0520 H         1 <0>         0.1343
     15 H4          2.3593    4.7948    0.0061 H         1 <0>         0.1352
     16 H5          1.7518    1.9865    0.8097 H         1 <0>         0.1147
     17 H6          1.7735    1.9667   -0.8971 H         1 <0>         0.1285
@<TRIPOS>BOND
     1    1    6 ar
     2    1    2 ar
     3    1   12 1
     4    2    3 ar
     5    2   13 1
     6    3    4 ar
     7    3   14 1
     8    4   10 1
     9    4    5 ar
    10    5    6 ar
    11    5    7 1
    12    6   15 1
    13    7    8 1
    14    7   16 1
    15    7   17 1
    16    8    9 2
    17    8   10 1
    18   10   11 2
@<TRIPOS>MOLECULE
ZINC03155930
   24    26     0     0     0
SMALL
USER_CHARGES
5,6-dinitroacenaphthene-1,2-dione
@<TRIPOS>ATOM
      1 C1         -3.4635   -2.4217    0.5516 C.ar      1 <0>         0.0012
      2 C2         -3.5920   -0.9510    0.5640 C.ar      1 <0>        -0.0153
      3 C3         -2.5790   -0.1606    0.2522 C.ar      1 <0>        -0.0177
      4 C4         -1.2930   -0.7743   -0.1154 C.ar      1 <0>         0.0092
      5 C5         -0.0914   -0.0073   -0.4809 C.ar      1 <0>        -0.0177
      6 C6          1.0091   -0.6674   -0.7988 C.ar      1 <0>        -0.0154
      7 C7          1.0628   -2.1427   -0.7846 C.ar      1 <0>         0.0011
      8 C8         -0.0134   -2.8272   -0.4572 C.ar      1 <0>        -0.1293
      9 C9         -1.2137   -2.0684   -0.1169 C.ar      1 <0>        -0.0343
     10 C10        -2.3121   -2.9689    0.2220 C.ar      1 <0>        -0.1293
     11 C11        -1.7865   -4.3363    0.0902 C.2       1 <0>         0.3854
     12 O1         -2.4033   -5.3532    0.2899 O.2       1 <0>        -0.3419
     13 C12        -0.3683   -4.2489   -0.3292 C.2       1 <0>         0.3853
     14 O2          0.3683   -5.1824   -0.5306 O.2       1 <0>        -0.3419
     15 N1         -0.1141    1.3474   -0.4968 N.pl3     1 <0>         0.0464
     16 O3          0.2227    1.9504   -1.5000 O.2       1 <0>        -0.1015
     17 O4         -0.4762    1.9620    0.4905 O.3       1 <0>        -0.1663
     18 N2         -2.7220    1.1867    0.2708 N.pl3     1 <0>         0.0465
     19 O5         -3.1346    1.7415    1.2735 O.2       1 <0>        -0.1018
     20 O6         -2.4380    1.8429   -0.7152 O.3       1 <0>        -0.1661
     21 H1         -4.3072   -3.0439    0.8113 H         1 <0>         0.1766
     22 H2         -4.5393   -0.5087    0.8350 H         1 <0>         0.1751
     23 H3          1.8940   -0.1122   -1.0729 H         1 <0>         0.1751
     24 H4          1.9764   -2.6566   -1.0446 H         1 <0>         0.1766
@<TRIPOS>BOND
     1    1   10 ar
     2    1    2 ar
     3    1   21 1
     4    2    3 ar
     5    2   22 1
     6    3    4 ar
     7    3   18 1
     8    4    9 ar
     9    4    5 ar
    10    5    6 ar
    11    5   15 1
    12    6    7 ar
    13    6   23 1
    14    7    8 ar
    15    7   24 1
    16    8   13 1
    17    8    9 ar
    18    9   10 ar
    19   10   11 1
    20   11   12 2
    21   11   13 1
    22   13   14 2
    23   15   16 2
    24   15   17 1
    25   18   19 2
    26   18   20 1
@<TRIPOS>MOLECULE
ZINC00402121
   35    38     0     0     0
SMALL
USER_CHARGES
phenothiazin-10-yl-phenyl-methanone
@<TRIPOS>ATOM
      1 C1          1.1454    3.1736   -0.1770 C.ar      1 <0>        -0.0924
      2 C2          0.9900    2.1700    0.7628 C.ar      1 <0>        -0.1207
      3 C3         -0.1936    1.4651    0.8344 C.ar      1 <0>        -0.0744
      4 C4         -1.2341    1.7627   -0.0476 C.ar      1 <0>        -0.1326
      5 C5         -1.0722    2.7795   -0.9905 C.ar      1 <0>        -0.0735
      6 C6          0.1165    3.4769   -1.0510 C.ar      1 <0>        -0.1186
      7 C7         -2.5026    1.0077    0.0194 C.2       1 <0>         0.5664
      8 O1         -2.4900   -0.2075   -0.0256 O.2       1 <0>        -0.4903
      9 N1         -3.6735    1.6658    0.1302 N.am      1 <0>        -0.5040
     10 C8         -3.6687    3.0653    0.1418 C.ar      1 <0>         0.1395
     11 C9         -2.6548    3.7592    0.7781 C.ar      1 <0>        -0.1155
     12 C10        -2.6580    5.1423    0.7815 C.ar      1 <0>        -0.0900
     13 C11        -3.6679    5.8423    0.1483 C.ar      1 <0>        -0.1106
     14 C12        -4.6862    5.1603   -0.4960 C.ar      1 <0>        -0.0689
     15 C13        -4.6874    3.7776   -0.5027 C.ar      1 <0>        -0.1261
     16 S1         -5.9717    2.8795   -1.3166 S.3       1 <0>         0.0186
     17 C14        -6.0259    1.3767   -0.3911 C.ar      1 <0>        -0.1279
     18 C15        -4.8597    0.9305    0.2363 C.ar      1 <0>         0.1430
     19 C16        -4.8894   -0.2479    0.9662 C.ar      1 <0>        -0.0977
     20 C17        -6.0658   -0.9689    1.0675 C.ar      1 <0>        -0.0936
     21 C18        -7.2166   -0.5231    0.4447 C.ar      1 <0>        -0.1122
     22 C19        -7.1988    0.6522   -0.2868 C.ar      1 <0>        -0.0712
     23 H1          2.0741    3.7224   -0.2289 H         1 <0>         0.1306
     24 H2          1.7974    1.9378    1.4415 H         1 <0>         0.1334
     25 H3         -0.3134    0.6818    1.5682 H         1 <0>         0.1313
     26 H4         -1.8744    3.0170   -1.6734 H         1 <0>         0.1254
     27 H5          0.2444    4.2612   -1.7824 H         1 <0>         0.1318
     28 H6         -1.8623    3.2197    1.2755 H         1 <0>         0.1387
     29 H7         -1.8661    5.6792    1.2827 H         1 <0>         0.1350
     30 H8         -3.6629    6.9222    0.1564 H         1 <0>         0.1366
     31 H9         -5.4761    5.7059   -0.9908 H         1 <0>         0.1396
     32 H10        -3.9946   -0.6028    1.4558 H         1 <0>         0.1388
     33 H11        -6.0852   -1.8861    1.6374 H         1 <0>         0.1356
     34 H12        -8.1307   -1.0920    0.5293 H         1 <0>         0.1365
     35 H13        -8.0972    1.0014   -0.7741 H         1 <0>         0.1393
@<TRIPOS>BOND
     1    1    6 ar
     2    1    2 ar
     3    1   23 1
     4    2    3 ar
     5    2   24 1
     6    3    4 ar
     7    3   25 1
     8    4    5 ar
     9    4    7 1
    10    5    6 ar
    11    5   26 1
    12    6   27 1
    13    7    8 2
    14    7    9 am
    15    9   18 1
    16    9   10 1
    17   10   15 ar
    18   10   11 ar
    19   11   12 ar
    20   11   28 1
    21   12   13 ar
    22   12   29 1
    23   13   14 ar
    24   13   30 1
    25   14   15 ar
    26   14   31 1
    27   15   16 1
    28   16   17 1
    29   17   22 ar
    30   17   18 ar
    31   18   19 ar
    32   19   20 ar
    33   19   32 1
    34   20   21 ar
    35   20   33 1
    36   21   22 ar
    37   21   34 1
    38   22   35 1
@<TRIPOS>MOLECULE
ZINC05942897
   38    41     0     0     0
SMALL
USER_CHARGES
m-tolyl-phenothiazin-10-yl-methanone
@<TRIPOS>ATOM
      1 C1          0.2936    6.4807   -1.7956 C.3       1 <0>        -0.1168
      2 C2         -0.5505    5.6971   -0.8237 C.ar      1 <0>        -0.0889
      3 C3         -1.3376    6.3626    0.0997 C.ar      1 <0>        -0.0910
      4 C4         -2.1156    5.6509    0.9954 C.ar      1 <0>        -0.1164
      5 C5         -2.1109    4.2714    0.9736 C.ar      1 <0>        -0.0774
      6 C6         -1.3193    3.5939    0.0448 C.ar      1 <0>        -0.1320
      7 C7         -0.5369    4.3183   -0.8566 C.ar      1 <0>        -0.0690
      8 C8         -1.3047    2.1164    0.0197 C.2       1 <0>         0.5668
      9 O1         -0.2507    1.5206   -0.0943 O.2       1 <0>        -0.4924
     10 N1         -2.4595    1.4292    0.1232 N.am      1 <0>        -0.5045
     11 C9         -2.4145    0.0333    0.2141 C.ar      1 <0>         0.1416
     12 C10        -1.4782   -0.6875   -0.5059 C.ar      1 <0>        -0.0987
     13 C11        -1.4402   -2.0666   -0.4071 C.ar      1 <0>        -0.0944
     14 C12        -2.3314   -2.7352    0.4113 C.ar      1 <0>        -0.1126
     15 C13        -3.2704   -2.0256    1.1405 C.ar      1 <0>        -0.0717
     16 C14        -3.3120   -0.6468    1.0459 C.ar      1 <0>        -0.1288
     17 S1         -4.4977    0.2861    1.9635 S.3       1 <0>         0.0185
     18 C15        -4.7245    1.7118    0.9468 C.ar      1 <0>        -0.1269
     19 C16        -3.6703    2.1310    0.1310 C.ar      1 <0>         0.1414
     20 C17        -3.8362    3.2490   -0.6722 C.ar      1 <0>        -0.1120
     21 C18        -5.0363    3.9369   -0.6603 C.ar      1 <0>        -0.0896
     22 C19        -6.0762    3.5178    0.1484 C.ar      1 <0>        -0.1106
     23 C20        -5.9221    2.4029    0.9547 C.ar      1 <0>        -0.0685
     24 H1          1.2763    6.6613   -1.3598 H         1 <0>         0.0747
     25 H2          0.4047    5.9136   -2.7198 H         1 <0>         0.0691
     26 H3         -0.1895    7.4339   -2.0100 H         1 <0>         0.0707
     27 H4         -1.3444    7.4423    0.1214 H         1 <0>         0.1298
     28 H5         -2.7276    6.1764    1.7135 H         1 <0>         0.1316
     29 H6         -2.7187    3.7170    1.6734 H         1 <0>         0.1254
     30 H7          0.0778    3.8002   -1.5778 H         1 <0>         0.1319
     31 H8         -0.7790   -0.1726   -1.1481 H         1 <0>         0.1437
     32 H9         -0.7096   -2.6249   -0.9734 H         1 <0>         0.1353
     33 H10        -2.2953   -3.8123    0.4818 H         1 <0>         0.1361
     34 H11        -3.9675   -2.5467    1.7799 H         1 <0>         0.1390
     35 H12        -3.0287    3.5825   -1.3072 H         1 <0>         0.1349
     36 H13        -5.1618    4.8072   -1.2874 H         1 <0>         0.1351
     37 H14        -7.0099    4.0605    0.1511 H         1 <0>         0.1367
     38 H15        -6.7337    2.0745    1.5870 H         1 <0>         0.1398
@<TRIPOS>BOND
     1    1    2 1
     2    1   24 1
     3    1   25 1
     4    1   26 1
     5    2    7 ar
     6    2    3 ar
     7    3    4 ar
     8    3   27 1
     9    4    5 ar
    10    4   28 1
    11    5    6 ar
    12    5   29 1
    13    6    7 ar
    14    6    8 1
    15    7   30 1
    16    8    9 2
    17    8   10 am
    18   10   19 1
    19   10   11 1
    20   11   16 ar
    21   11   12 ar
    22   12   13 ar
    23   12   31 1
    24   13   14 ar
    25   13   32 1
    26   14   15 ar
    27   14   33 1
    28   15   16 ar
    29   15   34 1
    30   16   17 1
    31   17   18 1
    32   18   23 ar
    33   18   19 ar
    34   19   20 ar
    35   20   21 ar
    36   20   35 1
    37   21   22 ar
    38   21   36 1
    39   22   23 ar
    40   22   37 1
    41   23   38 1
@<TRIPOS>MOLECULE
ZINC04785817
   35    38     0     0     0
SMALL
USER_CHARGES
(3-bromophenyl)-phenothiazin-10-yl-methanone
@<TRIPOS>ATOM
      1 C1          1.4303   -6.2267   -1.0853 C.ar      1 <0>        -0.0936
      2 C2          2.4149   -6.9758   -0.4679 C.ar      1 <0>        -0.1112
      3 C3          3.4085   -6.3476    0.2630 C.ar      1 <0>        -0.0710
      4 C4          3.4109   -4.9691    0.3730 C.ar      1 <0>        -0.1273
      5 C5          2.4182   -4.2075   -0.2488 C.ar      1 <0>         0.1422
      6 C6          1.4281   -4.8477   -0.9787 C.ar      1 <0>        -0.0973
      7 N1          2.4231   -2.8123   -0.1374 N.am      1 <0>        -0.5023
      8 C7          3.6125   -2.0747   -0.1492 C.ar      1 <0>         0.1366
      9 C8          3.6704   -0.8451   -0.7814 C.ar      1 <0>        -0.1202
     10 C9          4.8499   -0.1230   -0.7851 C.ar      1 <0>        -0.0875
     11 C10         5.9772   -0.6190   -0.1570 C.ar      1 <0>        -0.1073
     12 C11         5.9317   -1.8458    0.4830 C.ar      1 <0>        -0.0667
     13 C12         4.7545   -2.5714    0.4903 C.ar      1 <0>        -0.1250
     14 S1          4.6648   -4.1390    1.2983 S.3       1 <0>         0.0209
     15 C13         1.2492   -2.1604   -0.0210 C.2       1 <0>         0.5678
     16 O1          0.2078   -2.7867    0.0246 O.2       1 <0>        -0.4860
     17 C14         1.2276   -0.6846    0.0513 C.ar      1 <0>        -0.1263
     18 C15         0.4177    0.0483   -0.8185 C.ar      1 <0>        -0.0595
     19 C16         0.4016    1.4256   -0.7458 C.ar      1 <0>        -0.1126
     20 C17         1.1857    2.0818    0.1865 C.ar      1 <0>        -0.0655
     21 C18         1.9911    1.3618    1.0521 C.ar      1 <0>        -0.0930
     22 C19         2.0164   -0.0172    0.9897 C.ar      1 <0>        -0.0452
     23 Br1         3.0591    2.2688    2.3219 Br        1 <0>        -0.0337
     24 H1          0.6578   -6.7218   -1.6550 H         1 <0>         0.1358
     25 H2          2.4089   -8.0521   -0.5562 H         1 <0>         0.1367
     26 H3          4.1785   -6.9315    0.7452 H         1 <0>         0.1396
     27 H4          0.6556   -4.2697   -1.4640 H         1 <0>         0.1389
     28 H5          2.7943   -0.4509   -1.2747 H         1 <0>         0.1367
     29 H6          4.8907    0.8349   -1.2823 H         1 <0>         0.1352
     30 H7          6.8945   -0.0490   -0.1659 H         1 <0>         0.1375
     31 H8          6.8116   -2.2345    0.9740 H         1 <0>         0.1405
     32 H9         -0.1952   -0.4623   -1.5465 H         1 <0>         0.1397
     33 H10        -0.2212    1.9934   -1.4212 H         1 <0>         0.1445
     34 H11         1.1695    3.1604    0.2389 H         1 <0>         0.1417
     35 H12         2.6453   -0.5782    1.6651 H         1 <0>         0.1366
@<TRIPOS>BOND
     1    1    6 ar
     2    1    2 ar
     3    1   24 1
     4    2    3 ar
     5    2   25 1
     6    3    4 ar
     7    3   26 1
     8    4   14 1
     9    4    5 ar
    10    5    6 ar
    11    5    7 1
    12    6   27 1
    13    7    8 1
    14    7   15 am
    15    8   13 ar
    16    8    9 ar
    17    9   10 ar
    18    9   28 1
    19   10   11 ar
    20   10   29 1
    21   11   12 ar
    22   11   30 1
    23   12   13 ar
    24   12   31 1
    25   13   14 1
    26   15   16 2
    27   15   17 1
    28   17   22 ar
    29   17   18 ar
    30   18   19 ar
    31   18   32 1
    32   19   20 ar
    33   19   33 1
    34   20   21 ar
    35   20   34 1
    36   21   22 ar
    37   21   23 1
    38   22   35 1
@<TRIPOS>MOLECULE
ZINC05948475
   35    38     0     0     0
SMALL
USER_CHARGES
(4-bromophenyl)-phenothiazin-10-yl-methanone
@<TRIPOS>ATOM
      1 C1          0.1483    0.7636    0.7207 C.ar      1 <0>        -0.0933
      2 C2         -0.8909    1.0677   -0.1389 C.ar      1 <0>        -0.1112
      3 C3         -0.7351    2.0595   -1.0921 C.ar      1 <0>        -0.0708
      4 C4          0.4677    2.7351   -1.1876 C.ar      1 <0>        -0.1273
      5 C5          1.5232    2.4271   -0.3256 C.ar      1 <0>         0.1419
      6 C6          1.3533    1.4361    0.6292 C.ar      1 <0>        -0.0973
      7 N1          2.7406    3.1104   -0.4255 N.am      1 <0>        -0.5021
      8 C7          3.2767    3.4874   -1.6622 C.ar      1 <0>         0.1371
      9 C8          4.6448    3.4258   -1.8797 C.ar      1 <0>        -0.1187
     10 C9          5.1674    3.7990   -3.1047 C.ar      1 <0>        -0.0892
     11 C10         4.3344    4.2350   -4.1185 C.ar      1 <0>        -0.1088
     12 C11         2.9672    4.3011   -3.9127 C.ar      1 <0>        -0.0675
     13 C12         2.4395    3.9286   -2.6900 C.ar      1 <0>        -0.1246
     14 S1          0.6996    4.0010   -2.3973 S.3       1 <0>         0.0199
     15 C13         3.4158    3.4134    0.7008 C.2       1 <0>         0.5658
     16 O1          2.9477    3.1271    1.7862 O.2       1 <0>        -0.4858
     17 C14         4.7247    4.0934    0.6171 C.ar      1 <0>        -0.1158
     18 C15         4.8537    5.2786   -0.1098 C.ar      1 <0>        -0.0677
     19 C16         6.0771    5.9114   -0.1798 C.ar      1 <0>        -0.0897
     20 C17         7.1787    5.3676    0.4593 C.ar      1 <0>        -0.0681
     21 C18         7.0584    4.1897    1.1773 C.ar      1 <0>        -0.0913
     22 C19         5.8392    3.5504    1.2597 C.ar      1 <0>        -0.0683
     23 Br1         8.8542    6.2377    0.3515 Br        1 <0>        -0.0356
     24 H1          0.0198   -0.0075    1.4658 H         1 <0>         0.1360
     25 H2         -1.8267    0.5338   -0.0641 H         1 <0>         0.1369
     26 H3         -1.5476    2.3011   -1.7615 H         1 <0>         0.1397
     27 H4          2.1620    1.1892    1.3012 H         1 <0>         0.1391
     28 H5          5.3021    3.0861   -1.0930 H         1 <0>         0.1372
     29 H6          6.2334    3.7492   -3.2707 H         1 <0>         0.1357
     30 H7          4.7510    4.5247   -5.0719 H         1 <0>         0.1376
     31 H8          2.3154    4.6417   -4.7036 H         1 <0>         0.1405
     32 H9          3.9964    5.7011   -0.6127 H         1 <0>         0.1360
     33 H10         6.1771    6.8307   -0.7377 H         1 <0>         0.1430
     34 H11         7.9210    3.7709    1.6742 H         1 <0>         0.1446
     35 H12         5.7465    2.6320    1.8203 H         1 <0>         0.1423
@<TRIPOS>BOND
     1    1    6 ar
     2    1    2 ar
     3    1   24 1
     4    2    3 ar
     5    2   25 1
     6    3    4 ar
     7    3   26 1
     8    4   14 1
     9    4    5 ar
    10    5    6 ar
    11    5    7 1
    12    6   27 1
    13    7    8 1
    14    7   15 am
    15    8   13 ar
    16    8    9 ar
    17    9   10 ar
    18    9   28 1
    19   10   11 ar
    20   10   29 1
    21   11   12 ar
    22   11   30 1
    23   12   13 ar
    24   12   31 1
    25   13   14 1
    26   15   16 2
    27   15   17 1
    28   17   22 ar
    29   17   18 ar
    30   18   19 ar
    31   18   32 1
    32   19   20 ar
    33   19   33 1
    34   20   21 ar
    35   20   23 1
    36   21   22 ar
    37   21   34 1
    38   22   35 1
@<TRIPOS>MOLECULE
ZINC01020901
   39    42     0     0     0
SMALL
USER_CHARGES
(4-methoxyphenyl)-phenothiazin-10-yl-methanone
@<TRIPOS>ATOM
      1 C1          8.4352    7.2037   -0.3733 C.3       1 <0>         0.0234
      2 O1          8.3808    5.9922    0.3826 O.3       1 <0>        -0.3107
      3 C2          7.1784    5.3675    0.4596 C.ar      1 <0>         0.1566
      4 C3          7.0567    4.1846    1.1794 C.ar      1 <0>        -0.1540
      5 C4          5.8385    3.5479    1.2604 C.ar      1 <0>        -0.0333
      6 C5          4.7235    4.0923    0.6172 C.ar      1 <0>        -0.1740
      7 C6          4.8514    5.2788   -0.1102 C.ar      1 <0>        -0.0301
      8 C7          6.0721    5.9120   -0.1818 C.ar      1 <0>        -0.2082
      9 C8          3.4163    3.4132    0.7009 C.2       1 <0>         0.5711
     10 O2          2.9360    3.1502    1.7871 O.2       1 <0>        -0.4914
     11 N1          2.7544    3.0842   -0.4261 N.am      1 <0>        -0.5046
     12 C9          1.5358    2.4032   -0.3250 C.ar      1 <0>         0.1437
     13 C10         1.3544    1.4346    0.6502 C.ar      1 <0>        -0.0976
     14 C11         0.1480    0.7642    0.7428 C.ar      1 <0>        -0.0935
     15 C12        -0.8805    1.0480   -0.1361 C.ar      1 <0>        -0.1128
     16 C13        -0.7134    2.0184   -1.1095 C.ar      1 <0>        -0.0712
     17 C14         0.4906    2.6912   -1.2064 C.ar      1 <0>        -0.1287
     18 S1          0.7362    3.9284   -2.4415 S.3       1 <0>         0.0175
     19 C15         2.4794    3.8506   -2.7121 C.ar      1 <0>        -0.1261
     20 C16         3.3048    3.4334   -1.6647 C.ar      1 <0>         0.1413
     21 C17         4.6752    3.3679   -1.8648 C.ar      1 <0>        -0.1162
     22 C18         5.2120    3.7136   -3.0920 C.ar      1 <0>        -0.0908
     23 C19         4.3909    4.1258   -4.1249 C.ar      1 <0>        -0.1115
     24 C20         3.0210    4.1951   -3.9366 C.ar      1 <0>        -0.0689
     25 H1          7.7529    7.9342    0.0615 H         1 <0>         0.0592
     26 H2          9.4509    7.5987   -0.3539 H         1 <0>         0.1046
     27 H3          8.1432    7.0023   -1.4039 H         1 <0>         0.0597
     28 H4          7.9188    3.7645    1.6761 H         1 <0>         0.1422
     29 H5          5.7446    2.6292    1.8204 H         1 <0>         0.1392
     30 H6          3.9931    5.7006   -0.6120 H         1 <0>         0.1283
     31 H7          6.1707    6.8313   -0.7401 H         1 <0>         0.1375
     32 H8          2.1549    1.2034    1.3372 H         1 <0>         0.1393
     33 H9          0.0103    0.0106    1.5041 H         1 <0>         0.1354
     34 H10        -1.8171    0.5155   -0.0603 H         1 <0>         0.1362
     35 H11        -1.5178    2.2444   -1.7939 H         1 <0>         0.1390
     36 H12         5.3234    3.0467   -1.0629 H         1 <0>         0.1399
     37 H13         6.2799    3.6608   -3.2443 H         1 <0>         0.1339
     38 H14         4.8184    4.3937   -5.0798 H         1 <0>         0.1360
     39 H15         2.3784    4.5171   -4.7427 H         1 <0>         0.1394
@<TRIPOS>BOND
     1    1    2 1
     2    1   25 1
     3    1   26 1
     4    1   27 1
     5    2    3 1
     6    3    8 ar
     7    3    4 ar
     8    4    5 ar
     9    4   28 1
    10    5    6 ar
    11    5   29 1
    12    6    7 ar
    13    6    9 1
    14    7    8 ar
    15    7   30 1
    16    8   31 1
    17    9   10 2
    18    9   11 am
    19   11   20 1
    20   11   12 1
    21   12   17 ar
    22   12   13 ar
    23   13   14 ar
    24   13   32 1
    25   14   15 ar
    26   14   33 1
    27   15   16 ar
    28   15   34 1
    29   16   17 ar
    30   16   35 1
    31   17   18 1
    32   18   19 1
    33   19   24 ar
    34   19   20 ar
    35   20   21 ar
    36   21   22 ar
    37   21   36 1
    38   22   23 ar
    39   22   37 1
    40   23   24 ar
    41   23   38 1
    42   24   39 1
@<TRIPOS>MOLECULE
ZINC04725769
   37    40     0     0     0
SMALL
USER_CHARGES
(4-nitrophenyl)-phenothiazin-10-yl-methanone
@<TRIPOS>ATOM
      1 C1         -0.2483    2.7432   -1.4780 C.ar      1 <0>        -0.0872
      2 C2         -1.3533    3.3187   -0.8420 C.ar      1 <0>        -0.1178
      3 C3         -1.2072    4.0087    0.3257 C.ar      1 <0>        -0.0541
      4 C4          0.0663    4.1415    0.8720 C.ar      1 <0>        -0.1524
      5 C5          1.2441    3.5463    0.2126 C.ar      1 <0>         0.1231
      6 C6          1.0149    2.8459   -0.9831 C.ar      1 <0>        -0.1394
      7 N1          2.4883    3.6590    0.7170 N.am      1 <0>        -0.4712
      8 C7          2.9424    4.2712    1.8279 C.ar      1 <0>         0.1293
      9 C8          4.3094    4.2522    2.1502 C.ar      1 <0>        -0.1718
     10 C9          4.7498    4.8757    3.2766 C.ar      1 <0>        -0.0808
     11 C10         3.8878    5.5499    4.1478 C.ar      1 <0>        -0.1155
     12 C11         2.5479    5.6098    3.8987 C.ar      1 <0>        -0.0486
     13 C12         2.0486    4.9865    2.7584 C.ar      1 <0>        -0.1482
     14 S1          0.3741    4.9955    2.3401 S.3       1 <0>         0.0672
     15 C13         3.4440    3.0551   -0.0167 C.2       1 <0>         0.5495
     16 O1          3.2058    2.0044   -0.5777 O.2       1 <0>        -0.4354
     17 C14         4.7804    3.6708   -0.1387 C.ar      1 <0>        -0.0728
     18 C15         4.9151    5.0613   -0.1390 C.ar      1 <0>        -0.0775
     19 C16         6.1671    5.6294   -0.2485 C.ar      1 <0>        -0.0509
     20 C17         7.2873    4.8256   -0.3681 C.ar      1 <0>         0.0176
     21 C18         7.1607    3.4475   -0.3743 C.ar      1 <0>        -0.0461
     22 C19         5.9156    2.8655   -0.2603 C.ar      1 <0>        -0.0786
     23 N2          8.6271    5.4428   -0.4904 N.pl3     1 <0>        -0.0278
     24 O2          9.6952    4.6808   -0.6048 O.2       1 <0>        -0.1540
     25 O3          8.7511    6.7539   -0.4849 O.3       1 <0>        -0.1536
     26 H1         -0.4032    2.2008   -2.3990 H         1 <0>         0.1321
     27 H2         -2.3353    3.2116   -1.2786 H         1 <0>         0.1361
     28 H3         -2.0638    4.4481    0.8152 H         1 <0>         0.1444
     29 H4          1.8404    2.3897   -1.5093 H         1 <0>         0.1622
     30 H5          5.0101    3.7436    1.5047 H         1 <0>         0.1496
     31 H6          5.8048    4.8493    3.5064 H         1 <0>         0.1303
     32 H7          4.2882    6.0295    5.0287 H         1 <0>         0.1379
     33 H8          1.8861    6.1312    4.5744 H         1 <0>         0.1463
     34 H9          4.0414    5.6898   -0.0496 H         1 <0>         0.1539
     35 H10         6.2732    6.7042   -0.2444 H         1 <0>         0.1678
     36 H11         8.0392    2.8262   -0.4683 H         1 <0>         0.1703
     37 H12         5.8183    1.7899   -0.2645 H         1 <0>         0.1661
@<TRIPOS>BOND
     1    1    6 ar
     2    1    2 ar
     3    1   26 1
     4    2    3 ar
     5    2   27 1
     6    3    4 ar
     7    3   28 1
     8    4   14 1
     9    4    5 ar
    10    5    6 ar
    11    5    7 1
    12    6   29 1
    13    7    8 1
    14    7   15 am
    15    8   13 ar
    16    8    9 ar
    17    9   10 ar
    18    9   30 1
    19   10   11 ar
    20   10   31 1
    21   11   12 ar
    22   11   32 1
    23   12   13 ar
    24   12   33 1
    25   13   14 1
    26   15   16 2
    27   15   17 1
    28   17   22 ar
    29   17   18 ar
    30   18   19 ar
    31   18   34 1
    32   19   20 ar
    33   19   35 1
    34   20   21 ar
    35   20   23 1
    36   21   22 ar
    37   21   36 1
    38   22   37 1
    39   23   24 2
    40   23   25 1
@<TRIPOS>MOLECULE
ZINC00469770
   41    44     0     0     0
SMALL
USER_CHARGES
1-phenothiazin-10-yl-3-phenyl-propan-1-one
@<TRIPOS>ATOM
      1 C1         -7.2490    9.3792    1.3311 C.ar      1 <0>        -0.1215
      2 C2         -7.0718    8.4513    2.3402 C.ar      1 <0>        -0.1170
      3 C3         -5.9099    7.7045    2.3963 C.ar      1 <0>        -0.1148
      4 C4         -4.9250    7.8860    1.4435 C.ar      1 <0>        -0.0853
      5 C5         -5.0998    8.8180    0.4376 C.ar      1 <0>        -0.1157
      6 C6         -6.2641    9.5607    0.3782 C.ar      1 <0>        -0.1175
      7 C7         -3.6581    7.0722    1.5049 C.3       1 <0>        -0.0697
      8 C8         -3.8404    5.7833    0.7009 C.3       1 <0>        -0.1362
      9 C9         -2.5736    4.9695    0.7623 C.2       1 <0>         0.5180
     10 O1         -1.5285    5.4970    1.0810 O.2       1 <0>        -0.4971
     11 N1         -2.6014    3.6556    0.4633 N.am      1 <0>        -0.5097
     12 C10        -1.3996    2.9367    0.4412 C.ar      1 <0>         0.1443
     13 C11        -0.2413    3.5255   -0.0418 C.ar      1 <0>        -0.0983
     14 C12         0.9416    2.8087   -0.0630 C.ar      1 <0>        -0.0934
     15 C13         0.9791    1.5050    0.3950 C.ar      1 <0>        -0.1134
     16 C14        -0.1714    0.9070    0.8803 C.ar      1 <0>        -0.0710
     17 C15        -1.3574    1.6175    0.8990 C.ar      1 <0>        -0.1300
     18 S1         -2.8388    0.8849    1.5199 S.3       1 <0>         0.0186
     19 C16        -4.0893    1.7440    0.6166 C.ar      1 <0>        -0.1266
     20 C17        -3.8315    3.0470    0.1836 C.ar      1 <0>         0.1435
     21 C18        -4.8051    3.7317   -0.5269 C.ar      1 <0>        -0.1395
     22 C19        -6.0174    3.1242   -0.8001 C.ar      1 <0>        -0.0875
     23 C20        -6.2678    1.8349   -0.3692 C.ar      1 <0>        -0.1133
     24 C21        -5.3028    1.1413    0.3411 C.ar      1 <0>        -0.0650
     25 H1         -8.1571    9.9622    1.2868 H         1 <0>         0.1219
     26 H2         -7.8413    8.3095    3.0847 H         1 <0>         0.1226
     27 H3         -5.7715    6.9795    3.1848 H         1 <0>         0.1212
     28 H4         -4.3284    8.9629   -0.3043 H         1 <0>         0.1221
     29 H5         -6.4027   10.2855   -0.4104 H         1 <0>         0.1227
     30 H6         -3.4352    6.8246    2.5427 H         1 <0>         0.0791
     31 H7         -2.8347    7.6494    1.0842 H         1 <0>         0.0866
     32 H8         -4.0633    6.0308   -0.3369 H         1 <0>         0.1106
     33 H9         -4.6638    5.2061    1.1217 H         1 <0>         0.1036
     34 H10        -0.2624    4.5437   -0.4013 H         1 <0>         0.1380
     35 H11         1.8420    3.2707   -0.4402 H         1 <0>         0.1351
     36 H12         1.9067    0.9523    0.3739 H         1 <0>         0.1361
     37 H13        -0.1435   -0.1115    1.2386 H         1 <0>         0.1388
     38 H14        -4.6173    4.7395   -0.8667 H         1 <0>         0.1457
     39 H15        -6.7733    3.6608   -1.3543 H         1 <0>         0.1371
     40 H16        -7.2172    1.3683   -0.5865 H         1 <0>         0.1372
     41 H17        -5.4969    0.1337    0.6782 H         1 <0>         0.1400
@<TRIPOS>BOND
     1    1    6 ar
     2    1    2 ar
     3    1   25 1
     4    2    3 ar
     5    2   26 1
     6    3    4 ar
     7    3   27 1
     8    4    5 ar
     9    4    7 1
    10    5    6 ar
    11    5   28 1
    12    6   29 1
    13    7    8 1
    14    7   30 1
    15    7   31 1
    16    8    9 1
    17    8   32 1
    18    8   33 1
    19    9   10 2
    20    9   11 am
    21   11   20 1
    22   11   12 1
    23   12   17 ar
    24   12   13 ar
    25   13   14 ar
    26   13   34 1
    27   14   15 ar
    28   14   35 1
    29   15   16 ar
    30   15   36 1
    31   16   17 ar
    32   16   37 1
    33   17   18 1
    34   18   19 1
    35   19   24 ar
    36   19   20 ar
    37   20   21 ar
    38   21   22 ar
    39   21   38 1
    40   22   23 ar
    41   22   39 1
    42   23   24 ar
    43   23   40 1
    44   24   41 1
@<TRIPOS>MOLECULE
ZINC02262109
   44    48     0     0     0
SMALL
USER_CHARGES
2-(1-naphthyl)-1-phenothiazin-10-yl-ethanone
@<TRIPOS>ATOM
      1 C1          1.3678    6.9953    0.6333 C.ar      1 <0>        -0.1173
      2 C2         -0.0151    7.1590    0.5738 C.ar      1 <0>        -0.1086
      3 C3         -0.8407    6.0903    0.4058 C.ar      1 <0>        -0.1129
      4 C4         -0.2941    4.8006    0.2911 C.ar      1 <0>        -0.0355
      5 C5          1.1123    4.6340    0.3517 C.ar      1 <0>        -0.0518
      6 C6          1.9327    5.7618    0.5256 C.ar      1 <0>        -0.1024
      7 C7          1.6588    3.3448    0.2362 C.ar      1 <0>        -0.0991
      8 C8          0.8329    2.2758    0.0681 C.ar      1 <0>        -0.1154
      9 C9         -0.5491    2.4402    0.0028 C.ar      1 <0>        -0.0922
     10 C10        -1.1144    3.6732    0.1172 C.ar      1 <0>        -0.0686
     11 C11        -2.6118    3.8293    0.0497 C.3       1 <0>        -0.1038
     12 C12        -3.0190    4.1622   -1.3625 C.2       1 <0>         0.5199
     13 O1         -2.2604    3.9361   -2.2819 O.2       1 <0>        -0.4847
     14 N1         -4.2259    4.7113   -1.6041 N.am      1 <0>        -0.5100
     15 C13        -5.0536    5.0394   -0.5229 C.ar      1 <0>         0.1432
     16 C14        -5.0986    4.2301    0.5979 C.ar      1 <0>        -0.1433
     17 C15        -5.9171    4.5647    1.6616 C.ar      1 <0>        -0.0867
     18 C16        -6.6913    5.7090    1.6170 C.ar      1 <0>        -0.1133
     19 C17        -6.6512    6.5307    0.5033 C.ar      1 <0>        -0.0641
     20 C18        -5.8343    6.2007   -0.5625 C.ar      1 <0>        -0.1267
     21 S1         -5.7609    7.2291   -1.9961 S.3       1 <0>         0.0197
     22 C19        -5.3498    6.0752   -3.2678 C.ar      1 <0>        -0.1294
     23 C20        -4.6203    4.9327   -2.9297 C.ar      1 <0>         0.1454
     24 C21        -4.2915    4.0192   -3.9192 C.ar      1 <0>        -0.0981
     25 C22        -4.6857    4.2437   -5.2261 C.ar      1 <0>        -0.0933
     26 C23        -5.4077    5.3756   -5.5554 C.ar      1 <0>        -0.1132
     27 C24        -5.7412    6.2951   -4.5756 C.ar      1 <0>        -0.0711
     28 H1          2.0006    7.8603    0.7665 H         1 <0>         0.1247
     29 H2         -0.4377    8.1489    0.6620 H         1 <0>         0.1235
     30 H3         -1.9103    6.2325    0.3609 H         1 <0>         0.1187
     31 H4          3.0059    5.6503    0.5731 H         1 <0>         0.1287
     32 H5          2.7285    3.2027    0.2802 H         1 <0>         0.1289
     33 H6          1.2556    1.2859   -0.0204 H         1 <0>         0.1263
     34 H7         -1.1816    1.5758   -0.1359 H         1 <0>         0.1228
     35 H8         -3.0883    2.8977    0.3552 H         1 <0>         0.1196
     36 H9         -2.9238    4.6328    0.7169 H         1 <0>         0.1124
     37 H10        -4.4965    3.3345    0.6406 H         1 <0>         0.1447
     38 H11        -5.9518    3.9274    2.5328 H         1 <0>         0.1380
     39 H12        -7.3283    5.9622    2.4515 H         1 <0>         0.1376
     40 H13        -7.2556    7.4250    0.4670 H         1 <0>         0.1402
     41 H14        -3.7274    3.1325   -3.6699 H         1 <0>         0.1376
     42 H15        -4.4278    3.5297   -5.9943 H         1 <0>         0.1349
     43 H16        -5.7116    5.5430   -6.5782 H         1 <0>         0.1361
     44 H17        -6.3053    7.1798   -4.8316 H         1 <0>         0.1388
@<TRIPOS>BOND
     1    1    6 ar
     2    1    2 ar
     3    1   28 1
     4    2    3 ar
     5    2   29 1
     6    3    4 ar
     7    3   30 1
     8    4   10 ar
     9    4    5 ar
    10    5    6 ar
    11    5    7 ar
    12    6   31 1
    13    7    8 ar
    14    7   32 1
    15    8    9 ar
    16    8   33 1
    17    9   10 ar
    18    9   34 1
    19   10   11 1
    20   11   12 1
    21   11   35 1
    22   11   36 1
    23   12   13 2
    24   12   14 am
    25   14   23 1
    26   14   15 1
    27   15   20 ar
    28   15   16 ar
    29   16   17 ar
    30   16   37 1
    31   17   18 ar
    32   17   38 1
    33   18   19 ar
    34   18   39 1
    35   19   20 ar
    36   19   40 1
    37   20   21 1
    38   21   22 1
    39   22   27 ar
    40   22   23 ar
    41   23   24 ar
    42   24   25 ar
    43   24   41 1
    44   25   26 ar
    45   25   42 1
    46   26   27 ar
    47   26   43 1
    48   27   44 1
@<TRIPOS>MOLECULE
ZINC03203900
   39    42     0     0     0
SMALL
USER_CHARGES
1-phenothiazin-10-yl-3-phenyl-prop-2-en-1-one
@<TRIPOS>ATOM
      1 C1         -5.0541    5.4121    0.3717 C.ar      1 <0>        -0.1029
      2 C2         -3.8907    6.1354    0.1748 C.ar      1 <0>        -0.1225
      3 C3         -2.6800    5.4845    0.0655 C.ar      1 <0>        -0.0897
      4 C4         -2.6297    4.0898    0.1546 C.ar      1 <0>        -0.0846
      5 C5         -3.8102    3.3658    0.3488 C.ar      1 <0>        -0.0980
      6 C6         -5.0125    4.0315    0.4609 C.ar      1 <0>        -0.1217
      7 C7         -1.3415    3.3872    0.0385 C.2       1 <0>         0.0021
      8 C8         -1.2969    2.0422    0.1249 C.2       1 <0>        -0.2439
      9 C9         -0.0162    1.3436    0.0094 C.2       1 <0>         0.5554
     10 O1          1.0214    1.9787   -0.0411 O.2       1 <0>        -0.5058
     11 N1          0.0152   -0.0031   -0.0353 N.am      1 <0>        -0.5047
     12 C10         1.2493   -0.6506   -0.1600 C.ar      1 <0>         0.1440
     13 C11         2.2494   -0.1100   -0.9488 C.ar      1 <0>        -0.0970
     14 C12         3.4667   -0.7567   -1.0636 C.ar      1 <0>        -0.0939
     15 C13         3.6966   -1.9422   -0.3906 C.ar      1 <0>        -0.1133
     16 C14         2.7061   -2.4911    0.4062 C.ar      1 <0>        -0.0714
     17 C15         1.4876   -1.8484    0.5246 C.ar      1 <0>        -0.1301
     18 S1          0.2049   -2.5231    1.5334 S.3       1 <0>         0.0200
     19 C16        -1.2537   -1.9196    0.7421 C.ar      1 <0>        -0.1263
     20 C17        -1.1876   -0.7140    0.0384 C.ar      1 <0>         0.1476
     21 C18        -2.3262   -0.2297   -0.5876 C.ar      1 <0>        -0.1369
     22 C19        -3.5115   -0.9388   -0.5115 C.ar      1 <0>        -0.0907
     23 C20        -3.5716   -2.1305    0.1865 C.ar      1 <0>        -0.1130
     24 C21        -2.4412   -2.6241    0.8152 C.ar      1 <0>        -0.0643
     25 H1         -5.9993    5.9276    0.4565 H         1 <0>         0.1265
     26 H2         -3.9312    7.2125    0.1062 H         1 <0>         0.1284
     27 H3         -1.7730    6.0503   -0.0881 H         1 <0>         0.1296
     28 H4         -3.7798    2.2882    0.4145 H         1 <0>         0.1264
     29 H5         -5.9246    3.4740    0.6146 H         1 <0>         0.1280
     30 H6         -0.4320    3.9488   -0.1159 H         1 <0>         0.1382
     31 H7         -2.2064    1.4805    0.2793 H         1 <0>         0.1527
     32 H8          2.0776    0.8156   -1.4781 H         1 <0>         0.1403
     33 H9          4.2428   -0.3328   -1.6835 H         1 <0>         0.1351
     34 H10         4.6497   -2.4409   -0.4867 H         1 <0>         0.1360
     35 H11         2.8844   -3.4172    0.9324 H         1 <0>         0.1389
     36 H12        -2.2876    0.7010   -1.1341 H         1 <0>         0.1454
     37 H13        -4.3962   -0.5585   -1.0005 H         1 <0>         0.1378
     38 H14        -4.5014   -2.6773    0.2412 H         1 <0>         0.1378
     39 H15        -2.4867   -3.5552    1.3605 H         1 <0>         0.1406
@<TRIPOS>BOND
     1    1    6 ar
     2    1    2 ar
     3    1   25 1
     4    2    3 ar
     5    2   26 1
     6    3    4 ar
     7    3   27 1
     8    4    5 ar
     9    4    7 1
    10    5    6 ar
    11    5   28 1
    12    6   29 1
    13    7    8 2
    14    7   30 1
    15    8    9 1
    16    8   31 1
    17    9   10 2
    18    9   11 am
    19   11   20 1
    20   11   12 1
    21   12   17 ar
    22   12   13 ar
    23   13   14 ar
    24   13   32 1
    25   14   15 ar
    26   14   33 1
    27   15   16 ar
    28   15   34 1
    29   16   17 ar
    30   16   35 1
    31   17   18 1
    32   18   19 1
    33   19   24 ar
    34   19   20 ar
    35   20   21 ar
    36   21   22 ar
    37   21   36 1
    38   22   23 ar
    39   22   37 1
    40   23   24 ar
    41   23   38 1
    42   24   39 1
@<TRIPOS>MOLECULE
ZINC53122794
   44    46     0     0     0
SMALL
USER_CHARGES

@<TRIPOS>ATOM
      1 C1         -0.1716    1.6332    0.3091 C.3       1 <0>        -0.1309
      2 C2         -0.0732    0.1126    0.1715 C.3       1 <0>        -0.0254
      3 C3          0.7234   -0.3101   -1.0825 C.3       1 <0>        -0.1102
      4 C4          2.1222   -0.6463   -0.5074 C.3       1 <0>         0.0404
      5 N1          1.8086   -1.2944    0.7912 N.3       1 <0>        -0.5327
      6 C5          0.6707   -0.5386    1.3592 C.3       1 <0>         0.2996
      7 H1          1.0135    0.2073    2.0763 H         1 <0>         0.0779
      8 N2         -0.2976   -1.4679    1.9476 N.pl3     1 <0>        -0.6087
      9 C6         -1.4898   -1.4492    1.2186 C.ar      1 <0>         0.2144
     10 C7         -1.4310   -0.5500    0.1655 C.ar      1 <0>        -0.1467
     11 C8         -2.5137   -0.3859   -0.6771 C.ar      1 <0>        -0.0480
     12 C9         -3.6719   -1.1211   -0.4739 C.ar      1 <0>         0.0454
     13 C10        -3.7390   -2.0214    0.5788 C.ar      1 <0>        -0.0677
     14 C11        -2.6590   -2.1855    1.4195 C.ar      1 <0>        -0.1653
     15 O1         -4.7377   -0.9594   -1.3033 O.3       1 <0>        -0.2977
     16 C12        -5.8339   -0.3504   -0.8127 C.2       1 <0>         0.6398
     17 O2         -5.8134    0.1313    0.3028 O.2       1 <0>        -0.5547
     18 N3         -6.9538   -0.2751   -1.5587 N.am      1 <0>        -0.6026
     19 C13        -8.1464    0.3874   -1.0249 C.3       1 <0>         0.0998
     20 C14        -6.9785   -0.8559   -2.9035 C.3       1 <0>         0.0809
     21 C15        -0.0510   -2.2977    3.1294 C.3       1 <0>         0.1098
     22 C16         2.9682   -1.2562    1.6923 C.3       1 <0>         0.0154
     23 H2          0.8306    2.0596    0.3535 H         1 <0>         0.0609
     24 H3         -0.7027    2.0422   -0.5504 H         1 <0>         0.0683
     25 H4         -0.7127    1.8811    1.2222 H         1 <0>         0.0626
     26 H5          0.2754   -1.1892   -1.5458 H         1 <0>         0.0821
     27 H6          0.7868    0.5126   -1.7947 H         1 <0>         0.0811
     28 H7          2.6523   -1.3365   -1.1637 H         1 <0>         0.0880
     29 H8          2.7034    0.2628   -0.3532 H         1 <0>         0.0509
     30 H9         -2.4580    0.3166   -1.4955 H         1 <0>         0.1274
     31 H10        -4.6397   -2.5949    0.7405 H         1 <0>         0.1268
     32 H11        -2.7174   -2.8877    2.2379 H         1 <0>         0.1251
     33 H12        -8.1209    1.4458   -1.2845 H         1 <0>         0.0598
     34 H13        -9.0384   -0.0702   -1.4526 H         1 <0>         0.0788
     35 H14        -8.1671    0.2798    0.0595 H         1 <0>         0.0808
     36 H15        -7.3059   -1.8939   -2.8450 H         1 <0>         0.0600
     37 H16        -7.6693   -0.2918   -3.5302 H         1 <0>         0.0760
     38 H17        -5.9788   -0.8140   -3.3358 H         1 <0>         0.0792
     39 H18        -0.3459   -1.7511    4.0252 H         1 <0>         0.0488
     40 H19        -0.6332   -3.2163    3.0563 H         1 <0>         0.0676
     41 H20         1.0095   -2.5432    3.1862 H         1 <0>         0.0700
     42 H21         3.2487   -0.2197    1.8797 H         1 <0>         0.0312
     43 H22         2.7118   -1.7394    2.6351 H         1 <0>         0.0682
     44 H23         3.8045   -1.7811    1.2306 H         1 <0>         0.0735
@<TRIPOS>BOND
     1    1    2 1
     2    1   23 1
     3    1   24 1
     4    1   25 1
     5    2    6 1
     6    2   10 1
     7    2    3 1
     8    3    4 1
     9    3   26 1
    10    3   27 1
    11    4    5 1
    12    4   28 1
    13    4   29 1
    14    5    6 1
    15    5   22 1
    16    6    7 1
    17    6    8 1
    18    8    9 1
    19    8   21 1
    20    9   14 ar
    21    9   10 ar
    22   10   11 ar
    23   11   12 ar
    24   11   30 1
    25   12   13 ar
    26   12   15 1
    27   13   14 ar
    28   13   31 1
    29   14   32 1
    30   15   16 1
    31   16   17 2
    32   16   18 am
    33   18   19 1
    34   18   20 1
    35   19   33 1
    36   19   34 1
    37   19   35 1
    38   20   36 1
    39   20   37 1
    40   20   38 1
    41   21   39 1
    42   21   40 1
    43   21   41 1
    44   22   42 1
    45   22   43 1
    46   22   44 1
@<TRIPOS>MOLECULE
ZINC00120273
   30    32     0     0     0
SMALL
USER_CHARGES

@<TRIPOS>ATOM
      1 C1         -0.0163    1.3802    0.0111 C.ar      1 <0>        -0.0990
      2 C2          0.2374    0.3974    0.9516 C.ar      1 <0>        -0.1230
      3 C3          1.4405   -0.2770    0.9418 C.ar      1 <0>        -0.0655
      4 C4          2.4040    0.0343   -0.0206 C.ar      1 <0>        -0.0531
      5 C5          2.1410    1.0276   -0.9670 C.ar      1 <0>        -0.0849
      6 C6          0.9335    1.6938   -0.9452 C.ar      1 <0>        -0.1245
      7 C7          3.6939   -0.6826   -0.0372 C.2       1 <0>         0.1351
      8 C8          3.6900   -2.0410    0.0540 C.2       1 <0>        -0.0465
      9 C9          4.9235   -2.7456    0.0389 C.2       1 <0>         0.4008
     10 O1          4.9595   -3.9630    0.1183 O.2       1 <0>        -0.4497
     11 C10         6.1558   -1.9502   -0.0767 C.ar      1 <0>        -0.2692
     12 C11         7.4165   -2.5618   -0.0999 C.ar      1 <0>         0.2242
     13 C12         8.5506   -1.7796   -0.2100 C.ar      1 <0>        -0.2087
     14 C13         8.4394   -0.3957   -0.2971 C.ar      1 <0>         0.1994
     15 C14         7.1961    0.2162   -0.2748 C.ar      1 <0>        -0.1861
     16 C15         6.0463   -0.5513   -0.1648 C.ar      1 <0>         0.1875
     17 O2          4.8285    0.0294   -0.1473 O.3       1 <0>        -0.1979
     18 O3          9.5600    0.3630   -0.4045 O.3       1 <0>        -0.4868
     19 O4          7.5229   -3.9121   -0.0144 O.3       1 <0>        -0.4727
     20 O5          2.5145   -2.7180    0.1592 O.3       1 <0>        -0.4489
     21 H1         -0.9619    1.9019    0.0207 H         1 <0>         0.1278
     22 H2         -0.5083    0.1581    1.6953 H         1 <0>         0.1307
     23 H3          1.6374   -1.0436    1.6767 H         1 <0>         0.1313
     24 H4          2.8815    1.2735   -1.7137 H         1 <0>         0.1284
     25 H5          0.7287    2.4620   -1.6762 H         1 <0>         0.1298
     26 H6          9.5255   -2.2439   -0.2282 H         1 <0>         0.1512
     27 H7          7.1227    1.2915   -0.3431 H         1 <0>         0.1553
     28 H8          9.8402    0.5239   -1.3159 H         1 <0>         0.4048
     29 H9          7.5088   -4.3627   -0.8698 H         1 <0>         0.4035
     30 H10         2.6173   -3.6777    0.2183 H         1 <0>         0.4067
@<TRIPOS>BOND
     1    1    6 ar
     2    1    2 ar
     3    1   21 1
     4    2    3 ar
     5    2   22 1
     6    3    4 ar
     7    3   23 1
     8    4    5 ar
     9    4    7 1
    10    5    6 ar
    11    5   24 1
    12    6   25 1
    13    7   17 1
    14    7    8 2
    15    8    9 1
    16    8   20 1
    17    9   10 2
    18    9   11 1
    19   11   16 ar
    20   11   12 ar
    21   12   13 ar
    22   12   19 1
    23   13   14 ar
    24   13   26 1
    25   14   15 ar
    26   14   18 1
    27   15   16 ar
    28   15   27 1
    29   16   17 1
    30   18   28 1
    31   19   29 1
    32   20   30 1
@<TRIPOS>MOLECULE
ZINC01893945
   79    84     0     0     0
SMALL
USER_CHARGES

@<TRIPOS>ATOM
      1 C1         -4.3674  -12.0500   -0.6935 C.ar      1 <0>        -0.1084
      2 C2         -3.2283  -12.4382    0.0076 C.ar      1 <0>        -0.0299
      3 C3         -2.0127  -12.4917   -0.6026 C.ar      1 <0>        -0.1478
      4 C4         -1.8984  -12.1507   -1.9615 C.ar      1 <0>         0.1538
      5 C5         -3.0585  -11.7581   -2.6709 C.ar      1 <0>        -0.1057
      6 C6         -4.2945  -11.7134   -2.0119 C.ar      1 <0>        -0.0611
      7 C7         -2.9337  -11.4204   -4.0369 C.ar      1 <0>         0.3440
      8 C8         -1.6732  -11.4852   -4.6233 C.ar      1 <0>        -0.1441
      9 C9         -0.5831  -11.8727   -3.8640 C.ar      1 <0>         0.2496
     10 N1         -0.7214  -12.1902   -2.5879 N.ar      1 <0>        -0.4773
     11 C10         0.8097  -11.9455   -4.4399 C.3       1 <0>        -0.1140
     12 C11         0.7589  -11.9899   -5.9651 C.3       1 <0>        -0.1221
     13 C12        -0.1140  -10.8287   -6.4553 C.3       1 <0>        -0.1317
     14 C13        -1.5646  -11.1271   -6.0818 C.3       1 <0>        -0.0717
     15 N2         -4.0410  -11.0339   -4.7762 N.pl3     1 <0>        -0.7950
     16 C14        -4.4753   -9.6347   -4.7678 C.3       1 <0>         0.1342
     17 C15        -5.4341   -9.4053   -3.5978 C.3       1 <0>        -0.1553
     18 C16        -5.8877   -7.9441   -3.5892 C.3       1 <0>        -0.1209
     19 C17        -6.8465   -7.7147   -2.4192 C.3       1 <0>        -0.1174
     20 C18        -7.3001   -6.2534   -2.4105 C.3       1 <0>        -0.1208
     21 C19        -8.2589   -6.0240   -1.2405 C.3       1 <0>        -0.1454
     22 C20        -8.7124   -4.5628   -1.2318 C.3       1 <0>         0.1352
     23 N3         -9.6305   -4.3431   -0.1115 N.pl3     1 <0>        -0.7952
     24 C21       -10.9513   -3.9988   -0.3549 C.ar      1 <0>         0.3431
     25 C22       -11.9243   -4.9933   -0.5993 C.ar      1 <0>        -0.1056
     26 C23       -11.5974   -6.3561   -0.6049 C.ar      1 <0>        -0.0599
     27 C24       -12.5693   -7.2807   -0.8438 C.ar      1 <0>        -0.1060
     28 C25       -13.8839   -6.8879   -1.0830 C.ar      1 <0>        -0.0301
     29 C26       -14.2345   -5.5726   -1.0849 C.ar      1 <0>        -0.1466
     30 C27       -13.2589   -4.5899   -0.8428 C.ar      1 <0>         0.1534
     31 N4        -13.5687   -3.2925   -0.8408 N.ar      1 <0>        -0.4769
     32 C28       -12.6724   -2.3467   -0.6160 C.ar      1 <0>         0.2497
     33 C29       -11.3506   -2.6657   -0.3584 C.ar      1 <0>        -0.1441
     34 C30       -10.3007   -1.6241   -0.0753 C.3       1 <0>        -0.0711
     35 C31       -10.7756   -0.2454   -0.5294 C.3       1 <0>        -0.1323
     36 C32       -12.1684    0.0035    0.0612 C.3       1 <0>        -0.1214
     37 C33       -13.1598   -0.9191   -0.6521 C.3       1 <0>        -0.1143
     38 H1         -5.3209  -12.0198   -0.1872 H         1 <0>         0.1503
     39 H2         -3.3108  -12.7004    1.0520 H         1 <0>         0.1557
     40 H3         -1.1392  -12.7948   -0.0446 H         1 <0>         0.1568
     41 H4         -5.1842  -11.4141   -2.5460 H         1 <0>         0.1614
     42 H5          1.3753  -11.0687   -4.1245 H         1 <0>         0.1235
     43 H6          1.3047  -12.8437   -4.0705 H         1 <0>         0.1133
     44 H7          1.7663  -11.8866   -6.3684 H         1 <0>         0.0985
     45 H8          0.3262  -12.9361   -6.2899 H         1 <0>         0.0815
     46 H9          0.2052   -9.9023   -5.9777 H         1 <0>         0.0750
     47 H10        -0.0254  -10.7341   -7.5375 H         1 <0>         0.0922
     48 H11        -1.9268  -11.9601   -6.6843 H         1 <0>         0.0966
     49 H12        -2.1756  -10.2470   -6.2822 H         1 <0>         0.0969
     50 H13        -4.5282  -11.6898   -5.2989 H         1 <0>         0.4197
     51 H14        -3.6067   -8.9853   -4.6585 H         1 <0>         0.0703
     52 H15        -4.9839   -9.4066   -5.7045 H         1 <0>         0.0922
     53 H16        -6.3027  -10.0547   -3.7072 H         1 <0>         0.0723
     54 H17        -4.9255   -9.6334   -2.6612 H         1 <0>         0.0671
     55 H18        -5.0191   -7.2947   -3.4798 H         1 <0>         0.0652
     56 H19        -6.3963   -7.7159   -4.5258 H         1 <0>         0.0685
     57 H20        -7.7151   -8.3640   -2.5285 H         1 <0>         0.0628
     58 H21        -6.3379   -7.9428   -1.4825 H         1 <0>         0.0620
     59 H22        -6.4315   -5.6041   -2.3011 H         1 <0>         0.0681
     60 H23        -7.8087   -6.0253   -3.3471 H         1 <0>         0.0655
     61 H24        -9.1275   -6.6734   -1.3498 H         1 <0>         0.0663
     62 H25        -7.7503   -6.2522   -0.3038 H         1 <0>         0.0718
     63 H26        -7.8439   -3.9134   -1.1224 H         1 <0>         0.0785
     64 H27        -9.2210   -4.3347   -2.1685 H         1 <0>         0.0735
     65 H28        -9.3144   -4.4385    0.8006 H         1 <0>         0.4186
     66 H29       -10.5810   -6.6715   -0.4211 H         1 <0>         0.1572
     67 H30       -12.3171   -8.3309   -0.8481 H         1 <0>         0.1508
     68 H31       -14.6372   -7.6388   -1.2703 H         1 <0>         0.1563
     69 H32       -15.2585   -5.2850   -1.2720 H         1 <0>         0.1571
     70 H33       -10.0980   -1.5998    0.9954 H         1 <0>         0.0961
     71 H34        -9.3854   -1.8824   -0.6080 H         1 <0>         0.0967
     72 H35       -10.0836    0.5174   -0.1725 H         1 <0>         0.0917
     73 H36       -10.8274   -0.2147   -1.6178 H         1 <0>         0.0754
     74 H37       -12.1574   -0.2131    1.1294 H         1 <0>         0.0821
     75 H38       -12.4554    1.0423   -0.1022 H         1 <0>         0.0982
     76 H39       -13.2782   -0.6061   -1.6895 H         1 <0>         0.1244
     77 H40       -14.1230   -0.8554   -0.1460 H         1 <0>         0.1127
     78 H41         0.0637  -12.4627   -2.0878 H         1 <0>         0.4430
     79 H42       -14.4876   -3.0326   -1.0112 H         1 <0>         0.4432
@<TRIPOS>BOND
     1    1    6 ar
     2    1    2 ar
     3    1   38 1
     4    2    3 ar
     5    2   39 1
     6    3    4 ar
     7    3   40 1
     8    4   10 ar
     9    4    5 ar
    10    5    6 ar
    11    5    7 ar
    12    6   41 1
    13    7    8 ar
    14    7   15 1
    15    8   14 1
    16    8    9 ar
    17    9   10 ar
    18    9   11 1
    19   10   78 1
    20   11   12 1
    21   11   42 1
    22   11   43 1
    23   12   13 1
    24   12   44 1
    25   12   45 1
    26   13   14 1
    27   13   46 1
    28   13   47 1
    29   14   48 1
    30   14   49 1
    31   15   16 1
    32   15   50 1
    33   16   17 1
    34   16   51 1
    35   16   52 1
    36   17   18 1
    37   17   53 1
    38   17   54 1
    39   18   19 1
    40   18   55 1
    41   18   56 1
    42   19   20 1
    43   19   57 1
    44   19   58 1
    45   20   21 1
    46   20   59 1
    47   20   60 1
    48   21   22 1
    49   21   61 1
    50   21   62 1
    51   22   23 1
    52   22   63 1
    53   22   64 1
    54   23   24 1
    55   23   65 1
    56   24   33 ar
    57   24   25 ar
    58   25   30 ar
    59   25   26 ar
    60   26   27 ar
    61   26   66 1
    62   27   28 ar
    63   27   67 1
    64   28   29 ar
    65   28   68 1
    66   29   30 ar
    67   29   69 1
    68   30   31 ar
    69   31   32 ar
    70   31   79 1
    71   32   37 1
    72   32   33 ar
    73   33   34 1
    74   34   35 1
    75   34   70 1
    76   34   71 1
    77   35   36 1
    78   35   72 1
    79   35   73 1
    80   36   37 1
    81   36   74 1
    82   36   75 1
    83   37   76 1
    84   37   77 1
@<TRIPOS>MOLECULE
ZINC00537848
   54    58     0     0     0
SMALL
USER_CHARGES
2-(1-benzyl-4-piperidyl)ethylBLAHone
@<TRIPOS>ATOM
      1 C1         -0.7232    6.5772   -5.2741 C.ar      1 <0>        -0.0839
      2 C2         -1.5882    6.5041   -4.1983 C.ar      1 <0>        -0.1136
      3 C3         -1.1109    6.1492   -2.9505 C.ar      1 <0>        -0.0970
      4 C4          0.2315    5.8680   -2.7783 C.ar      1 <0>        -0.1630
      5 C5          1.0976    5.9467   -3.8528 C.ar      1 <0>        -0.0945
      6 C6          0.6193    6.2960   -5.1019 C.ar      1 <0>        -0.1129
      7 C7          0.7519    5.4815   -1.4178 C.3       1 <0>         0.0486
      8 C8          1.3899    3.5863   -0.0535 C.3       1 <0>        -0.0016
      9 C9          1.4173    2.0571   -0.0004 C.3       1 <0>        -0.1437
     10 C10        -0.0187    1.5258    0.0104 C.3       1 <0>        -0.0987
     11 C11        -0.7521    2.0344   -1.2337 C.3       1 <0>        -0.1473
     12 C12        -0.7167    3.5643   -1.2510 C.3       1 <0>        -0.0070
     13 C13         0.0021   -0.0041    0.0020 C.3       1 <0>        -0.1123
     14 C14        -1.4266   -0.5342    0.1385 C.3       1 <0>        -0.0525
     15 C15        -1.4062   -2.0411    0.1303 C.2       1 <0>         0.1356
     16 C16        -1.5144   -2.9029   -1.0487 C.ar      1 <0>        -0.2202
     17 C17        -1.6576   -2.6559   -2.4176 C.ar      1 <0>         0.0138
     18 C18        -1.7322   -3.6988   -3.2880 C.ar      1 <0>        -0.1666
     19 C19        -1.6685   -5.0200   -2.8423 C.ar      1 <0>         0.2139
     20 C20        -1.5184   -5.2775   -1.4845 C.ar      1 <0>        -0.1535
     21 C21        -1.4451   -4.2269   -0.5823 C.ar      1 <0>         0.1267
     22 O1         -1.3160   -4.1667    0.7593 O.3       1 <0>        -0.0841
     23 N1         -1.2951   -2.8136    1.1673 N.2       1 <0>        -0.2801
     24 N2         -1.7674   -5.8953   -3.9231 N.am      1 <0>        -0.6568
     25 C22        -1.8961   -5.2491   -5.0935 C.2       1 <0>         0.5302
     26 O2         -2.0008   -5.7589   -6.1890 O.2       1 <0>        -0.4833
     27 C23        -1.8852   -3.7661   -4.7908 C.3       1 <0>        -0.1097
     28 H1         -1.0962    6.8538   -6.2491 H         1 <0>         0.1359
     29 H2         -2.6371    6.7238   -4.3328 H         1 <0>         0.1360
     30 H3         -1.7868    6.0921   -2.1100 H         1 <0>         0.1307
     31 H4          2.1471    5.7312   -3.7173 H         1 <0>         0.1308
     32 H5          1.2950    6.3528   -5.9424 H         1 <0>         0.1360
     33 H6          0.1469    5.9603   -0.6479 H         1 <0>         0.1362
     34 H7          1.7880    5.8057   -1.3196 H         1 <0>         0.1346
     35 H8          0.8780    3.9711    0.8285 H         1 <0>         0.1312
     36 H9          2.4109    3.9672   -0.0757 H         1 <0>         0.1291
     37 H10         1.9319    1.7335    0.9043 H         1 <0>         0.1141
     38 H11         1.9413    1.6719   -0.8752 H         1 <0>         0.0893
     39 H12        -0.5307    1.8782    0.9058 H         1 <0>         0.0945
     40 H13        -0.2624    1.6489   -2.1279 H         1 <0>         0.0900
     41 H14        -1.7876    1.6947   -1.2100 H         1 <0>         0.1139
     42 H15        -1.2187    3.9493   -0.3634 H         1 <0>         0.1301
     43 H16        -1.2257    3.9293   -2.1430 H         1 <0>         0.1293
     44 H17         0.4324   -0.3564   -0.9354 H         1 <0>         0.0780
     45 H18         0.6044   -0.3639    0.8362 H         1 <0>         0.0826
     46 H19        -1.8569   -0.1819    1.0760 H         1 <0>         0.0970
     47 H20        -2.0289   -0.1745   -0.6956 H         1 <0>         0.0965
     48 H21        -1.7085   -1.6407   -2.7827 H         1 <0>         0.1392
     49 H22        -1.4701   -6.2968   -1.1307 H         1 <0>         0.1476
     50 H23        -1.7453   -6.8614   -3.8393 H         1 <0>         0.4212
     51 H24        -2.8239   -3.3063   -5.1000 H         1 <0>         0.1287
     52 H25        -1.0415   -3.2820   -5.2827 H         1 <0>         0.1276
     53 N3          0.6922    4.0112   -1.2856 N.4       1 <0>        -0.3923
     54 H26         1.1572    3.5845   -2.0955 H         1 <0>         0.4256
@<TRIPOS>BOND
     1    1    6 ar
     2    1    2 ar
     3    1   28 1
     4    2    3 ar
     5    2   29 1
     6    3    4 ar
     7    3   30 1
     8    4    5 ar
     9    4    7 1
    10    5    6 ar
    11    5   31 1
    12    6   32 1
    13    7   33 1
    14    7   34 1
    15    7   53 1
    16    8    9 1
    17    8   35 1
    18    8   36 1
    19    8   53 1
    20    9   10 1
    21    9   37 1
    22    9   38 1
    23   10   11 1
    24   10   13 1
    25   10   39 1
    26   11   12 1
    27   11   40 1
    28   11   41 1
    29   12   42 1
    30   12   43 1
    31   12   53 1
    32   13   14 1
    33   13   44 1
    34   13   45 1
    35   14   15 1
    36   14   46 1
    37   14   47 1
    38   15   23 2
    39   15   16 1
    40   16   21 ar
    41   16   17 ar
    42   17   18 ar
    43   17   48 1
    44   18   27 1
    45   18   19 ar
    46   19   20 ar
    47   19   24 1
    48   20   21 ar
    49   20   49 1
    50   21   22 1
    51   22   23 1
    52   24   25 am
    53   24   50 1
    54   25   26 2
    55   25   27 1
    56   27   51 1
    57   27   52 1
    58   53   54 1
@<TRIPOS>MOLECULE
ZINC04978441
   33    35     0     0     0
SMALL
USER_CHARGES
BLAHamine
@<TRIPOS>ATOM
      1 C1         -1.2953   -4.0865   -4.3960 C.ar      1 <0>        -0.1154
      2 C2         -0.7222   -3.3739   -5.4465 C.ar      1 <0>        -0.0276
      3 C3         -0.1382   -2.1623   -5.2369 C.ar      1 <0>        -0.1552
      4 C4         -0.1105   -1.6156   -3.9421 C.ar      1 <0>         0.1860
      5 C5         -0.6897   -2.3452   -2.8763 C.ar      1 <0>        -0.1387
      6 C6         -1.2849   -3.5888   -3.1276 C.ar      1 <0>        -0.0562
      7 C7         -0.6462   -1.7926   -1.5777 C.ar      1 <0>         0.3677
      8 C8         -0.0409   -0.5491   -1.4042 C.ar      1 <0>        -0.2089
      9 C9          0.4835    0.1122   -2.4953 C.ar      1 <0>         0.2712
     10 C10         1.0932    1.4876   -2.3895 C.3       1 <0>        -0.1214
     11 C11         2.1296    1.5430   -1.2648 C.3       1 <0>        -0.1157
     12 C12         1.4258    2.0267   -0.0007 C.3       1 <0>        -0.1317
     13 C13        -0.0186    1.5236    0.0104 C.3       1 <0>        -0.1294
     14 C14         0.0021   -0.0041    0.0020 C.3       1 <0>        -0.0699
     15 N1         -1.1934   -2.4714   -0.4997 N.pl3     1 <0>        -0.7942
     16 H1         -1.7539   -5.0450   -4.5892 H         1 <0>         0.1511
     17 H2         -0.7413   -3.7893   -6.4432 H         1 <0>         0.1529
     18 H3          0.3020   -1.6228   -6.0625 H         1 <0>         0.1538
     19 H4         -1.7330   -4.1494   -2.3205 H         1 <0>         0.1464
     20 H5          1.5760    1.7388   -3.3340 H         1 <0>         0.0963
     21 H6          0.3059    2.2135   -2.1859 H         1 <0>         0.1272
     22 H7          2.5459    0.5496   -1.0979 H         1 <0>         0.0733
     23 H8          2.9265    2.2373   -1.5317 H         1 <0>         0.0905
     24 H9          1.4304    3.1164    0.0225 H         1 <0>         0.0766
     25 H10         1.9498    1.6439    0.8751 H         1 <0>         0.0768
     26 H11        -0.5411    1.8884   -0.8739 H         1 <0>         0.0744
     27 H12        -0.5241    1.8789    0.9084 H         1 <0>         0.0847
     28 H13         0.9125   -0.3508    0.4909 H         1 <0>         0.0938
     29 H14        -0.8618   -0.3752    0.5535 H         1 <0>         0.0797
     30 H15        -1.1577   -2.0814    0.3878 H         1 <0>         0.4262
     31 H16        -1.6120   -3.3362   -0.6329 H         1 <0>         0.4218
     32 N2          0.4823   -0.3851   -3.7687 N.ar      1 <0>        -0.5507
     33 H17         0.9002    0.1304   -4.5522 H         1 <0>         0.4645
@<TRIPOS>BOND
     1    1    6 ar
     2    1    2 ar
     3    1   16 1
     4    2    3 ar
     5    2   17 1
     6    3    4 ar
     7    3   18 1
     8    4    5 ar
     9    4   32 ar
    10    5    6 ar
    11    5    7 ar
    12    6   19 1
    13    7    8 ar
    14    7   15 1
    15    8   14 1
    16    8    9 ar
    17    9   10 1
    18    9   32 ar
    19   10   11 1
    20   10   20 1
    21   10   21 1
    22   11   12 1
    23   11   22 1
    24   11   23 1
    25   12   13 1
    26   12   24 1
    27   12   25 1
    28   13   14 1
    29   13   26 1
    30   13   27 1
    31   14   28 1
    32   14   29 1
    33   15   30 1
    34   15   31 1
    35   32   33 1
@<TRIPOS>MOLECULE
ZINC13529638
   77    81     0     0     0
SMALL
USER_CHARGES
N-[(5R,8S,9S,10R,13S,14S,17S)-17-[(1S)-1-dimethylaminoethyl]-10,13-dimethyl-4-oxo-1,5,6,7,8,9,11,12,14,15,16,17-dodecahydrocyclopenta[a]phenanthren-3-yl]benzamide
@<TRIPOS>ATOM
      1 C1          9.6218   -4.1106   -3.9655 C.3       1 <0>        -0.1970
      2 C2         10.6815   -3.0662   -3.6087 C.3       1 <0>         0.0319
      3 H1         10.8504   -2.4128   -4.4647 H         1 <0>         0.1416
      4 C3         10.1974   -2.2341   -2.4196 C.3       1 <0>        -0.1005
      5 H2         10.0686   -2.8686   -1.5427 H         1 <0>         0.0961
      6 C4         11.2024   -1.0947   -2.1171 C.3       1 <0>        -0.1512
      7 C5         10.4019    0.2326   -2.2129 C.3       1 <0>        -0.1175
      8 C6          8.9613   -0.2162   -1.9462 C.3       1 <0>        -0.0782
      9 H3          8.8046   -0.4154   -0.8861 H         1 <0>         0.0818
     10 C7          8.8862   -1.5347   -2.7629 C.3       1 <0>        -0.0538
     11 C8          7.6116   -2.2482   -2.3570 C.3       1 <0>        -0.1091
     12 C9          6.4326   -1.3601   -2.7891 C.3       1 <0>        -0.1220
     13 C10         6.5253    0.0287   -2.1661 C.3       1 <0>        -0.0680
     14 H4          6.4189   -0.0624   -1.0851 H         1 <0>         0.0742
     15 C11         7.8729    0.6977   -2.4772 C.3       1 <0>        -0.0782
     16 H5          7.9959    0.8312   -3.5520 H         1 <0>         0.0876
     17 C12         7.9321    2.0565   -1.7775 C.3       1 <0>        -0.1135
     18 C13         6.7938    2.9417   -2.2889 C.3       1 <0>        -0.1119
     19 C14         5.4504    2.2765   -1.9842 C.3       1 <0>        -0.1054
     20 H6          5.3462    2.1736   -0.9950 H         1 <0>         0.1007
     21 C15         5.3892    0.9110   -2.6846 C.3       1 <0>        -0.0446
     22 C16         4.0474    0.2508   -2.3664 C.3       1 <0>        -0.0878
     23 C17         2.9020    1.1644   -2.6851 C.2       1 <0>        -0.0875
     24 C18         3.0295    2.4878   -2.7778 C.2       1 <0>         0.0327
     25 C19         4.3374    3.1277   -2.5622 C.2       1 <0>         0.3953
     26 O1          4.5181    4.2953   -2.8372 O.2       1 <0>        -0.4316
     27 N1          1.9101    3.2757   -3.0768 N.am      1 <0>        -0.6757
     28 C20         1.4927    4.2129   -2.2028 C.2       1 <0>         0.5686
     29 O2          2.0277    4.3113   -1.1156 O.2       1 <0>        -0.5185
     30 C21         0.3804    5.1171   -2.5637 C.ar      1 <0>        -0.1390
     31 C22        -0.2322    5.0106   -3.8135 C.ar      1 <0>        -0.0863
     32 C23        -1.2729    5.8545   -4.1422 C.ar      1 <0>        -0.1263
     33 C24        -1.7026    6.8117   -3.2403 C.ar      1 <0>        -0.0885
     34 C25        -1.0963    6.9261   -2.0019 C.ar      1 <0>        -0.1252
     35 C26        -0.0580    6.0851   -1.6586 C.ar      1 <0>        -0.0566
     36 C27         5.5354    1.1016   -4.1956 C.3       1 <0>        -0.1549
     37 C28         8.8464   -1.2153   -4.2586 C.3       1 <0>        -0.1709
     38 C29        12.2492   -4.8089   -4.2156 C.3       1 <0>        -0.0478
     39 C30        13.0429   -2.7821   -3.1550 C.3       1 <0>        -0.0563
     40 H7          9.5477   -4.8424   -3.1611 H         1 <0>         0.0796
     41 H8          8.6582   -3.6192   -4.0996 H         1 <0>         0.1172
     42 H9          9.9047   -4.6141   -4.8899 H         1 <0>         0.0828
     43 H10        11.6115   -1.2133   -1.1137 H         1 <0>         0.0795
     44 H11        12.0074   -1.1010   -2.8521 H         1 <0>         0.0789
     45 H12        10.4926    0.6667   -3.2087 H         1 <0>         0.0743
     46 H13        10.7332    0.9387   -1.4515 H         1 <0>         0.0754
     47 H14         7.5515   -3.2141   -2.8585 H         1 <0>         0.0683
     48 H15         7.5940   -2.3899   -1.2764 H         1 <0>         0.0699
     49 H16         6.4369   -1.2651   -3.8749 H         1 <0>         0.0726
     50 H17         5.4996   -1.8293   -2.4770 H         1 <0>         0.0711
     51 H18         8.8882    2.5341   -1.9914 H         1 <0>         0.0685
     52 H19         7.8283    1.9161   -0.7016 H         1 <0>         0.0652
     53 H20         6.8954    3.0779   -3.3655 H         1 <0>         0.0702
     54 H21         6.8388    3.9120   -1.7944 H         1 <0>         0.0748
     55 H22         3.9516   -0.6637   -2.9517 H         1 <0>         0.0906
     56 H23         4.0148    0.0010   -1.3059 H         1 <0>         0.0945
     57 H24         1.9277    0.7289   -2.8512 H         1 <0>         0.1272
     58 H25         1.4355    3.1467   -3.9129 H         1 <0>         0.4084
     59 H26         0.1051    4.2666   -4.5199 H         1 <0>         0.1238
     60 H27        -1.7504    5.7704   -5.1072 H         1 <0>         0.1317
     61 H28        -2.5153    7.4724   -3.5041 H         1 <0>         0.1310
     62 H29        -1.4368    7.6752   -1.3024 H         1 <0>         0.1335
     63 H30         0.4142    6.1751   -0.6915 H         1 <0>         0.1367
     64 H31         6.4927    1.5764   -4.4110 H         1 <0>         0.0669
     65 H32         5.4917    0.1312   -4.6901 H         1 <0>         0.0654
     66 H33         4.7261    1.7330   -4.5622 H         1 <0>         0.0559
     67 H34         9.7849   -0.7472   -4.5553 H         1 <0>         0.0583
     68 H35         8.7056   -2.1369   -4.8233 H         1 <0>         0.0627
     69 H36         8.0202   -0.5343   -4.4628 H         1 <0>         0.0825
     70 H37        12.3527   -4.3802   -5.2124 H         1 <0>         0.1220
     71 H38        13.1827   -5.2934   -3.9296 H         1 <0>         0.1215
     72 H39        11.4442   -5.5438   -4.2179 H         1 <0>         0.1234
     73 H40        12.9730   -2.2438   -2.2098 H         1 <0>         0.1319
     74 H41        13.9924   -3.3155   -3.2000 H         1 <0>         0.1207
     75 H42        12.9844   -2.0739   -3.9816 H         1 <0>         0.1236
     76 N2         11.9327   -3.7551   -3.2285 N.4       1 <0>        -0.3945
     77 H43        11.8077   -4.1888   -2.3062 H         1 <0>         0.4276
@<TRIPOS>BOND
     1    1    2 1
     2    1   40 1
     3    1   41 1
     4    1   42 1
     5    2    3 1
     6    2    4 1
     7    2   76 1
     8    4    5 1
     9    4   10 1
    10    4    6 1
    11    6    7 1
    12    6   43 1
    13    6   44 1
    14    7    8 1
    15    7   45 1
    16    7   46 1
    17    8    9 1
    18    8   15 1
    19    8   10 1
    20   10   11 1
    21   10   37 1
    22   11   12 1
    23   11   47 1
    24   11   48 1
    25   12   13 1
    26   12   49 1
    27   12   50 1
    28   13   14 1
    29   13   21 1
    30   13   15 1
    31   15   16 1
    32   15   17 1
    33   17   18 1
    34   17   51 1
    35   17   52 1
    36   18   19 1
    37   18   53 1
    38   18   54 1
    39   19   20 1
    40   19   25 1
    41   19   21 1
    42   21   22 1
    43   21   36 1
    44   22   23 1
    45   22   55 1
    46   22   56 1
    47   23   24 2
    48   23   57 1
    49   24   25 1
    50   24   27 1
    51   25   26 2
    52   27   28 am
    53   27   58 1
    54   28   29 2
    55   28   30 1
    56   30   35 ar
    57   30   31 ar
    58   31   32 ar
    59   31   59 1
    60   32   33 ar
    61   32   60 1
    62   33   34 ar
    63   33   61 1
    64   34   35 ar
    65   34   62 1
    66   35   63 1
    67   36   64 1
    68   36   65 1
    69   36   66 1
    70   37   67 1
    71   37   68 1
    72   37   69 1
    73   38   70 1
    74   38   71 1
    75   38   72 1
    76   38   76 1
    77   39   73 1
    78   39   74 1
    79   39   75 1
    80   39   76 1
    81   76   77 1
@<TRIPOS>MOLECULE
ZINC33971762
   41    43     0     0     0
SMALL
USER_CHARGES

@<TRIPOS>ATOM
      1 C1         -0.1882    1.7290    0.1955 C.3       1 <0>        -0.1309
      2 C2         -0.0702    0.2073    0.0878 C.3       1 <0>        -0.0259
      3 C3          0.7161   -0.2302   -1.1676 C.3       1 <0>        -0.1094
      4 C4          2.1268   -0.5350   -0.6041 C.3       1 <0>         0.0405
      5 N1          1.8390   -1.1603    0.7115 N.3       1 <0>        -0.5322
      6 C5          0.6980   -0.4088    1.2788 C.3       1 <0>         0.2994
      7 H1          1.0394    0.3565    1.9759 H         1 <0>         0.0776
      8 N2         -0.2494   -1.3390    1.8987 N.pl3     1 <0>        -0.6082
      9 C6         -1.4512   -1.3519    1.1851 C.ar      1 <0>         0.2180
     10 C7         -1.4185   -0.4740    0.1132 C.ar      1 <0>        -0.1472
     11 C8         -2.5141   -0.3423   -0.7184 C.ar      1 <0>        -0.0389
     12 C9         -3.6592   -1.0890   -0.4850 C.ar      1 <0>         0.0429
     13 C10        -3.7001   -1.9683    0.5867 C.ar      1 <0>        -0.0563
     14 C11        -2.6072   -2.1000    1.4164 C.ar      1 <0>        -0.1688
     15 O1         -4.7376   -0.9593   -1.3035 O.3       1 <0>        -0.2261
     16 C12        -4.6383   -1.4352   -2.5634 C.2       1 <0>         0.4996
     17 N3         -3.5806   -2.0956   -2.9265 N.2       1 <0>        -0.6269
     18 C13        -3.4728   -2.6119   -4.2933 C.3       1 <0>         0.0245
     19 O2         -5.6388   -1.2245   -3.4457 O.3       1 <0>        -0.4978
     20 C14         0.0235   -2.1399    3.0947 C.3       1 <0>         0.1095
     21 C15         3.0095   -1.0875    1.5963 C.3       1 <0>         0.0155
     22 H2          0.8083    2.1700    0.2180 H         1 <0>         0.0606
     23 H3         -0.7361    2.1127   -0.6652 H         1 <0>         0.0678
     24 H4         -0.7211    1.9882    1.1104 H         1 <0>         0.0624
     25 H5          0.2747   -1.1248   -1.6069 H         1 <0>         0.0841
     26 H6          0.7587    0.5784   -1.8973 H         1 <0>         0.0791
     27 H7          2.6581   -1.2312   -1.2530 H         1 <0>         0.0875
     28 H8          2.6971    0.3850   -0.4763 H         1 <0>         0.0502
     29 H9         -2.4788    0.3438   -1.5516 H         1 <0>         0.1225
     30 H10        -4.5905   -2.5508    0.7720 H         1 <0>         0.1326
     31 H11        -2.6452   -2.7858    2.2498 H         1 <0>         0.1268
     32 H12        -4.2937   -3.3025   -4.4866 H         1 <0>         0.0494
     33 H13        -3.5212   -1.7831   -4.9996 H         1 <0>         0.0495
     34 H14        -2.5234   -3.1342   -4.4105 H         1 <0>         0.0898
     35 H15        -5.4773   -1.6022   -4.3211 H         1 <0>         0.4199
     36 H16        -0.2683   -1.5785    3.9823 H         1 <0>         0.0491
     37 H17        -0.5461   -3.0680    3.0482 H         1 <0>         0.0679
     38 H18         1.0881   -2.3690    3.1434 H         1 <0>         0.0697
     39 H19         3.2777   -0.0435    1.7587 H         1 <0>         0.0309
     40 H20         2.7720   -1.5546    2.5521 H         1 <0>         0.0681
     41 H21         3.8471   -1.6102    1.1345 H         1 <0>         0.0733
@<TRIPOS>BOND
     1    1    2 1
     2    1   22 1
     3    1   23 1
     4    1   24 1
     5    2    6 1
     6    2   10 1
     7    2    3 1
     8    3    4 1
     9    3   25 1
    10    3   26 1
    11    4    5 1
    12    4   27 1
    13    4   28 1
    14    5    6 1
    15    5   21 1
    16    6    7 1
    17    6    8 1
    18    8    9 1
    19    8   20 1
    20    9   14 ar
    21    9   10 ar
    22   10   11 ar
    23   11   12 ar
    24   11   29 1
    25   12   13 ar
    26   12   15 1
    27   13   14 ar
    28   13   30 1
    29   14   31 1
    30   15   16 1
    31   16   17 2
    32   16   19 1
    33   17   18 1
    34   18   32 1
    35   18   33 1
    36   18   34 1
    37   19   35 1
    38   20   36 1
    39   20   37 1
    40   20   38 1
    41   21   39 1
    42   21   40 1
    43   21   41 1
@<TRIPOS>MOLECULE
ZINC33971762
   42    44     0     0     0
SMALL
USER_CHARGES

@<TRIPOS>ATOM
      1 C1         -0.1882    1.7290    0.1955 C.3       1 <0>        -0.1392
      2 C2         -0.0702    0.2073    0.0878 C.3       1 <0>        -0.0229
      3 C3          0.7161   -0.2302   -1.1676 C.3       1 <0>        -0.1344
      4 C4          2.1268   -0.5350   -0.6041 C.3       1 <0>        -0.0013
      5 N1          1.8390   -1.1603    0.7115 N.4       1 <0>        -0.4135
      6 C5          0.6980   -0.4088    1.2788 C.3       1 <0>         0.2646
      7 H1          1.0394    0.3565    1.9759 H         1 <0>         0.1606
      8 N2         -0.2494   -1.3390    1.8987 N.pl3     1 <0>        -0.6268
      9 C6         -1.4512   -1.3519    1.1851 C.ar      1 <0>         0.1765
     10 C7         -1.4185   -0.4740    0.1132 C.ar      1 <0>        -0.1459
     11 C8         -2.5141   -0.3423   -0.7184 C.ar      1 <0>        -0.0416
     12 C9         -3.6592   -1.0890   -0.4850 C.ar      1 <0>         0.0843
     13 C10        -3.7001   -1.9683    0.5867 C.ar      1 <0>        -0.0559
     14 C11        -2.6072   -2.1000    1.4164 C.ar      1 <0>        -0.1358
     15 O1         -4.7376   -0.9593   -1.3035 O.3       1 <0>        -0.2266
     16 C12        -4.6383   -1.4352   -2.5634 C.2       1 <0>         0.5068
     17 N3         -3.5806   -2.0956   -2.9265 N.2       1 <0>        -0.6345
     18 C13        -3.4728   -2.6119   -4.2933 C.3       1 <0>         0.0224
     19 O2         -5.6388   -1.2245   -3.4457 O.3       1 <0>        -0.4909
     20 C14         0.0238   -2.1405    3.0942 C.3       1 <0>         0.0905
     21 C15         3.0087   -1.0454    1.5928 C.3       1 <0>        -0.0450
     22 H2          0.8083    2.1700    0.2180 H         1 <0>         0.0725
     23 H3         -0.7361    2.1127   -0.6652 H         1 <0>         0.0852
     24 H4         -0.7211    1.9882    1.1104 H         1 <0>         0.0759
     25 H5          0.2747   -1.1248   -1.6069 H         1 <0>         0.1057
     26 H6          0.7587    0.5784   -1.8973 H         1 <0>         0.1233
     27 H7          2.6581   -1.2312   -1.2530 H         1 <0>         0.1390
     28 H8          2.6971    0.3850   -0.4763 H         1 <0>         0.1379
     29 H9         -2.4788    0.3438   -1.5516 H         1 <0>         0.1344
     30 H10        -4.5905   -2.5508    0.7720 H         1 <0>         0.1460
     31 H11        -2.6452   -2.7858    2.2498 H         1 <0>         0.1374
     32 H12        -3.5212   -1.7831   -4.9996 H         1 <0>         0.0540
     33 H13        -2.5234   -3.1342   -4.4105 H         1 <0>         0.0911
     34 H14        -4.2937   -3.3025   -4.4866 H         1 <0>         0.0548
     35 H15        -5.4773   -1.6022   -4.3211 H         1 <0>         0.4255
     36 H16        -0.2674   -1.5795    3.9822 H         1 <0>         0.0730
     37 H17        -0.5461   -3.0685    3.0476 H         1 <0>         0.0899
     38 H18         1.0883   -2.3700    3.1423 H         1 <0>         0.0704
     39 H19         3.2642    0.0063    1.7221 H         1 <0>         0.1241
     40 H20         2.7772   -1.4850    2.5630 H         1 <0>         0.1183
     41 H21         3.8525   -1.5722    1.1472 H         1 <0>         0.1259
     42 H22         1.5894   -2.1301    0.5881 H         1 <0>         0.4242
@<TRIPOS>BOND
     1    1    2 1
     2    1   22 1
     3    1   23 1
     4    1   24 1
     5    2    6 1
     6    2   10 1
     7    2    3 1
     8    3    4 1
     9    3   25 1
    10    3   26 1
    11    4    5 1
    12    4   27 1
    13    4   28 1
    14    5    6 1
    15    5   21 1
    16    5   42 1
    17    6    7 1
    18    6    8 1
    19    8    9 1
    20    8   20 1
    21    9   14 ar
    22    9   10 ar
    23   10   11 ar
    24   11   12 ar
    25   11   29 1
    26   12   13 ar
    27   12   15 1
    28   13   14 ar
    29   13   30 1
    30   14   31 1
    31   15   16 1
    32   16   17 2
    33   16   19 1
    34   17   18 1
    35   18   32 1
    36   18   33 1
    37   18   34 1
    38   19   35 1
    39   20   36 1
    40   20   37 1
    41   20   38 1
    42   21   39 1
    43   21   40 1
    44   21   41 1
@<TRIPOS>MOLECULE
ZINC01595936
   12    12     0     0     0
SMALL
USER_CHARGES
3,4,5,6-tetrachloro-1,2-benzoquinone
@<TRIPOS>ATOM
      1 C1          2.3703    1.4632    0.4552 C.2       1 <0>         0.0183
      2 C2          1.3035    2.1630    0.0012 C.2       1 <0>        -0.1054
      3 C3         -0.0184    1.5067    0.0103 C.2       1 <0>         0.3746
      4 O1         -1.0544    2.1392    0.0188 O.2       1 <0>        -0.3331
      5 C4          0.0021   -0.0041    0.0020 C.2       1 <0>         0.3747
      6 O2         -0.8404   -0.6590   -0.5765 O.2       1 <0>        -0.3331
      7 C5          1.1133   -0.6314    0.7437 C.2       1 <0>        -0.1053
      8 C6          2.2378    0.0945    0.9495 C.2       1 <0>         0.0181
      9 Cl1         3.5564   -0.6196    1.8242 Cl        1 <0>         0.0186
     10 Cl2         0.9818   -2.2575    1.3373 Cl        1 <0>         0.0270
     11 Cl3         1.4862    3.7897   -0.5769 Cl        1 <0>         0.0270
     12 Cl4         3.9365    2.2120    0.4502 Cl        1 <0>         0.0186
@<TRIPOS>BOND
     1    1    8 1
     2    1    2 2
     3    1   12 1
     4    2    3 1
     5    2   11 1
     6    3    4 2
     7    3    5 1
     8    5    6 2
     9    5    7 1
    10    7    8 2
    11    7   10 1
    12    8    9 1
@<TRIPOS>MOLECULE
ZINC27993222
   30    32     0     0     0
SMALL
USER_CHARGES
5-chloro-1,2,3,4-tetrahydroacridin-9-amine
@<TRIPOS>ATOM
      1 C1         -2.0832    7.2488   -3.2348 C.ar      1 <0>        -0.1061
      2 C2         -1.8728    5.9073   -3.3522 C.ar      1 <0>        -0.0496
      3 C3         -1.5428    5.1555   -2.2168 C.ar      1 <0>        -0.1333
      4 C4         -1.3173    3.7627   -2.2895 C.ar      1 <0>         0.3644
      5 C5         -0.9936    3.0816   -1.1203 C.ar      1 <0>        -0.2173
      6 C6         -0.8979    3.7758    0.0734 C.ar      1 <0>         0.2724
      7 N1         -1.1161    5.0788    0.1216 N.ar      1 <0>        -0.5377
      8 C7         -1.4307    5.7949   -0.9591 C.ar      1 <0>         0.1925
      9 C8         -1.6547    7.1808   -0.8763 C.ar      1 <0>        -0.0836
     10 C9         -1.9746    7.8822   -1.9999 C.ar      1 <0>        -0.0197
     11 Cl1        -1.5267    7.9944    0.6519 Cl        1 <0>        -0.0195
     12 C10        -0.5351    3.0944    1.3699 C.3       1 <0>        -0.1137
     13 C11        -0.7413    1.5857    1.2609 C.3       1 <0>        -0.1222
     14 C12        -0.0127    1.0858    0.0080 C.3       1 <0>        -0.1281
     15 C13        -0.7622    1.5971   -1.2207 C.3       1 <0>        -0.0725
     16 N2         -1.4168    3.0900   -3.4980 N.pl3     1 <0>        -0.8189
     17 H1         -2.3377    7.8274   -4.1105 H         1 <0>         0.1600
     18 H2         -1.9595    5.4264   -4.3153 H         1 <0>         0.1508
     19 H3         -2.1464    8.9463   -1.9314 H         1 <0>         0.1631
     20 H4          0.5208    3.2933    1.6057 H         1 <0>         0.1210
     21 H5         -1.1710    3.4831    2.1789 H         1 <0>         0.1106
     22 H6         -0.3314    1.0940    2.1554 H         1 <0>         0.0957
     23 H7         -1.8166    1.3673    1.1827 H         1 <0>         0.0800
     24 H8          1.0186    1.4685    0.0064 H         1 <0>         0.0762
     25 H9          0.0044   -0.0141    0.0081 H         1 <0>         0.0901
     26 H10        -1.7301    1.0789   -1.2890 H         1 <0>         0.0928
     27 H11        -0.1654    1.3789   -2.1186 H         1 <0>         0.0857
     28 H12        -1.2386    2.0053   -3.5400 H         1 <0>         0.4532
     29 H13        -1.6739    3.6410   -4.4146 H         1 <0>         0.4463
     30 H14        -1.0407    5.6140    1.0797 H         1 <0>         0.4674
@<TRIPOS>BOND
     1    1   10 ar
     2    1    2 ar
     3    1   17 1
     4    2    3 ar
     5    2   18 1
     6    3    8 ar
     7    3    4 ar
     8    4    5 ar
     9    4   16 1
    10    5   15 1
    11    5    6 ar
    12    6    7 ar
    13    6   12 1
    14    7    8 ar
    15    7   30 1
    16    8    9 ar
    17    9   10 ar
    18    9   11 1
    19   10   19 1
    20   12   13 1
    21   12   20 1
    22   12   21 1
    23   13   14 1
    24   13   22 1
    25   13   23 1
    26   14   15 1
    27   14   24 1
    28   14   25 1
    29   15   26 1
    30   15   27 1
    31   16   28 1
    32   16   29 1
@<TRIPOS>MOLECULE
ZINC03130265
   36    39     0     0     0
SMALL
USER_CHARGES
1-[2-(2,3-dioxoindolin-1-yl)ethyl]indoline-2,3-dione
@<TRIPOS>ATOM
      1 C1          1.1816    1.7774    0.0003 C.ar      1 <0>        -0.1530
      2 C2         -0.0126    1.0758    0.0080 C.ar      1 <0>        -0.0410
      3 C3         -1.2229    1.7433    0.0174 C.ar      1 <0>        -0.1513
      4 C4         -1.2551    3.1317    0.0309 C.ar      1 <0>         0.1905
      5 C5         -0.0428    3.8407    0.0226 C.ar      1 <0>        -0.2356
      6 C6          1.1729    3.1573    0.0074 C.ar      1 <0>        -0.0030
      7 C7         -0.3925    5.2733    0.0328 C.2       1 <0>         0.3913
      8 O1          0.3661    6.2205    0.0304 O.2       1 <0>        -0.3644
      9 C8         -1.8921    5.3020    0.0473 C.2       1 <0>         0.4888
     10 O2         -2.5903    6.2939    0.0590 O.2       1 <0>        -0.4335
     11 N1         -2.3212    4.0281    0.0453 N.am      1 <0>        -0.5454
     12 C9         -3.7317    3.6325    0.0574 C.3       1 <0>         0.0946
     13 C10        -4.2086    3.4884    1.5040 C.3       1 <0>         0.0945
     14 N2         -5.6191    3.0928    1.5161 N.am      1 <0>        -0.5454
     15 C11        -6.0638    1.7727    1.5145 C.ar      1 <0>         0.1905
     16 C12        -5.3694    0.5700    1.5027 C.ar      1 <0>        -0.1514
     17 C13        -6.0562   -0.6295    1.5030 C.ar      1 <0>        -0.0410
     18 C14        -7.4409   -0.6512    1.5174 C.ar      1 <0>        -0.1530
     19 C15        -8.1511    0.5320    1.5301 C.ar      1 <0>        -0.0029
     20 C16        -7.4679    1.7480    1.5287 C.ar      1 <0>        -0.2356
     21 C17        -7.9140    3.1535    1.5397 C.2       1 <0>         0.3914
     22 O3         -9.0544    3.5681    1.5538 O.2       1 <0>        -0.3644
     23 C18        -6.6479    3.9578    1.5358 C.2       1 <0>         0.4887
     24 O4         -6.5671    5.1682    1.5464 O.2       1 <0>        -0.4336
     25 H1          2.1206    1.2439   -0.0115 H         1 <0>         0.1403
     26 H2          0.0021   -0.0041    0.0020 H         1 <0>         0.1410
     27 H3         -2.1465    1.1834    0.0187 H         1 <0>         0.1345
     28 H4          2.1034    3.7057    0.0014 H         1 <0>         0.1407
     29 H5         -4.3268    4.3936   -0.4472 H         1 <0>         0.1037
     30 H6         -3.8463    2.6798   -0.4596 H         1 <0>         0.1020
     31 H7         -3.6135    2.7273    2.0086 H         1 <0>         0.1019
     32 H8         -4.0940    4.4411    2.0210 H         1 <0>         0.1038
     33 H9         -4.2894    0.5721    1.4913 H         1 <0>         0.1345
     34 H10        -5.5072   -1.5595    1.4924 H         1 <0>         0.1410
     35 H11        -7.9656   -1.5952    1.5184 H         1 <0>         0.1402
     36 H12        -9.2309    0.5165    1.5414 H         1 <0>         0.1407
@<TRIPOS>BOND
     1    1    6 ar
     2    1    2 ar
     3    1   25 1
     4    2    3 ar
     5    2   26 1
     6    3    4 ar
     7    3   27 1
     8    4   11 1
     9    4    5 ar
    10    5    6 ar
    11    5    7 1
    12    6   28 1
    13    7    8 2
    14    7    9 1
    15    9   10 2
    16    9   11 am
    17   11   12 1
    18   12   13 1
    19   12   29 1
    20   12   30 1
    21   13   14 1
    22   13   31 1
    23   13   32 1
    24   14   23 am
    25   14   15 1
    26   15   20 ar
    27   15   16 ar
    28   16   17 ar
    29   16   33 1
    30   17   18 ar
    31   17   34 1
    32   18   19 ar
    33   18   35 1
    34   19   20 ar
    35   19   36 1
    36   20   21 1
    37   21   22 2
    38   21   23 1
    39   23   24 2
@<TRIPOS>MOLECULE
ZINC01022328
   38    41     0     0     0
SMALL
USER_CHARGES
1-phenothiazin-10-yl-2-phenyl-ethanone
@<TRIPOS>ATOM
      1 C1         -0.5850    0.5970   -1.0746 C.ar      1 <0>        -0.1152
      2 C2         -0.3437   -0.6985   -1.4921 C.ar      1 <0>        -0.1180
      3 C3          0.9004   -1.0455   -1.9850 C.ar      1 <0>        -0.1075
      4 C4          1.9028   -0.0967   -2.0612 C.ar      1 <0>        -0.0786
      5 C5          1.6613    1.1989   -1.6442 C.ar      1 <0>        -0.0984
      6 C6          0.4174    1.5458   -1.1509 C.ar      1 <0>        -0.1181
      7 C7          3.2590   -0.4749   -2.5986 C.3       1 <0>        -0.1004
      8 C8          4.1351   -0.9442   -1.4658 C.2       1 <0>         0.5203
      9 O1          3.8491   -0.6626   -0.3209 O.2       1 <0>        -0.4879
     10 N1          5.2364   -1.6768   -1.7246 N.am      1 <0>        -0.5105
     11 C9          5.9721   -2.2016   -0.6546 C.ar      1 <0>         0.1421
     12 C10         6.1290   -1.4761    0.5126 C.ar      1 <0>        -0.0987
     13 C11         6.8550   -2.0047    1.5647 C.ar      1 <0>        -0.0946
     14 C12         7.4245   -3.2600    1.4620 C.ar      1 <0>        -0.1135
     15 C13         7.2703   -3.9990    0.3013 C.ar      1 <0>        -0.0718
     16 C14         6.5451   -3.4751   -0.7531 C.ar      1 <0>        -0.1303
     17 S1          6.3299   -4.3937   -2.2457 S.3       1 <0>         0.0191
     18 C15         6.1491   -3.1171   -3.4520 C.ar      1 <0>        -0.1262
     19 C16         5.6167   -1.8876   -3.0560 C.ar      1 <0>         0.1444
     20 C17         5.4698   -0.8773   -3.9937 C.ar      1 <0>        -0.1370
     21 C18         5.8490   -1.0921   -5.3067 C.ar      1 <0>        -0.0867
     22 C19         6.3756   -2.3104   -5.6934 C.ar      1 <0>        -0.1131
     23 C20         6.5264   -3.3268   -4.7656 C.ar      1 <0>        -0.0642
     24 H1         -1.5553    0.8668   -0.6847 H         1 <0>         0.1233
     25 H2         -1.1269   -1.4398   -1.4325 H         1 <0>         0.1238
     26 H3          1.0891   -2.0578   -2.3104 H         1 <0>         0.1194
     27 H4          2.4446    1.9401   -1.7035 H         1 <0>         0.1205
     28 H5          0.2289    2.5579   -0.8248 H         1 <0>         0.1241
     29 H6          3.1497   -1.2762   -3.3294 H         1 <0>         0.1075
     30 H7          3.7155    0.3922   -3.0758 H         1 <0>         0.1172
     31 H8          5.6874   -0.4944    0.6004 H         1 <0>         0.1437
     32 H9          6.9780   -1.4326    2.4724 H         1 <0>         0.1347
     33 H10         7.9906   -3.6647    2.2879 H         1 <0>         0.1357
     34 H11         7.7147   -4.9799    0.2197 H         1 <0>         0.1385
     35 H12         5.0597    0.0775   -3.6993 H         1 <0>         0.1407
     36 H13         5.7332   -0.3026   -6.0345 H         1 <0>         0.1379
     37 H14         6.6693   -2.4695   -6.7204 H         1 <0>         0.1377
     38 H15         6.9376   -4.2791   -5.0664 H         1 <0>         0.1403
@<TRIPOS>BOND
     1    1    6 ar
     2    1    2 ar
     3    1   24 1
     4    2    3 ar
     5    2   25 1
     6    3    4 ar
     7    3   26 1
     8    4    5 ar
     9    4    7 1
    10    5    6 ar
    11    5   27 1
    12    6   28 1
    13    7    8 1
    14    7   29 1
    15    7   30 1
    16    8    9 2
    17    8   10 am
    18   10   19 1
    19   10   11 1
    20   11   16 ar
    21   11   12 ar
    22   12   13 ar
    23   12   31 1
    24   13   14 ar
    25   13   32 1
    26   14   15 ar
    27   14   33 1
    28   15   16 ar
    29   15   34 1
    30   16   17 1
    31   17   18 1
    32   18   23 ar
    33   18   19 ar
    34   19   20 ar
    35   20   21 ar
    36   20   35 1
    37   21   22 ar
    38   21   36 1
    39   22   23 ar
    40   22   37 1
    41   23   38 1
@<TRIPOS>MOLECULE
ZINC01529526
   20    22     0     0     0
SMALL
USER_CHARGES

@<TRIPOS>ATOM
      1 C1         -0.0168    1.3907    0.0097 C.ar      1 <0>        -0.1404
      2 C2          1.1496    2.1629    0.0027 C.ar      1 <0>        -0.0463
      3 C3          2.3809    1.5133   -0.0123 C.ar      1 <0>        -0.0781
      4 C4          3.6196    2.1488   -0.0197 C.ar      1 <0>        -0.0462
      5 C5          4.7770    1.3632   -0.0350 C.ar      1 <0>        -0.1404
      6 C6          4.7419   -0.0313   -0.0437 C.ar      1 <0>        -0.0048
      7 C7          3.5229   -0.7082   -0.0364 C.ar      1 <0>        -0.1958
      8 C8          2.3724    0.0500   -0.0204 C.ar      1 <0>        -0.0029
      9 C9          1.2131   -0.6950   -0.0137 C.ar      1 <0>        -0.1959
     10 C10         0.0021   -0.0041    0.0020 C.ar      1 <0>        -0.0048
     11 C11         1.6164   -2.1120   -0.0258 C.2       1 <0>         0.3793
     12 O1          0.8869   -3.0723   -0.0245 O.2       1 <0>        -0.3746
     13 C12         3.1033   -2.1205   -0.0411 C.2       1 <0>         0.3792
     14 O2          3.8216   -3.0892   -0.0551 O.2       1 <0>        -0.3746
     15 H1         -0.9716    1.8953    0.0261 H         1 <0>         0.1387
     16 H2          1.0961    3.2416    0.0085 H         1 <0>         0.1448
     17 H3          3.6856    3.2267   -0.0141 H         1 <0>         0.1448
     18 H4          5.7376    1.8569   -0.0407 H         1 <0>         0.1387
     19 H5          5.6657   -0.5906   -0.0566 H         1 <0>         0.1398
     20 H6         -0.9281   -0.5528    0.0081 H         1 <0>         0.1398
@<TRIPOS>BOND
     1    1   10 ar
     2    1    2 ar
     3    1   15 1
     4    2    3 ar
     5    2   16 1
     6    3    8 ar
     7    3    4 ar
     8    4    5 ar
     9    4   17 1
    10    5    6 ar
    11    5   18 1
    12    6    7 ar
    13    6   19 1
    14    7   13 1
    15    7    8 ar
    16    8    9 ar
    17    9   10 ar
    18    9   11 1
    19   10   20 1
    20   11   12 2
    21   11   13 1
    22   13   14 2
@<TRIPOS>MOLECULE
ZINC05943142
   38    41     0     0     0
SMALL
USER_CHARGES
o-tolyl-phenothiazin-10-yl-methanone
@<TRIPOS>ATOM
      1 C1         -0.9117   -0.3684   -2.2384 C.3       1 <0>        -0.1351
      2 C2         -0.3161   -1.0365   -1.0260 C.ar      1 <0>        -0.0407
      3 C3         -0.3887   -2.4072   -0.8862 C.ar      1 <0>        -0.1222
      4 C4          0.1533   -3.0216    0.2286 C.ar      1 <0>        -0.0894
      5 C5          0.7753   -2.2675    1.2082 C.ar      1 <0>        -0.1234
      6 C6          0.8591   -0.8969    1.0786 C.ar      1 <0>        -0.0717
      7 C7          0.3146   -0.2705   -0.0442 C.ar      1 <0>        -0.1334
      8 C8          0.4002    1.1977   -0.1895 C.2       1 <0>         0.5705
      9 O1         -0.6147    1.8572   -0.3080 O.2       1 <0>        -0.4896
     10 N1          1.6027    1.8063   -0.1851 N.am      1 <0>        -0.5034
     11 C9          1.6651    3.1905   -0.3821 C.ar      1 <0>         0.1433
     12 C10         0.8043    3.8136   -1.2682 C.ar      1 <0>        -0.0978
     13 C11         0.8728    5.1825   -1.4540 C.ar      1 <0>        -0.0933
     14 C12         1.7954    5.9391   -0.7559 C.ar      1 <0>        -0.1125
     15 C13         2.6597    5.3288    0.1371 C.ar      1 <0>        -0.0710
     16 C14         2.5951    3.9607    0.3268 C.ar      1 <0>        -0.1283
     17 S1          3.6835    3.1534    1.4591 S.3       1 <0>         0.0183
     18 C15         3.8201    1.5364    0.7631 C.ar      1 <0>        -0.1257
     19 C16         2.7544    1.0355    0.0107 C.ar      1 <0>         0.1403
     20 C17         2.8497   -0.2328   -0.5413 C.ar      1 <0>        -0.1162
     21 C18         3.9916   -0.9884   -0.3445 C.ar      1 <0>        -0.0899
     22 C19         5.0429   -0.4883    0.4009 C.ar      1 <0>        -0.1107
     23 C20         4.9590    0.7768    0.9569 C.ar      1 <0>        -0.0689
     24 H1         -0.1356   -0.2196   -2.9892 H         1 <0>         0.0725
     25 H2         -1.6996   -0.9989   -2.6504 H         1 <0>         0.0764
     26 H3         -1.3306    0.5964   -1.9526 H         1 <0>         0.0838
     27 H4         -0.8731   -3.0015   -1.6468 H         1 <0>         0.1326
     28 H5          0.0904   -4.0945    0.3350 H         1 <0>         0.1305
     29 H6          1.1957   -2.7533    2.0763 H         1 <0>         0.1312
     30 H7          1.3451   -0.3096    1.8436 H         1 <0>         0.1248
     31 H8          0.0807    3.2295   -1.8174 H         1 <0>         0.1382
     32 H9          0.2010    5.6636   -2.1495 H         1 <0>         0.1355
     33 H10         1.8423    7.0074   -0.9076 H         1 <0>         0.1364
     34 H11         3.3813    5.9186    0.6829 H         1 <0>         0.1392
     35 H12         2.0327   -0.6306   -1.1251 H         1 <0>         0.1389
     36 H13         4.0624   -1.9757   -0.7765 H         1 <0>         0.1346
     37 H14         5.9308   -1.0849    0.5493 H         1 <0>         0.1365
     38 H15         5.7798    1.1689    1.5392 H         1 <0>         0.1396
@<TRIPOS>BOND
     1    1    2 1
     2    1   24 1
     3    1   25 1
     4    1   26 1
     5    2    7 ar
     6    2    3 ar
     7    3    4 ar
     8    3   27 1
     9    4    5 ar
    10    4   28 1
    11    5    6 ar
    12    5   29 1
    13    6    7 ar
    14    6   30 1
    15    7    8 1
    16    8    9 2
    17    8   10 am
    18   10   19 1
    19   10   11 1
    20   11   16 ar
    21   11   12 ar
    22   12   13 ar
    23   12   31 1
    24   13   14 ar
    25   13   32 1
    26   14   15 ar
    27   14   33 1
    28   15   16 ar
    29   15   34 1
    30   16   17 1
    31   17   18 1
    32   18   23 ar
    33   18   19 ar
    34   19   20 ar
    35   20   21 ar
    36   20   35 1
    37   21   22 ar
    38   21   36 1
    39   22   23 ar
    40   22   37 1
    41   23   38 1
@<TRIPOS>MOLECULE
ZINC05928535
   38    41     0     0     0
SMALL
USER_CHARGES
phenothiazin-10-yl-(p-tolyl)methanone
@<TRIPOS>ATOM
      1 C1          8.5142    6.0613    0.3738 C.3       1 <0>        -0.1213
      2 C2          7.1789    5.3678    0.4597 C.ar      1 <0>        -0.0571
      3 C3          7.0593    4.1901    1.1761 C.ar      1 <0>        -0.1229
      4 C4          5.8401    3.5500    1.2583 C.ar      1 <0>        -0.0693
      5 C5          4.7255    4.0931    0.6168 C.ar      1 <0>        -0.1391
      6 C6          4.8545    5.2786   -0.1092 C.ar      1 <0>        -0.0683
      7 C7          6.0782    5.9115   -0.1785 C.ar      1 <0>        -0.1201
      8 C8          3.4163    3.4128    0.7006 C.2       1 <0>         0.5673
      9 O1          2.9467    3.1294    1.7860 O.2       1 <0>        -0.4909
     10 N1          2.7426    3.1066   -0.4258 N.am      1 <0>        -0.5042
     11 C9          1.5255    2.4229   -0.3258 C.ar      1 <0>         0.1435
     12 C10         1.3549    1.4347    0.6315 C.ar      1 <0>        -0.0979
     13 C11         0.1500    0.7616    0.7231 C.ar      1 <0>        -0.0935
     14 C12        -0.8879    1.0623   -0.1390 C.ar      1 <0>        -0.1125
     15 C13        -0.7314    2.0519   -1.0947 C.ar      1 <0>        -0.0711
     16 C14         0.4710    2.7279   -1.1903 C.ar      1 <0>        -0.1282
     17 S1          0.7035    3.9902   -2.4030 S.3       1 <0>         0.0178
     18 C15         2.4438    3.9185   -2.6930 C.ar      1 <0>        -0.1258
     19 C16         3.2801    3.4808   -1.6628 C.ar      1 <0>         0.1399
     20 C17         4.6484    3.4198   -1.8782 C.ar      1 <0>        -0.1151
     21 C18         5.1724    3.7903   -3.1037 C.ar      1 <0>        -0.0902
     22 C19         4.3406    4.2228   -4.1196 C.ar      1 <0>        -0.1107
     23 C20         2.9727    4.2873   -3.9161 C.ar      1 <0>        -0.0691
     24 H1          9.0609    5.6908   -0.4933 H         1 <0>         0.0767
     25 H2          8.3598    7.1357    0.2742 H         1 <0>         0.0708
     26 H3          9.0875    5.8589    1.2785 H         1 <0>         0.0709
     27 H4          7.9224    3.7713    1.6722 H         1 <0>         0.1329
     28 H5          5.7481    2.6310    1.8181 H         1 <0>         0.1315
     29 H6          3.9972    5.7014   -0.6118 H         1 <0>         0.1255
     30 H7          6.1783    6.8312   -0.7358 H         1 <0>         0.1313
     31 H8          2.1627    1.1902    1.3053 H         1 <0>         0.1389
     32 H9          0.0206   -0.0072    1.4705 H         1 <0>         0.1355
     33 H10        -1.8235    0.5280   -0.0640 H         1 <0>         0.1364
     34 H11        -1.5432    2.2913   -1.7656 H         1 <0>         0.1392
     35 H12         5.3049    3.0828   -1.0896 H         1 <0>         0.1390
     36 H13         6.2387    3.7410   -3.2680 H         1 <0>         0.1345
     37 H14         4.7582    4.5103   -5.0732 H         1 <0>         0.1364
     38 H15         2.3217    4.6249   -4.7090 H         1 <0>         0.1395
@<TRIPOS>BOND
     1    1    2 1
     2    1   24 1
     3    1   25 1
     4    1   26 1
     5    2    7 ar
     6    2    3 ar
     7    3    4 ar
     8    3   27 1
     9    4    5 ar
    10    4   28 1
    11    5    6 ar
    12    5    8 1
    13    6    7 ar
    14    6   29 1
    15    7   30 1
    16    8    9 2
    17    8   10 am
    18   10   19 1
    19   10   11 1
    20   11   16 ar
    21   11   12 ar
    22   12   13 ar
    23   12   31 1
    24   13   14 ar
    25   13   32 1
    26   14   15 ar
    27   14   33 1
    28   15   16 ar
    29   15   34 1
    30   16   17 1
    31   17   18 1
    32   18   23 ar
    33   18   19 ar
    34   19   20 ar
    35   20   21 ar
    36   20   35 1
    37   21   22 ar
    38   21   36 1
    39   22   23 ar
    40   22   37 1
    41   23   38 1
@<TRIPOS>MOLECULE
ZINC01686937
   26    28     0     0     0
SMALL
USER_CHARGES
2-nitrophenanthrene-9,10-dione
@<TRIPOS>ATOM
      1 C1          1.2096   -0.6783   -0.0105 C.ar      1 <0>        -0.0834
      2 C2          2.4067    0.0170   -0.0158 C.ar      1 <0>        -0.1061
      3 C3          2.4109    1.3989   -0.0104 C.ar      1 <0>        -0.0540
      4 C4          1.2025    2.0921    0.0018 C.ar      1 <0>        -0.1442
      5 C5         -0.0168    1.3871    0.0097 C.ar      1 <0>        -0.0312
      6 C6          0.0021   -0.0041    0.0020 C.ar      1 <0>        -0.0970
      7 C7         -1.3039    2.1156    0.0320 C.ar      1 <0>         0.0505
      8 C8         -2.4893    1.4397    0.2990 C.ar      1 <0>        -0.1125
      9 C9         -3.6888    2.1282    0.3147 C.ar      1 <0>        -0.0166
     10 C10        -3.7254    3.4891    0.0635 C.ar      1 <0>        -0.0522
     11 C11        -2.5599    4.1799   -0.2087 C.ar      1 <0>         0.0099
     12 C12        -1.3442    3.5000   -0.2291 C.ar      1 <0>        -0.1593
     13 C13        -0.0816    4.2142   -0.5176 C.2       1 <0>         0.3745
     14 O1         -0.0605    5.2569   -1.1384 O.2       1 <0>        -0.3736
     15 C14         1.1779    3.5709    0.0055 C.2       1 <0>         0.3738
     16 O2          2.1163    4.2280    0.4065 O.2       1 <0>        -0.3778
     17 N1         -5.0193    4.2076    0.0862 N.pl3     1 <0>         0.0253
     18 O3         -5.0550    5.4049   -0.1348 O.2       1 <0>        -0.1488
     19 O4         -6.0483    3.6016    0.3259 O.3       1 <0>        -0.1471
     20 H1          1.2188   -1.7582   -0.0167 H         1 <0>         0.1409
     21 H2          3.3419   -0.5232   -0.0245 H         1 <0>         0.1418
     22 H3          3.3463    1.9389   -0.0157 H         1 <0>         0.1446
     23 H4         -0.9256   -0.5571    0.0055 H         1 <0>         0.1423
     24 H5         -2.4729    0.3781    0.4965 H         1 <0>         0.1633
     25 H6         -4.6062    1.5987    0.5255 H         1 <0>         0.1672
     26 H7         -2.5914    5.2415   -0.4051 H         1 <0>         0.1697
@<TRIPOS>BOND
     1    1    6 ar
     2    1    2 ar
     3    1   20 1
     4    2    3 ar
     5    2   21 1
     6    3    4 ar
     7    3   22 1
     8    4   15 1
     9    4    5 ar
    10    5    6 ar
    11    5    7 1
    12    6   23 1
    13    7   12 ar
    14    7    8 ar
    15    8    9 ar
    16    8   24 1
    17    9   10 ar
    18    9   25 1
    19   10   11 ar
    20   10   17 1
    21   11   12 ar
    22   11   26 1
    23   12   13 1
    24   13   14 2
    25   13   15 1
    26   15   16 2
    27   17   18 2
    28   17   19 1
@<TRIPOS>MOLECULE
ZINC27529770
   42    46     0     0     0
SMALL
USER_CHARGES
1-naphthyl phenothiazine-10-carboxylate
@<TRIPOS>ATOM
      1 C1         -2.6109    1.7760   -3.5857 C.ar      1 <0>        -0.1109
      2 C2         -2.6343    3.1694   -3.5851 C.ar      1 <0>        -0.1045
      3 C3         -2.5873    3.8706   -2.4192 C.ar      1 <0>        -0.1042
      4 C4         -2.5138    3.1828   -1.1972 C.ar      1 <0>        -0.0494
      5 C5         -2.4949    1.7659   -1.1968 C.ar      1 <0>        -0.0439
      6 C6         -2.5400    1.0761   -2.4206 C.ar      1 <0>        -0.1020
      7 C7         -2.4155    1.0776    0.0257 C.ar      1 <0>        -0.0895
      8 C8         -2.3675    1.7767    1.1933 C.ar      1 <0>        -0.1092
      9 C9         -2.3914    3.1684    1.1984 C.ar      1 <0>        -0.0997
     10 C10        -2.4630    3.8740    0.0302 C.ar      1 <0>         0.0984
     11 O1         -2.4846    5.2320    0.0518 O.3       1 <0>        -0.2826
     12 C11        -3.6905    5.8261   -0.0385 C.2       1 <0>         0.6491
     13 O2         -4.7020    5.1523   -0.0298 O.2       1 <0>        -0.5150
     14 N1         -3.7751    7.1674   -0.1386 N.am      1 <0>        -0.4851
     15 C12        -2.5973    7.9262   -0.1411 C.ar      1 <0>         0.1364
     16 C13        -1.5252    7.5617    0.6530 C.ar      1 <0>        -0.1061
     17 C14        -0.3657    8.3161    0.6409 C.ar      1 <0>        -0.0882
     18 C15        -0.2664    9.4351   -0.1644 C.ar      1 <0>        -0.1101
     19 C16        -1.3308    9.8082   -0.9678 C.ar      1 <0>        -0.0676
     20 C17        -2.4914    9.0569   -0.9598 C.ar      1 <0>        -0.1242
     21 S1         -3.8653    9.5071   -1.9736 S.3       1 <0>         0.0224
     22 C18        -5.2352    8.8763   -1.0554 C.ar      1 <0>        -0.1237
     23 C19        -5.0388    7.7654   -0.2314 C.ar      1 <0>         0.1512
     24 C20        -6.1063    7.2608    0.4946 C.ar      1 <0>        -0.0956
     25 C21        -7.3511    7.8572    0.3989 C.ar      1 <0>        -0.0931
     26 C22        -7.5402    8.9564   -0.4175 C.ar      1 <0>        -0.1090
     27 C23        -6.4810    9.4688   -1.1473 C.ar      1 <0>        -0.0706
     28 H1         -2.6499    1.2436   -4.5246 H         1 <0>         0.1286
     29 H2         -2.6908    3.7009   -4.5236 H         1 <0>         0.1269
     30 H3         -2.6070    4.9503   -2.4340 H         1 <0>         0.1189
     31 H4         -2.5230   -0.0036   -2.4361 H         1 <0>         0.1337
     32 H5         -2.3967   -0.0021    0.0395 H         1 <0>         0.1364
     33 H6         -2.3103    1.2428    2.1304 H         1 <0>         0.1359
     34 H7         -2.3526    3.6981    2.1388 H         1 <0>         0.1327
     35 H8         -1.5951    6.6889    1.2852 H         1 <0>         0.1393
     36 H9          0.4676    8.0290    1.2652 H         1 <0>         0.1374
     37 H10         0.6419   10.0193   -0.1667 H         1 <0>         0.1381
     38 H11        -1.2547   10.6823   -1.5975 H         1 <0>         0.1411
     39 H12        -5.9663    6.4025    1.1350 H         1 <0>         0.1418
     40 H13        -8.1805    7.4613    0.9661 H         1 <0>         0.1369
     41 H14        -8.5152    9.4158   -0.4865 H         1 <0>         0.1379
     42 H15        -6.6273   10.3278   -1.7854 H         1 <0>         0.1414
@<TRIPOS>BOND
     1    1    6 ar
     2    1    2 ar
     3    1   28 1
     4    2    3 ar
     5    2   29 1
     6    3    4 ar
     7    3   30 1
     8    4   10 ar
     9    4    5 ar
    10    5    6 ar
    11    5    7 ar
    12    6   31 1
    13    7    8 ar
    14    7   32 1
    15    8    9 ar
    16    8   33 1
    17    9   10 ar
    18    9   34 1
    19   10   11 1
    20   11   12 1
    21   12   13 2
    22   12   14 am
    23   14   23 1
    24   14   15 1
    25   15   20 ar
    26   15   16 ar
    27   16   17 ar
    28   16   35 1
    29   17   18 ar
    30   17   36 1
    31   18   19 ar
    32   18   37 1
    33   19   20 ar
    34   19   38 1
    35   20   21 1
    36   21   22 1
    37   22   27 ar
    38   22   23 ar
    39   23   24 ar
    40   24   25 ar
    41   24   39 1
    42   25   26 ar
    43   25   40 1
    44   26   27 ar
    45   26   41 1
    46   27   42 1
@<TRIPOS>MOLECULE
ZINC03814201
   68    69     0     0     0
SMALL
USER_CHARGES

@<TRIPOS>ATOM
      1 C1         -0.0178    1.4648    0.0101 C.3       1 <0>        -0.0438
      2 N1          0.0021   -0.0041    0.0020 N.4       1 <0>        -0.2059
      3 C2          0.7126   -0.4907    1.1921 C.3       1 <0>        -0.0477
      4 C3         -1.3761   -0.5125    0.0124 C.3       1 <0>         0.0265
      5 C4         -2.0815   -0.0265    1.2523 C.2       1 <0>        -0.2340
      6 C5         -3.2108    0.6292    1.1489 C.2       1 <0>        -0.1033
      7 C6          0.6564   -0.4549   -1.1482 C.ar      1 <0>        -0.0459
      8 C7         -0.0149   -1.2492   -2.0589 C.ar      1 <0>        -0.0942
      9 C8          0.6321   -1.6950   -3.1962 C.ar      1 <0>        -0.0951
     10 C9          1.9503   -1.3462   -3.4231 C.ar      1 <0>        -0.0354
     11 C10         2.6214   -0.5512   -2.5128 C.ar      1 <0>        -0.0944
     12 C11         1.9731   -0.1018   -1.3776 C.ar      1 <0>        -0.0861
     13 C12         2.6560   -1.8330   -4.6624 C.3       1 <0>        -0.0878
     14 C13         2.4608   -0.8194   -5.7918 C.3       1 <0>        -0.1661
     15 C14         3.1665   -1.3062   -7.0312 C.2       1 <0>         0.3539
     16 O1          3.7639   -2.3556   -7.0131 O.2       1 <0>        -0.4384
     17 C15         3.1267   -0.4835   -8.2932 C.3       1 <0>        -0.1661
     18 C16         3.9152   -1.1978   -9.3927 C.3       1 <0>        -0.0878
     19 C17         3.8754   -0.3751  -10.6547 C.ar      1 <0>        -0.0353
     20 C18         2.8594   -0.5660  -11.5724 C.ar      1 <0>        -0.0945
     21 C19         2.8229    0.1886  -12.7301 C.ar      1 <0>        -0.0860
     22 C20         3.8021    1.1344  -12.9698 C.ar      1 <0>        -0.0460
     23 C21         4.8176    1.3259  -12.0516 C.ar      1 <0>        -0.0941
     24 C22         4.8517    0.5743  -10.8920 C.ar      1 <0>        -0.0952
     25 N2          3.7657    1.8970  -14.1409 N.4       1 <0>        -0.2058
     26 C23         3.8389    1.0069  -15.3072 C.3       1 <0>        -0.0478
     27 C24         2.5132    2.6632  -14.1876 C.3       1 <0>        -0.0437
     28 C25         4.9066    2.8221  -14.1585 C.3       1 <0>         0.0265
     29 C26         4.8674    3.6441  -15.4210 C.2       1 <0>        -0.2340
     30 C27         4.8788    4.9522  -15.3515 C.2       1 <0>        -0.1033
     31 H1          1.0047    1.8421    0.0024 H         1 <0>         0.1202
     32 H2         -0.5450    1.8259   -0.8730 H         1 <0>         0.1198
     33 H3         -0.5280    1.8163    0.9069 H         1 <0>         0.1271
     34 H4          0.2024   -0.1392    2.0889 H         1 <0>         0.1280
     35 H5          0.7273   -1.5806    1.1861 H         1 <0>         0.1228
     36 H6          1.7352   -0.1134    1.1844 H         1 <0>         0.1209
     37 H7         -1.9033   -0.1515   -0.8706 H         1 <0>         0.1298
     38 H8         -1.3613   -1.6024    0.0064 H         1 <0>         0.1353
     39 H9         -1.6559   -0.2188    2.2261 H         1 <0>         0.1359
     40 H10        -3.6364    0.8214    0.1751 H         1 <0>         0.1108
     41 H11        -3.7163    0.9775    2.0375 H         1 <0>         0.1253
     42 H12        -1.0448   -1.5217   -1.8816 H         1 <0>         0.1491
     43 H13         0.1078   -2.3161   -3.9073 H         1 <0>         0.1476
     44 H14         3.6514   -0.2790   -2.6899 H         1 <0>         0.1477
     45 H15         2.4962    0.5224   -0.6683 H         1 <0>         0.1443
     46 H16         3.7201   -1.9448   -4.4544 H         1 <0>         0.0920
     47 H17         2.2413   -2.7954   -4.9623 H         1 <0>         0.0920
     48 H18         1.3967   -0.7076   -5.9998 H         1 <0>         0.1033
     49 H19         2.8755    0.1430   -5.4919 H         1 <0>         0.1033
     50 H20         2.0921   -0.3569   -8.6119 H         1 <0>         0.1033
     51 H21         3.5708    0.4937   -8.1040 H         1 <0>         0.1033
     52 H22         4.9498   -1.3245   -9.0741 H         1 <0>         0.0919
     53 H23         3.4711   -2.1751   -9.5819 H         1 <0>         0.0920
     54 H24         2.0943   -1.3049  -11.3852 H         1 <0>         0.1476
     55 H25         2.0295    0.0390  -13.4474 H         1 <0>         0.1443
     56 H26         5.5829    2.0646  -12.2391 H         1 <0>         0.1492
     57 H27         5.6430    0.7264  -10.1729 H         1 <0>         0.1476
     58 H28         2.9923    0.3204  -15.2942 H         1 <0>         0.1210
     59 H29         3.8105    1.6014  -16.2204 H         1 <0>         0.1281
     60 H30         4.7683    0.4383  -15.2726 H         1 <0>         0.1228
     61 H31         2.4589    3.3237  -13.3222 H         1 <0>         0.1198
     62 H32         2.4848    3.2577  -15.1007 H         1 <0>         0.1271
     63 H33         1.6666    1.9768  -14.1745 H         1 <0>         0.1202
     64 H34         4.8523    3.4826  -13.2931 H         1 <0>         0.1299
     65 H35         5.8360    2.2536  -14.1239 H         1 <0>         0.1353
     66 H36         4.8298    3.1547  -16.3831 H         1 <0>         0.1360
     67 H37         4.8507    5.5413  -16.2563 H         1 <0>         0.1253
     68 H38         4.9163    5.4416  -14.3895 H         1 <0>         0.1109
@<TRIPOS>BOND
     1    1    2 1
     2    1   31 1
     3    1   32 1
     4    1   33 1
     5    2    3 1
     6    2    4 1
     7    2    7 1
     8    3   34 1
     9    3   35 1
    10    3   36 1
    11    4    5 1
    12    4   37 1
    13    4   38 1
    14    5    6 2
    15    5   39 1
    16    6   40 1
    17    6   41 1
    18    7   12 ar
    19    7    8 ar
    20    8    9 ar
    21    8   42 1
    22    9   10 ar
    23    9   43 1
    24   10   11 ar
    25   10   13 1
    26   11   12 ar
    27   11   44 1
    28   12   45 1
    29   13   14 1
    30   13   46 1
    31   13   47 1
    32   14   15 1
    33   14   48 1
    34   14   49 1
    35   15   16 2
    36   15   17 1
    37   17   18 1
    38   17   50 1
    39   17   51 1
    40   18   19 1
    41   18   52 1
    42   18   53 1
    43   19   24 ar
    44   19   20 ar
    45   20   21 ar
    46   20   54 1
    47   21   22 ar
    48   21   55 1
    49   22   23 ar
    50   22   25 1
    51   23   24 ar
    52   23   56 1
    53   24   57 1
    54   25   26 1
    55   25   27 1
    56   25   28 1
    57   26   58 1
    58   26   59 1
    59   26   60 1
    60   27   61 1
    61   27   62 1
    62   27   63 1
    63   28   29 1
    64   28   64 1
    65   28   65 1
    66   29   30 2
    67   29   66 1
    68   30   67 1
    69   30   68 1
