@<TRIPOS>MOLECULE
ZINC04696510
   24    25     0     0     0
SMALL
USER_CHARGES
5-[(4-chlorophenyl)methylene]-3-methyl-2-thioxo-thiazolidin-4-one
@<TRIPOS>ATOM
      1 C1          6.0884    4.2188    0.2275 C.3       1 <0>         0.0502
      2 N1          4.6885    4.6506    0.2159 N.am      1 <0>        -0.5240
      3 C2          3.7331    3.7423    0.1105 C.2       1 <0>         0.5367
      4 O1          3.9860    2.5552    0.0227 O.2       1 <0>        -0.4455
      5 C3          2.3424    4.2430    0.1044 C.2       1 <0>        -0.2463
      6 C4          1.1766    3.5562    0.0094 C.2       1 <0>         0.0977
      7 C5          1.1939    2.1152   -0.2791 C.ar      1 <0>        -0.1024
      8 C6          0.2977    1.2575    0.3688 C.ar      1 <0>        -0.0660
      9 C7          0.3197   -0.0926    0.0926 C.ar      1 <0>        -0.1219
     10 C8          1.2257   -0.6011   -0.8240 C.ar      1 <0>        -0.0080
     11 C9          2.1161    0.2418   -1.4694 C.ar      1 <0>        -0.1180
     12 C10         2.1067    1.5940   -1.2031 C.ar      1 <0>        -0.0324
     13 Cl1         1.2458   -2.3032   -1.1653 Cl        1 <0>        -0.0599
     14 S1          2.6198    6.0031    0.2486 S.3       1 <0>         0.0740
     15 C11         4.4038    5.9651    0.3126 C.2       1 <0>         0.2758
     16 S2          5.4905    7.2804    0.4544 S.2       1 <0>        -0.3231
     17 H1          6.4696    4.1947   -0.7934 H         1 <0>         0.0889
     18 H2          6.6793    4.9176    0.8196 H         1 <0>         0.1082
     19 H3          6.1578    3.2228    0.6648 H         1 <0>         0.0998
     20 H4          0.2355    4.0683    0.1459 H         1 <0>         0.1642
     21 H5         -0.4123    1.6531    1.0800 H         1 <0>         0.1413
     22 H6         -0.3713   -0.7558    0.5918 H         1 <0>         0.1411
     23 H7          2.8194   -0.1618   -2.1827 H         1 <0>         0.1385
     24 H8          2.8013    2.2498   -1.7069 H         1 <0>         0.1310
@<TRIPOS>BOND
     1    1    2 1
     2    1   17 1
     3    1   18 1
     4    1   19 1
     5    2   15 1
     6    2    3 am
     7    3    4 2
     8    3    5 1
     9    5    6 2
    10    5   14 1
    11    6    7 1
    12    6   20 1
    13    7   12 ar
    14    7    8 ar
    15    8    9 ar
    16    8   21 1
    17    9   10 ar
    18    9   22 1
    19   10   11 ar
    20   10   13 1
    21   11   12 ar
    22   11   23 1
    23   12   24 1
    24   14   15 1
    25   15   16 2
@<TRIPOS>MOLECULE
ZINC00966822
   21    22     0     0     0
SMALL
USER_CHARGES
5-[(3-bromophenyl)methylene]thiazolidine-2,4-dione
@<TRIPOS>ATOM
      1 C1          1.1529    1.3826    0.7873 C.ar      1 <0>        -0.1196
      2 C2         -0.0828    0.8093    0.5729 C.ar      1 <0>        -0.0320
      3 C3         -1.1796    1.6178    0.2554 C.ar      1 <0>        -0.0935
      4 C4         -1.0154    3.0048    0.1693 C.ar      1 <0>        -0.0543
      5 C5          0.2274    3.5628    0.3857 C.ar      1 <0>        -0.1030
      6 C6          1.3091    2.7544    0.6944 C.ar      1 <0>        -0.0648
      7 Br1         0.4549    5.4360    0.2613 Br        1 <0>        -0.0425
      8 C7         -2.4990    1.0139    0.0194 C.2       1 <0>         0.0810
      9 C8         -2.5977   -0.1553   -0.6600 C.2       1 <0>        -0.2135
     10 C9         -1.5573   -0.9139   -1.3865 C.2       1 <0>         0.5529
     11 O1         -0.4068   -0.5229   -1.4487 O.2       1 <0>        -0.4578
     12 N1         -1.9404   -2.0415   -1.9615 N.am      1 <0>        -0.6845
     13 C10        -3.2183   -2.4671   -1.8965 C.2       1 <0>         0.5539
     14 O2         -3.7051   -3.4716   -2.3795 O.2       1 <0>        -0.4109
     15 S1         -4.0232   -1.1994   -0.9305 S.3       1 <0>        -0.0409
     16 H1          2.0012    0.7591    1.0280 H         1 <0>         0.1370
     17 H2         -0.2027   -0.2615    0.6455 H         1 <0>         0.1297
     18 H3         -1.8581    3.6361   -0.0709 H         1 <0>         0.1403
     19 H4          2.2797    3.1971    0.8631 H         1 <0>         0.1367
     20 H5         -3.3897    1.5015    0.3872 H         1 <0>         0.1626
     21 H6         -1.2882   -2.5722   -2.4451 H         1 <0>         0.4232
@<TRIPOS>BOND
     1    1    6 ar
     2    1    2 ar
     3    1   16 1
     4    2    3 ar
     5    2   17 1
     6    3    4 ar
     7    3    8 1
     8    4    5 ar
     9    4   18 1
    10    5    6 ar
    11    5    7 1
    12    6   19 1
    13    8    9 2
    14    8   20 1
    15    9   15 1
    16    9   10 1
    17   10   11 2
    18   10   12 am
    19   12   13 am
    20   12   21 1
    21   13   14 2
    22   13   15 1
@<TRIPOS>MOLECULE
ZINC01297885
   29    30     0     0     0
SMALL
USER_CHARGES
3-(5-benzylidene-4-oxo-2-thioxo-thiazolidin-3-yl)propanoic acid
@<TRIPOS>ATOM
      1 C1          3.5253    3.3033   -0.7006 C.ar      1 <0>        -0.0947
      2 C2          3.5431    2.2508    0.1982 C.ar      1 <0>        -0.1350
      3 C3          2.3971    1.5217    0.4344 C.ar      1 <0>        -0.0844
      4 C4          1.2140    1.8479   -0.2378 C.ar      1 <0>        -0.1005
      5 C5          1.2061    2.9094   -1.1495 C.ar      1 <0>        -0.0427
      6 C6          2.3593    3.6322   -1.3700 C.ar      1 <0>        -0.1251
      7 C7         -0.0126    1.0758    0.0080 C.2       1 <0>         0.0801
      8 C8         -1.2100    1.7087    0.0759 C.2       1 <0>        -0.2319
      9 C9         -1.5116    3.1561    0.0929 C.2       1 <0>         0.5323
     10 O1         -0.6304    3.9938    0.0433 O.2       1 <0>        -0.4387
     11 N1         -2.7882    3.4935    0.1653 N.am      1 <0>        -0.5167
     12 C10        -3.7615    2.5618    0.2206 C.2       1 <0>         0.2893
     13 S1         -5.4545    2.7978    0.3158 S.2       1 <0>        -0.3285
     14 S2         -2.8585    1.0225    0.1615 S.3       1 <0>         0.0389
     15 C11        -3.1534    4.9121    0.1865 C.3       1 <0>         0.1008
     16 C12        -3.3622    5.4064   -1.2463 C.3       1 <0>        -0.1664
     17 C13        -3.7379    6.8656   -1.2246 C.2       1 <0>         0.4731
     18 O2         -3.8293    7.4503   -0.1711 O.co2     1 <0>        -0.6358
     19 H1          4.4264    3.8708   -0.8809 H         1 <0>         0.1241
     20 H2          4.4571    2.0004    0.7162 H         1 <0>         0.1255
     21 H3          2.4126    0.7008    1.1360 H         1 <0>         0.1273
     22 H4          0.2981    3.1646   -1.6757 H         1 <0>         0.1236
     23 H5          2.3539    4.4544   -2.0703 H         1 <0>         0.1275
     24 H6          0.0394    0.0040    0.1300 H         1 <0>         0.1573
     25 H7         -4.0754    5.0415    0.7534 H         1 <0>         0.1154
     26 H8         -2.3546    5.4860    0.6561 H         1 <0>         0.1060
     27 H9         -2.4402    5.2770   -1.8133 H         1 <0>         0.0676
     28 H10        -4.1610    4.8325   -1.7159 H         1 <0>         0.0751
     29 O3         -3.9709    7.5159   -2.3755 O.co2     1 <0>        -0.7636
@<TRIPOS>BOND
     1    1    6 ar
     2    1    2 ar
     3    1   19 1
     4    2    3 ar
     5    2   20 1
     6    3    4 ar
     7    3   21 1
     8    4    5 ar
     9    4    7 1
    10    5    6 ar
    11    5   22 1
    12    6   23 1
    13    7    8 2
    14    7   24 1
    15    8   14 1
    16    8    9 1
    17    9   10 2
    18    9   11 am
    19   11   12 1
    20   11   15 1
    21   12   13 2
    22   12   14 1
    23   15   16 1
    24   15   25 1
    25   15   26 1
    26   16   17 1
    27   16   27 1
    28   16   28 1
    29   17   18 2
    30   17   29 1
@<TRIPOS>MOLECULE
ZINC13163156
   19    20     0     0     0
SMALL
USER_CHARGES
(5E)-5-(4-pyridylmethylene)-2-sulfanyl-thiazol-4-one
@<TRIPOS>ATOM
      1 C1         -1.0859    2.0678   -0.9264 C.ar      1 <0>        -0.1000
      2 C2          0.1178    1.3959   -0.9741 C.ar      1 <0>         0.0901
      3 N1          1.1309    1.7647   -0.2139 N.ar      1 <0>        -0.4855
      4 C3          1.0457    2.7790    0.6253 C.ar      1 <0>         0.0827
      5 C4         -0.1209    3.5054    0.7436 C.ar      1 <0>        -0.1550
      6 C5         -1.2251    3.1499   -0.0448 C.ar      1 <0>        -0.0187
      7 C6         -2.4911    3.8944    0.0458 C.2       1 <0>        -0.0116
      8 C7         -3.6714    3.2372   -0.0486 C.2       1 <0>        -0.1872
      9 C8         -3.9487    1.7775   -0.0757 C.2       1 <0>         0.5285
     10 O1         -3.0545    0.9504   -0.0087 O.3       1 <0>        -0.4829
     11 N2         -5.2110    1.4281   -0.1754 N.2       1 <0>        -0.6449
     12 C9         -6.1914    2.3164   -0.2485 C.2       1 <0>         0.4259
     13 S1         -5.3354    3.8818   -0.1680 S.3       1 <0>        -0.1596
     14 S2         -7.9236    2.0237   -0.3847 S.2       1 <0>        -0.6060
     15 H1         -1.9094    1.7632   -1.5552 H         1 <0>         0.1366
     16 H2          0.2339    0.5589   -1.6466 H         1 <0>         0.1541
     17 H3          1.9017    3.0446    1.2279 H         1 <0>         0.1530
     18 H4         -0.1830    4.3350    1.4323 H         1 <0>         0.1346
     19 H5         -2.4788    4.9848    0.1902 H         1 <0>         0.1458
@<TRIPOS>BOND
     1    1    6 ar
     2    1    2 ar
     3    1   15 1
     4    2    3 ar
     5    2   16 1
     6    3    4 ar
     7    4    5 ar
     8    4   17 1
     9    5    6 ar
    10    5   18 1
    11    6    7 1
    12    7    8 2
    13    7   19 1
    14    8   13 1
    15    8    9 1
    16    9   10 1
    17    9   11 2
    18   11   12 1
    19   12   13 1
    20   12   14 2
@<TRIPOS>MOLECULE
ZINC35653092
   32    33     0     0     0
SMALL
USER_CHARGES

@<TRIPOS>ATOM
      1 C1         -0.0169    1.3936    0.0097 C.ar      1 <0>        -0.0945
      2 C2          1.1682    2.0965    0.0022 C.ar      1 <0>        -0.1440
      3 C3          2.3804    1.4185   -0.0131 C.ar      1 <0>         0.0972
      4 C4          2.4043    0.0297   -0.0212 C.ar      1 <0>        -0.1407
      5 C5          1.2244   -0.6820   -0.0142 C.ar      1 <0>        -0.0990
      6 C6          0.0021   -0.0041    0.0020 C.ar      1 <0>        -0.0543
      7 C7         -1.2624   -0.7604    0.0105 C.2       1 <0>        -0.1216
      8 C8         -1.2417   -2.1029    0.0031 C.2       1 <0>        -0.0825
      9 C9         -2.5067   -2.8595    0.0116 C.ar      1 <0>        -0.0389
     10 C10        -3.7284   -2.1820    0.0216 C.ar      1 <0>        -0.1411
     11 C11        -4.9138   -2.8972    0.0296 C.ar      1 <0>         0.1180
     12 C12        -4.8898   -4.2848    0.0277 C.ar      1 <0>        -0.1294
     13 C13        -3.6790   -4.9623    0.0183 C.ar      1 <0>         0.1364
     14 C14        -2.4878   -4.2560    0.0039 C.ar      1 <0>        -0.1179
     15 O1         -3.6619   -6.3212    0.0174 O.3       1 <0>        -0.7109
     16 S1         -3.6646   -6.9394   -1.3734 S.o2      1 <0>         2.7531
     17 O2         -4.0060   -8.3440   -1.2107 O.2       1 <0>        -1.0579
     18 O3         -4.6637   -6.2240   -2.1518 O.2       1 <0>        -1.0778
     19 O4         -2.3261   -6.7649   -1.9158 O.3       1 <0>        -1.0750
     20 O5         -6.1029   -2.2393    0.0398 O.3       1 <0>        -0.4963
     21 O6          3.5463    2.1158   -0.0204 O.3       1 <0>        -0.5007
     22 H1         -0.9588    1.9217    0.0260 H         1 <0>         0.1294
     23 H2          1.1546    3.1764    0.0077 H         1 <0>         0.1281
     24 H3          3.3492   -0.4932   -0.0334 H         1 <0>         0.1294
     25 H4          1.2440   -1.7618   -0.0209 H         1 <0>         0.1331
     26 H5         -2.2059   -0.2349    0.0227 H         1 <0>         0.1261
     27 H6         -0.2983   -2.6284   -0.0091 H         1 <0>         0.1281
     28 H7         -3.7481   -1.1022    0.0234 H         1 <0>         0.1351
     29 H8         -5.8166   -4.8392    0.0340 H         1 <0>         0.1425
     30 H9         -1.5459   -4.7841   -0.0083 H         1 <0>         0.1450
     31 H10        -6.4539   -2.0475   -0.8406 H         1 <0>         0.3925
     32 H11         3.8923    2.3129    0.8608 H         1 <0>         0.3885
@<TRIPOS>BOND
     1    1    6 ar
     2    1    2 ar
     3    1   22 1
     4    2    3 ar
     5    2   23 1
     6    3    4 ar
     7    3   21 1
     8    4    5 ar
     9    4   24 1
    10    5    6 ar
    11    5   25 1
    12    6    7 1
    13    7    8 2
    14    7   26 1
    15    8    9 1
    16    8   27 1
    17    9   14 ar
    18    9   10 ar
    19   10   11 ar
    20   10   28 1
    21   11   12 ar
    22   11   20 1
    23   12   13 ar
    24   12   29 1
    25   13   14 ar
    26   13   15 1
    27   14   30 1
    28   15   16 1
    29   16   17 2
    30   16   18 2
    31   16   19 1
    32   20   31 1
    33   21   32 1
@<TRIPOS>MOLECULE
ZINC16991207
   25    26     0     0     0
SMALL
USER_CHARGES
(5Z)-5-[(4-hydroxy-3-methoxy-phenyl)methylene]-2-thioxo-thiazolidin-4-one
@<TRIPOS>ATOM
      1 C1         -2.0684    0.1679    1.8185 C.3       1 <0>         0.0219
      2 O1         -2.0981    1.5725    1.5572 O.3       1 <0>        -0.3090
      3 C2         -0.9695    2.1285    1.0410 C.ar      1 <0>         0.0813
      4 C3          0.1370    1.3403    0.7932 C.ar      1 <0>        -0.1475
      5 C4          1.2952    1.9153    0.2558 C.ar      1 <0>        -0.0708
      6 C5          1.3264    3.2874   -0.0217 C.ar      1 <0>        -0.0935
      7 C6          0.2196    4.0665    0.2343 C.ar      1 <0>        -0.1762
      8 C7         -0.9284    3.4949    0.7667 C.ar      1 <0>         0.1363
      9 O2         -2.0169    4.2686    1.0160 O.3       1 <0>        -0.5000
     10 C8          2.4732    1.0819   -0.0163 C.2       1 <0>        -0.0010
     11 C9          3.5273    1.5984   -0.6980 C.2       1 <0>        -0.1996
     12 C10         4.8660    1.0234   -0.9381 C.2       1 <0>         0.5283
     13 O3          5.1788   -0.0706   -0.5061 O.3       1 <0>        -0.5028
     14 N1          5.7079    1.7575   -1.6459 N.2       1 <0>        -0.6497
     15 C11         5.3573    2.9692   -2.1227 C.2       1 <0>         0.3751
     16 S1          6.2964    4.0591   -3.0507 S.2       1 <0>        -0.5704
     17 S2          3.6738    3.1585   -1.5584 S.3       1 <0>        -0.1395
     18 H1         -3.0378   -0.1489    2.2307 H         1 <0>         0.0993
     19 H2         -1.2715   -0.0533    2.5438 H         1 <0>         0.0554
     20 H3         -1.8730   -0.3752    0.8821 H         1 <0>         0.0555
     21 H4          0.1077    0.2825    1.0091 H         1 <0>         0.1386
     22 H5          2.2179    3.7347   -0.4359 H         1 <0>         0.1504
     23 H6          0.2446    5.1247    0.0199 H         1 <0>         0.1380
     24 H7         -1.9864    5.3468    0.8002 H         1 <0>         0.4301
     25 H8          2.5014    0.0390    0.3323 H         1 <0>         0.1499
@<TRIPOS>BOND
     1    1    2 1
     2    1   18 1
     3    1   19 1
     4    1   20 1
     5    2    3 1
     6    3    8 ar
     7    3    4 ar
     8    4    5 ar
     9    4   21 1
    10    5    6 ar
    11    5   10 1
    12    6    7 ar
    13    6   22 1
    14    7    8 ar
    15    7   23 1
    16    8    9 1
    17    9   24 1
    18   10   11 2
    19   10   25 1
    20   11   17 1
    21   11   12 1
    22   12   13 1
    23   12   14 2
    24   14   15 1
    25   15   16 2
    26   15   17 1
@<TRIPOS>MOLECULE
ZINC12504504
   25    27     0     0     0
SMALL
USER_CHARGES

@<TRIPOS>ATOM
      1 C1         -0.0473    1.4221   -0.0218 C.ar      1 <0>        -0.0865
      2 C2          1.0965    2.1499    0.0169 C.ar      1 <0>        -0.0705
      3 C3          2.3417    1.5037    0.1339 C.ar      1 <0>         0.0924
      4 C4          2.3943    0.0879    0.2112 C.ar      1 <0>         0.0696
      5 C5          1.2028   -0.6508    0.1694 C.ar      1 <0>        -0.0318
      6 C6         -0.0103    0.0153    0.0540 C.ar      1 <0>        -0.0732
      7 C7         -1.2631   -0.7516    0.0106 C.2       1 <0>         0.0722
      8 C8         -2.3932   -0.1774   -0.4715 C.2       1 <0>        -0.2060
      9 C9         -3.7827   -0.6841   -0.4702 C.2       1 <0>         0.5617
     10 O1         -4.0688   -1.7655    0.0083 O.2       1 <0>        -0.4650
     11 N1         -4.6981    0.0991   -1.0157 N.am      1 <0>        -0.6847
     12 C10        -4.3764    1.2969   -1.5449 C.2       1 <0>         0.5378
     13 O2         -5.1100    2.1103   -2.0734 O.2       1 <0>        -0.4132
     14 S1         -2.6144    1.4035   -1.2762 S.3       1 <0>        -0.0330
     15 N2          3.5796   -0.5245    0.3233 N.ar      1 <0>        -0.4191
     16 C11         4.6807    0.1901    0.3607 C.ar      1 <0>         0.0812
     17 C12         4.6286    1.5839    0.2851 C.ar      1 <0>         0.0889
     18 N3          3.4779    2.2078    0.1738 N.ar      1 <0>        -0.4255
     19 H1         -0.9982    1.9269   -0.1071 H         1 <0>         0.1480
     20 H2          1.0520    3.2273   -0.0426 H         1 <0>         0.1493
     21 H3          1.2285   -1.7289    0.2270 H         1 <0>         0.1534
     22 H4         -1.2838   -1.7724    0.3626 H         1 <0>         0.1703
     23 H5         -5.6222   -0.1950   -1.0358 H         1 <0>         0.4226
     24 H6          5.6363   -0.3050    0.4512 H         1 <0>         0.1808
     25 H7          5.5447    2.1550    0.3181 H         1 <0>         0.1805
@<TRIPOS>BOND
     1    1    6 ar
     2    1    2 ar
     3    1   19 1
     4    2    3 ar
     5    2   20 1
     6    3   18 ar
     7    3    4 ar
     8    4    5 ar
     9    4   15 ar
    10    5    6 ar
    11    5   21 1
    12    6    7 1
    13    7    8 2
    14    7   22 1
    15    8   14 1
    16    8    9 1
    17    9   10 2
    18    9   11 am
    19   11   12 am
    20   11   23 1
    21   12   13 2
    22   12   14 1
    23   15   16 ar
    24   16   17 ar
    25   16   24 1
    26   17   18 ar
    27   17   25 1
