@<TRIPOS>MOLECULE
ZINC00597013
   58    61     0     0     0
SMALL
USER_CHARGES

@<TRIPOS>ATOM
      1 C1         -0.0173    1.4248    0.0099 C.3       1 <0>         0.0208
      2 O1          0.0021   -0.0041    0.0020 O.3       1 <0>        -0.2950
      3 C2          0.6051   -0.6064   -1.0545 C.ar      1 <0>         0.1532
      4 C3          1.1721    0.1632   -2.0609 C.ar      1 <0>        -0.1821
      5 C4          1.7866   -0.4410   -3.1387 C.ar      1 <0>        -0.0371
      6 C5          1.8416   -1.8340   -3.2219 C.ar      1 <0>        -0.2044
      7 C6          1.2663   -2.6106   -2.2012 C.ar      1 <0>        -0.1044
      8 C7          0.6597   -1.9984   -1.1254 C.ar      1 <0>         0.0877
      9 O2          0.1088   -2.7516   -0.1361 O.3       1 <0>        -0.3011
     10 C8          0.2013   -4.1710   -0.2735 C.3       1 <0>         0.0231
     11 C9          2.5389   -2.2531   -4.4456 C.2       1 <0>         0.4182
     12 O3          2.7420   -3.3976   -4.7923 O.2       1 <0>        -0.4477
     13 C10         2.9584   -1.0129   -5.1966 C.3       1 <0>        -0.1391
     14 H1          4.0434   -0.9806   -5.2959 H         1 <0>         0.1138
     15 C11         2.4673    0.1645   -4.3432 C.3       1 <0>        -0.0780
     16 C12         2.2994   -0.9808   -6.5770 C.3       1 <0>        -0.0982
     17 C13         2.8476   -2.1260   -7.4307 C.3       1 <0>        -0.1155
     18 C14         4.3380   -1.8972   -7.6982 C.3       1 <0>        -0.1415
     19 C15         4.8612   -3.0029   -8.6175 C.3       1 <0>        -0.0066
     20 N1          4.1252   -2.9777   -9.8872 N.4       1 <0>        -0.3801
     21 C16         2.7066   -3.2675   -9.6464 C.3       1 <0>        -0.0118
     22 C17         2.1004   -2.1720   -8.7666 C.3       1 <0>        -0.1383
     23 C18         4.6828   -3.9891  -10.7949 C.3       1 <0>         0.0438
     24 C19         4.0113   -3.8820  -12.1398 C.ar      1 <0>        -0.1605
     25 C20         2.8641   -4.6083  -12.3993 C.ar      1 <0>        -0.0978
     26 C21         2.2481   -4.5101  -13.6329 C.ar      1 <0>        -0.1135
     27 C22         2.7790   -3.6851  -14.6068 C.ar      1 <0>        -0.0847
     28 C23         3.9256   -2.9580  -14.3470 C.ar      1 <0>        -0.1130
     29 C24         4.5392   -3.0530  -13.1119 C.ar      1 <0>        -0.0942
     30 H2          1.0053    1.8021    0.0021 H         1 <0>         0.0608
     31 H3         -0.5445    1.7859   -0.8732 H         1 <0>         0.0604
     32 H4         -0.5275    1.7763    0.9067 H         1 <0>         0.1088
     33 H5          1.1317    1.2407   -2.0004 H         1 <0>         0.1449
     34 H6          1.3038   -3.6885   -2.2575 H         1 <0>         0.1426
     35 H7         -0.2763   -4.6506    0.5809 H         1 <0>         0.1075
     36 H8         -0.2996   -4.4806   -1.1908 H         1 <0>         0.0566
     37 H9          1.2502   -4.4644   -0.3155 H         1 <0>         0.0572
     38 H10         1.7583    0.7678   -4.9101 H         1 <0>         0.0961
     39 H11         3.3123    0.7764   -4.0277 H         1 <0>         0.0964
     40 H12         1.2208   -1.0934   -6.4674 H         1 <0>         0.0800
     41 H13         2.5179   -0.0293   -7.0618 H         1 <0>         0.0849
     42 H14         2.7114   -3.0706   -6.9042 H         1 <0>         0.1081
     43 H15         4.4772   -0.9286   -8.1782 H         1 <0>         0.0886
     44 H16         4.8846   -1.9188   -6.7553 H         1 <0>         0.1118
     45 H17         5.9222   -2.8432   -8.8098 H         1 <0>         0.1305
     46 H18         4.7218   -3.9711   -8.1364 H         1 <0>         0.1303
     47 H19         2.1768   -3.3031  -10.5983 H         1 <0>         0.1310
     48 H20         2.6131   -4.2300   -9.1434 H         1 <0>         0.1282
     49 H21         1.0476   -2.3899   -8.5875 H         1 <0>         0.1106
     50 H22         2.1932   -1.2090   -9.2688 H         1 <0>         0.0874
     51 H23         5.7540   -3.8234  -10.9095 H         1 <0>         0.1365
     52 H24         4.5111   -4.9828  -10.3812 H         1 <0>         0.1348
     53 H25         2.4494   -5.2529  -11.6384 H         1 <0>         0.1308
     54 H26         1.3522   -5.0781  -13.8359 H         1 <0>         0.1360
     55 H27         2.2981   -3.6088  -15.5708 H         1 <0>         0.1358
     56 H28         4.3405   -2.3138  -15.1080 H         1 <0>         0.1360
     57 H29         5.4329   -2.4822  -12.9076 H         1 <0>         0.1309
     58 H30         4.2142   -2.0651  -10.3083 H         1 <0>         0.4207
@<TRIPOS>BOND
     1    1    2 1
     2    1   30 1
     3    1   31 1
     4    1   32 1
     5    2    3 1
     6    3    8 ar
     7    3    4 ar
     8    4    5 ar
     9    4   33 1
    10    5   15 1
    11    5    6 ar
    12    6    7 ar
    13    6   11 1
    14    7    8 ar
    15    7   34 1
    16    8    9 1
    17    9   10 1
    18   10   35 1
    19   10   36 1
    20   10   37 1
    21   11   12 2
    22   11   13 1
    23   13   14 1
    24   13   15 1
    25   13   16 1
    26   15   38 1
    27   15   39 1
    28   16   17 1
    29   16   40 1
    30   16   41 1
    31   17   22 1
    32   17   18 1
    33   17   42 1
    34   18   19 1
    35   18   43 1
    36   18   44 1
    37   19   20 1
    38   19   45 1
    39   19   46 1
    40   20   21 1
    41   20   23 1
    42   20   58 1
    43   21   22 1
    44   21   47 1
    45   21   48 1
    46   22   49 1
    47   22   50 1
    48   23   24 1
    49   23   51 1
    50   23   52 1
    51   24   29 ar
    52   24   25 ar
    53   25   26 ar
    54   25   53 1
    55   26   27 ar
    56   26   54 1
    57   27   28 ar
    58   27   55 1
    59   28   29 ar
    60   28   56 1
    61   29   57 1
@<TRIPOS>MOLECULE
ZINC00897251
   58    61     0     0     0
SMALL
USER_CHARGES

@<TRIPOS>ATOM
      1 C1         -0.4000    2.7928   -9.4111 C.3       1 <0>         0.0217
      2 O1         -0.3921    3.3043   -8.0768 O.3       1 <0>        -0.2952
      3 C2          0.2864    2.5865   -7.1456 C.ar      1 <0>         0.1496
      4 C3          0.9365    1.4157   -7.5106 C.ar      1 <0>        -0.1810
      5 C4          1.6280    0.6797   -6.5702 C.ar      1 <0>        -0.0432
      6 C5          1.6776    1.1109   -5.2428 C.ar      1 <0>        -0.1980
      7 C6          1.0179    2.2969   -4.8763 C.ar      1 <0>        -0.1053
      8 C7          0.3345    3.0288   -5.8236 C.ar      1 <0>         0.0903
      9 O2         -0.2981    4.1789   -5.4680 O.3       1 <0>        -0.3013
     10 C8         -0.2072    4.5722   -4.0972 C.3       1 <0>         0.0223
     11 C9          2.4645    0.1785   -4.4238 C.2       1 <0>         0.4126
     12 O3          2.6844    0.2862   -3.2359 O.2       1 <0>        -0.4369
     13 C10         2.9517   -0.9365   -5.3169 C.3       1 <0>        -0.1385
     14 H1          2.5591   -1.8938   -4.9740 H         1 <0>         0.1136
     15 C11         2.4055   -0.6071   -6.7129 C.3       1 <0>        -0.0752
     16 C12         4.4812   -0.9687   -5.3380 C.3       1 <0>        -0.1018
     17 C13         4.9548   -2.1846   -6.1369 C.3       1 <0>        -0.0999
     18 C14         4.5565   -3.4674   -5.4014 C.3       1 <0>        -0.1473
     19 C15         5.1018   -4.6765   -6.1643 C.3       1 <0>        -0.0062
     20 N1          6.5650   -4.5904   -6.2436 N.4       1 <0>        -0.3817
     21 C16         6.9530   -3.4000   -7.0098 C.3       1 <0>        -0.0117
     22 C17         6.4789   -2.1417   -6.2794 C.3       1 <0>        -0.1414
     23 C18         7.0894   -5.7910   -6.9081 C.3       1 <0>         0.0445
     24 C19         8.5959   -5.7625   -6.8811 C.ar      1 <0>        -0.1617
     25 C20         9.2944   -5.1622   -7.9119 C.ar      1 <0>        -0.0980
     26 C21        10.6763   -5.1361   -7.8871 C.ar      1 <0>        -0.1136
     27 C22        11.3596   -5.7098   -6.8313 C.ar      1 <0>        -0.0841
     28 C23        10.6611   -6.3093   -5.8000 C.ar      1 <0>        -0.1126
     29 C24         9.2791   -6.3317   -5.8227 C.ar      1 <0>        -0.0940
     30 H2          0.6233    2.7264   -9.7808 H         1 <0>         0.0592
     31 H3         -0.8537    1.8018   -9.4176 H         1 <0>         0.0598
     32 H4         -0.9755    3.4601  -10.0527 H         1 <0>         0.1082
     33 H5          0.9006    1.0787   -8.5360 H         1 <0>         0.1432
     34 H6          1.0506    2.6377   -3.8520 H         1 <0>         0.1438
     35 H7         -0.7539    5.5035   -3.9494 H         1 <0>         0.1078
     36 H8         -0.6376    3.7942   -3.4667 H         1 <0>         0.0580
     37 H9          0.8393    4.7188   -3.8299 H         1 <0>         0.0577
     38 H10         1.7480   -1.4060   -7.0558 H         1 <0>         0.0927
     39 H11         3.2285   -0.4716   -7.4146 H         1 <0>         0.0925
     40 H12         4.8574   -0.0583   -5.8047 H         1 <0>         0.0823
     41 H13         4.8574   -1.0358   -4.3172 H         1 <0>         0.0822
     42 H14         4.4958   -2.1724   -7.1255 H         1 <0>         0.0950
     43 H15         4.9736   -3.4540   -4.3944 H         1 <0>         0.0914
     44 H16         3.4699   -3.5323   -5.3452 H         1 <0>         0.1144
     45 H17         4.8199   -5.5916   -5.6435 H         1 <0>         0.1311
     46 H18         4.6840   -4.6890   -7.1710 H         1 <0>         0.1295
     47 H19         8.0378   -3.3726   -7.1131 H         1 <0>         0.1315
     48 H20         6.4957   -3.4397   -7.9984 H         1 <0>         0.1282
     49 H21         6.7664   -1.2591   -6.8507 H         1 <0>         0.1129
     50 H22         6.9359   -2.1009   -5.2906 H         1 <0>         0.0893
     51 H23         6.7334   -6.6795   -6.3867 H         1 <0>         0.1365
     52 H24         6.7449   -5.8138   -7.9420 H         1 <0>         0.1348
     53 H25         8.7606   -4.7139   -8.7368 H         1 <0>         0.1306
     54 H26        11.2221   -4.6677   -8.6928 H         1 <0>         0.1361
     55 H27        12.4393   -5.6901   -6.8123 H         1 <0>         0.1360
     56 H28        11.1949   -6.7579   -4.9753 H         1 <0>         0.1363
     57 H29         8.7332   -6.7968   -5.0151 H         1 <0>         0.1311
     58 H30         6.9482   -4.5293   -5.3123 H         1 <0>         0.4220
@<TRIPOS>BOND
     1    1    2 1
     2    1   30 1
     3    1   31 1
     4    1   32 1
     5    2    3 1
     6    3    8 ar
     7    3    4 ar
     8    4    5 ar
     9    4   33 1
    10    5   15 1
    11    5    6 ar
    12    6    7 ar
    13    6   11 1
    14    7    8 ar
    15    7   34 1
    16    8    9 1
    17    9   10 1
    18   10   35 1
    19   10   36 1
    20   10   37 1
    21   11   12 2
    22   11   13 1
    23   13   14 1
    24   13   15 1
    25   13   16 1
    26   15   38 1
    27   15   39 1
    28   16   17 1
    29   16   40 1
    30   16   41 1
    31   17   22 1
    32   17   18 1
    33   17   42 1
    34   18   19 1
    35   18   43 1
    36   18   44 1
    37   19   20 1
    38   19   45 1
    39   19   46 1
    40   20   21 1
    41   20   23 1
    42   20   58 1
    43   21   22 1
    44   21   47 1
    45   21   48 1
    46   22   49 1
    47   22   50 1
    48   23   24 1
    49   23   51 1
    50   23   52 1
    51   24   29 ar
    52   24   25 ar
    53   25   26 ar
    54   25   53 1
    55   26   27 ar
    56   26   54 1
    57   27   28 ar
    58   27   55 1
    59   28   29 ar
    60   28   56 1
    61   29   57 1
@<TRIPOS>MOLECULE
ZINC00016827
   30    32     0     0     0
SMALL
USER_CHARGES
1,2,3,4-tetrahydroacridin-9-amine
@<TRIPOS>ATOM
      1 C1         -2.2590   -4.1734    0.7266 C.ar      1 <0>        -0.1151
      2 C2         -1.1015   -4.8453    0.3414 C.ar      1 <0>        -0.0282
      3 C3          0.0181   -4.1626   -0.0240 C.ar      1 <0>        -0.1547
      4 C4          0.0125   -2.7569   -0.0146 C.ar      1 <0>         0.1855
      5 C5         -1.1660   -2.0778    0.3770 C.ar      1 <0>        -0.1377
      6 C6         -2.3011   -2.8116    0.7474 C.ar      1 <0>        -0.0565
      7 C7         -1.1623   -0.6653    0.3817 C.ar      1 <0>         0.3675
      8 C8          0.0021   -0.0041    0.0020 C.ar      1 <0>        -0.2105
      9 C9          1.1175   -0.7361   -0.3646 C.ar      1 <0>         0.2712
     10 C10         2.4120   -0.0754   -0.7701 C.3       1 <0>        -0.1168
     11 C11         2.1762    1.3865   -1.1417 C.3       1 <0>        -0.1213
     12 C12         1.4039    2.0583   -0.0003 C.3       1 <0>        -0.1267
     13 C13        -0.0183    1.5015    0.0103 C.3       1 <0>        -0.0727
     14 N1         -2.2920    0.0458    0.7563 N.pl3     1 <0>        -0.7940
     15 H1         -3.1340   -4.7385    1.0119 H         1 <0>         0.1511
     16 H2         -1.0919   -5.9252    0.3327 H         1 <0>         0.1529
     17 H3          0.9072   -4.6991   -0.3207 H         1 <0>         0.1539
     18 H4         -3.2041   -2.3007    1.0473 H         1 <0>         0.1465
     19 H5          3.1167   -0.1260    0.0600 H         1 <0>         0.1184
     20 H6          2.8304   -0.6013   -1.6283 H         1 <0>         0.1086
     21 H7          3.1338    1.8881   -1.2812 H         1 <0>         0.0939
     22 H8          1.5929    1.4414   -2.0609 H         1 <0>         0.0797
     23 H9          1.3752    3.1361   -0.1607 H         1 <0>         0.0897
     24 H10         1.8906    1.8408    0.9505 H         1 <0>         0.0760
     25 H11        -0.5506    1.8586   -0.8713 H         1 <0>         0.0921
     26 H12        -0.5337    1.8490    0.9057 H         1 <0>         0.0852
     27 H13        -2.2768    1.0157    0.7558 H         1 <0>         0.4265
     28 H14        -3.0975   -0.4265    1.0190 H         1 <0>         0.4221
     29 N2          1.1637   -2.1007   -0.3898 N.ar      1 <0>        -0.5514
     30 H15         2.0097   -2.6092   -0.6727 H         1 <0>         0.4649
@<TRIPOS>BOND
     1    1    6 ar
     2    1    2 ar
     3    1   15 1
     4    2    3 ar
     5    2   16 1
     6    3    4 ar
     7    3   17 1
     8    4    5 ar
     9    4   29 ar
    10    5    6 ar
    11    5    7 ar
    12    6   18 1
    13    7    8 ar
    14    7   14 1
    15    8   13 1
    16    8    9 ar
    17    9   10 1
    18    9   29 ar
    19   10   11 1
    20   10   19 1
    21   10   20 1
    22   11   12 1
    23   11   21 1
    24   11   22 1
    25   12   13 1
    26   12   23 1
    27   12   24 1
    28   13   25 1
    29   13   26 1
    30   14   27 1
    31   14   28 1
    32   29   30 1
