@<TRIPOS>MOLECULE
ZINC14210455
   82    84     0     0     0
SMALL
USER_CHARGES
(1S,4S,5R)-N-[(1S)-3-amino-1-(cyclobutylmethyl)-2,3-dioxo-propyl]-3-[(2S)-2-(tert-butylcarbamoylamino)-3,3-dimethyl-butanoyl]-6,6-dimethyl-3-azabicyclo[3.1.0]hexane-4-carboxamide
@<TRIPOS>ATOM
      1 C1          7.5547    3.7597   -5.7148 C.3       1 <0>        -0.1152
      2 C2          6.7695    2.5173   -5.2894 C.3       1 <0>        -0.0741
      3 C3          7.5571    1.3671   -4.6589 C.3       1 <0>        -0.1632
      4 H1          8.6239    1.4864   -4.4697 H         1 <0>         0.1311
      5 C4          6.9948    1.2327   -6.0894 C.3       1 <0>        -0.1680
      6 H2          7.6217    1.2576   -6.9807 H         1 <0>         0.1330
      7 C5          5.9282    0.1204   -5.9955 C.3       1 <0>         0.1486
      8 H3          5.0773    0.3549   -6.6351 H         1 <0>         0.1160
      9 N1          5.5182    0.1148   -4.5719 N.am      1 <0>        -0.5957
     10 C6          6.7800    0.3307   -3.8263 C.3       1 <0>         0.1194
     11 C7          4.2779   -0.0447   -4.0693 C.2       1 <0>         0.5481
     12 O1          3.3273   -0.1336   -4.8173 O.2       1 <0>        -0.5286
     13 C8          4.0721   -0.1127   -2.5780 C.3       1 <0>         0.1656
     14 H4          4.8141    0.5115   -2.0800 H         1 <0>         0.1084
     15 C9          4.2251   -1.5604   -2.1075 C.3       1 <0>        -0.0694
     16 C10         3.2264   -2.4474   -2.8537 C.3       1 <0>        -0.1403
     17 C11         5.6487   -2.0422   -2.3943 C.3       1 <0>        -0.1574
     18 C12         3.9532   -1.6395   -0.6039 C.3       1 <0>        -0.1272
     19 N2          2.7284    0.3687   -2.2480 N.am      1 <0>        -0.7322
     20 C13         2.4755    0.8754   -1.0250 C.2       1 <0>         0.7121
     21 O2          3.3627    0.9332   -0.1956 O.2       1 <0>        -0.5780
     22 N3          1.2393    1.3182   -0.7214 N.am      1 <0>        -0.7387
     23 C14         0.9645    1.8691    0.6079 C.3       1 <0>         0.1880
     24 C15         1.8625    3.0835    0.8524 C.3       1 <0>        -0.1642
     25 C16         1.2467    0.8041    1.6696 C.3       1 <0>        -0.1648
     26 C17        -0.5028    2.2950    0.6902 C.3       1 <0>        -0.1564
     27 C18         6.5198   -1.2120   -6.3772 C.2       1 <0>         0.5210
     28 O3          6.9125   -1.9702   -5.5160 O.2       1 <0>        -0.5174
     29 N4          6.6125   -1.5609   -7.6757 N.am      1 <0>        -0.7115
     30 C19         7.1876   -2.8562   -8.0469 C.3       1 <0>         0.1363
     31 H5          6.9412   -3.5395   -7.3596 H         1 <0>         0.1154
     32 C20         6.6419   -3.2846   -9.4105 C.3       1 <0>        -0.1133
     33 C21         5.1350   -3.5266   -9.3037 C.3       1 <0>        -0.1096
     34 C22         4.7697   -4.9571   -8.8735 C.3       1 <0>        -0.1375
     35 C23         3.6238   -4.8880   -9.8967 C.3       1 <0>        -0.1435
     36 C24         4.4651   -3.8448  -10.6508 C.3       1 <0>        -0.1352
     37 C25         8.6881   -2.7368   -8.1212 C.2       1 <0>         0.3395
     38 O4          9.2060   -1.6464   -8.1588 O.2       1 <0>        -0.4045
     39 C26         9.5331   -3.9648   -8.1483 C.2       1 <0>         0.4836
     40 O5          9.0127   -5.0605   -8.1105 O.2       1 <0>        -0.5030
     41 N5         10.8750   -3.8580   -8.2147 N.am      1 <0>        -0.8271
     42 C27         5.3587    2.7791   -4.7585 C.3       1 <0>        -0.1303
     43 H6          7.3035    4.0133   -6.7447 H         1 <0>         0.0646
     44 H7          7.2968    4.5936   -5.0620 H         1 <0>         0.0667
     45 H8          8.6232    3.5572   -5.6407 H         1 <0>         0.0609
     46 H9          6.5711    0.7236   -2.8312 H         1 <0>         0.0874
     47 H10         7.3449   -0.5990   -3.7579 H         1 <0>         0.1045
     48 H11         3.4201   -2.3911   -3.9248 H         1 <0>         0.0553
     49 H12         3.3354   -3.4789   -2.5185 H         1 <0>         0.0577
     50 H13         2.2123   -2.1042   -2.6493 H         1 <0>         0.0557
     51 H14         6.3625   -1.3722   -1.9151 H         1 <0>         0.0571
     52 H15         5.7770   -3.0508   -2.0015 H         1 <0>         0.0613
     53 H16         5.8207   -2.0468   -3.4706 H         1 <0>         0.0773
     54 H17         2.9390   -1.2963   -0.3995 H         1 <0>         0.0552
     55 H18         4.0622   -2.6709   -0.2687 H         1 <0>         0.0494
     56 H19         4.6646   -1.0076   -0.0723 H         1 <0>         0.0674
     57 H20         2.0206    0.3226   -2.9097 H         1 <0>         0.4036
     58 H21         0.5316    1.2722   -1.3832 H         1 <0>         0.3948
     59 H22         2.9078    2.7801    0.7938 H         1 <0>         0.0809
     60 H23         1.6614    3.8422    0.0961 H         1 <0>         0.0514
     61 H24         1.6580    3.4933    1.8415 H         1 <0>         0.0616
     62 H25         1.0422    1.2140    2.6587 H         1 <0>         0.0615
     63 H26         0.6070   -0.0610    1.4954 H         1 <0>         0.0517
     64 H27         2.2920    0.5008    1.6110 H         1 <0>         0.0817
     65 H28        -0.7038    3.0536   -0.0662 H         1 <0>         0.0615
     66 H29        -1.1425    1.4298    0.5160 H         1 <0>         0.0617
     67 H30        -0.7072    2.7048    1.6793 H         1 <0>         0.0750
     68 H31         6.2984   -0.9545   -8.3646 H         1 <0>         0.4082
     69 H32         6.8328   -2.4988  -10.1414 H         1 <0>         0.0782
     70 H33         7.1359   -4.2032   -9.7272 H         1 <0>         0.0955
     71 H34         4.6215   -2.7530   -8.7327 H         1 <0>         0.0937
     72 H35         5.5322   -5.6956   -9.1211 H         1 <0>         0.0859
     73 H36         4.4291   -5.0289   -7.8406 H         1 <0>         0.0666
     74 H37         2.6963   -4.4876   -9.4872 H         1 <0>         0.0793
     75 H38         3.4761   -5.8141  -10.4521 H         1 <0>         0.0684
     76 H39         3.8786   -3.0186  -11.0528 H         1 <0>         0.0680
     77 H40         5.1443   -4.2792  -11.3844 H         1 <0>         0.0824
     78 H41        11.2910   -2.9823   -8.2450 H         1 <0>         0.4112
     79 H42        11.4248   -4.6570   -8.2324 H         1 <0>         0.4115
     80 H43         5.0653    1.9686   -4.0914 H         1 <0>         0.0673
     81 H44         5.3453    3.7222   -4.2122 H         1 <0>         0.0592
     82 H45         4.6604    2.8330   -5.5937 H         1 <0>         0.0591
@<TRIPOS>BOND
     1    1    2 1
     2    1   43 1
     3    1   44 1
     4    1   45 1
     5    2    5 1
     6    2    3 1
     7    2   42 1
     8    3    4 1
     9    3   10 1
    10    3    5 1
    11    5    6 1
    12    5    7 1
    13    7    8 1
    14    7    9 1
    15    7   27 1
    16    9   10 1
    17    9   11 am
    18   10   46 1
    19   10   47 1
    20   11   12 2
    21   11   13 1
    22   13   14 1
    23   13   15 1
    24   13   19 1
    25   15   16 1
    26   15   17 1
    27   15   18 1
    28   16   48 1
    29   16   49 1
    30   16   50 1
    31   17   51 1
    32   17   52 1
    33   17   53 1
    34   18   54 1
    35   18   55 1
    36   18   56 1
    37   19   20 am
    38   19   57 1
    39   20   21 2
    40   20   22 am
    41   22   23 1
    42   22   58 1
    43   23   24 1
    44   23   25 1
    45   23   26 1
    46   24   59 1
    47   24   60 1
    48   24   61 1
    49   25   62 1
    50   25   63 1
    51   25   64 1
    52   26   65 1
    53   26   66 1
    54   26   67 1
    55   27   28 2
    56   27   29 am
    57   29   30 1
    58   29   68 1
    59   30   31 1
    60   30   32 1
    61   30   37 1
    62   32   33 1
    63   32   69 1
    64   32   70 1
    65   33   36 1
    66   33   34 1
    67   33   71 1
    68   34   35 1
    69   34   72 1
    70   34   73 1
    71   35   36 1
    72   35   74 1
    73   35   75 1
    74   36   76 1
    75   36   77 1
    76   37   38 2
    77   37   39 1
    78   39   40 2
    79   39   41 am
    80   41   78 1
    81   41   79 1
    82   42   80 1
    83   42   81 1
    84   42   82 1
@<TRIPOS>MOLECULE
ZINC14210457
   82    84     0     0     0
SMALL
USER_CHARGES
(1S,4S,5R)-N-[(1R)-3-amino-1-(cyclobutylmethyl)-2,3-dioxo-propyl]-3-[(2S)-2-(tert-butylcarbamoylamino)-3,3-dimethyl-butanoyl]-6,6-dimethyl-3-azabicyclo[3.1.0]hexane-4-carboxamide
@<TRIPOS>ATOM
      1 C1         -5.0761   -0.5653    0.0539 C.3       1 <0>        -0.1271
      2 C2         -4.3227   -0.4623   -1.2738 C.3       1 <0>        -0.0702
      3 C3         -4.0050    0.9399   -1.7972 C.3       1 <0>        -0.1607
      4 H1         -4.1151    1.1544   -2.8603 H         1 <0>         0.1296
      5 C4         -2.8446    0.0732   -1.2569 C.3       1 <0>        -0.1739
      6 H2         -2.0905   -0.3569   -1.9161 H         1 <0>         0.1336
      7 C5         -2.3530    0.8142    0.0052 C.3       1 <0>         0.1486
      8 H3         -2.0697    0.1006    0.7788 H         1 <0>         0.1160
      9 N1         -3.5159    1.6193    0.4459 N.am      1 <0>        -0.5961
     10 C6         -4.1100    2.1250   -0.8134 C.3       1 <0>         0.1165
     11 C7         -3.9377    1.8412    1.7066 C.2       1 <0>         0.5468
     12 O1         -3.3808    1.2977    2.6369 O.2       1 <0>        -0.5274
     13 C8         -5.1013    2.7646    1.9603 C.3       1 <0>         0.1659
     14 H4         -5.8084    2.6936    1.1339 H         1 <0>         0.1087
     15 C9         -4.5946    4.2037    2.0757 C.3       1 <0>        -0.0695
     16 C10        -3.9376    4.6202    0.7583 C.3       1 <0>        -0.1606
     17 C11        -5.7701    5.1357    2.3765 C.3       1 <0>        -0.1269
     18 C12        -3.5695    4.2942    3.2079 C.3       1 <0>        -0.1402
     19 N2         -5.7672    2.3799    3.2072 N.am      1 <0>        -0.7321
     20 C13        -7.0659    2.6849    3.3995 C.2       1 <0>         0.7121
     21 O2         -7.6848    3.2793    2.5381 O.2       1 <0>        -0.5780
     22 N3         -7.6785    2.3309    4.5466 N.am      1 <0>        -0.7387
     23 C14        -9.0901    2.6624    4.7556 C.3       1 <0>         0.1881
     24 C15        -9.9361    2.0013    3.6656 C.3       1 <0>        -0.1642
     25 C16        -9.5362    2.1519    6.1272 C.3       1 <0>        -0.1564
     26 C17        -9.2724    4.1802    4.6923 C.3       1 <0>        -0.1647
     27 C18        -1.1901    1.7116   -0.3318 C.2       1 <0>         0.5196
     28 O3         -1.3728    2.8954   -0.5219 O.2       1 <0>        -0.5184
     29 N4          0.0529    1.1985   -0.4219 N.am      1 <0>        -0.7090
     30 C19         1.1825    2.0698   -0.7554 C.3       1 <0>         0.1367
     31 H5          0.8808    2.7764   -1.3954 H         1 <0>         0.1154
     32 C20         2.2944    1.2392   -1.3995 C.3       1 <0>        -0.1135
     33 C21         1.8045    0.6816   -2.7374 C.3       1 <0>        -0.1057
     34 C22         1.0386   -0.6457   -2.6082 C.3       1 <0>        -0.1394
     35 C23         1.7713   -1.0999   -3.8837 C.3       1 <0>        -0.1419
     36 C24         2.8796   -0.1018   -3.5090 C.3       1 <0>        -0.1367
     37 C25         1.7040    2.7191    0.5006 C.2       1 <0>         0.3364
     38 O4          1.4546    2.2354    1.5788 O.2       1 <0>        -0.4020
     39 C26         2.5277    3.9587    0.4121 C.2       1 <0>         0.4842
     40 O5          2.7782    4.4448   -0.6713 O.2       1 <0>        -0.5042
     41 N5          2.9940    4.5395    1.5354 N.am      1 <0>        -0.8271
     42 C27        -4.6554   -1.5416   -2.3059 C.3       1 <0>        -0.1159
     43 H6         -6.0794   -0.9511   -0.1267 H         1 <0>         0.0612
     44 H7         -4.5423   -1.2401    0.7231 H         1 <0>         0.0597
     45 H8         -5.1432    0.4219    0.5111 H         1 <0>         0.0648
     46 H9         -5.1536    2.3989   -0.6582 H         1 <0>         0.0871
     47 H10        -3.5445    2.9801   -1.1839 H         1 <0>         0.1057
     48 H11        -4.6771    4.5905   -0.0419 H         1 <0>         0.0579
     49 H12        -3.5447    5.6326    0.8524 H         1 <0>         0.0604
     50 H13        -3.1229    3.9344    0.5258 H         1 <0>         0.0800
     51 H14        -6.2382    4.8389    3.3150 H         1 <0>         0.0557
     52 H15        -5.4092    6.1609    2.4587 H         1 <0>         0.0491
     53 H16        -6.5005    5.0712    1.5699 H         1 <0>         0.0671
     54 H17        -2.7320    3.6302    2.9936 H         1 <0>         0.0546
     55 H18        -3.2085    5.3194    3.2901 H         1 <0>         0.0569
     56 H19        -4.0375    3.9974    4.1465 H         1 <0>         0.0560
     57 H20        -5.2735    1.9057    3.8944 H         1 <0>         0.4037
     58 H21        -7.1848    1.8567    5.2338 H         1 <0>         0.3948
     59 H22        -9.8062    0.9200    3.7106 H         1 <0>         0.0514
     60 H23       -10.9863    2.2479    3.8211 H         1 <0>         0.0616
     61 H24        -9.6183    2.3650    2.6884 H         1 <0>         0.0809
     62 H25        -8.9335    2.6229    6.9038 H         1 <0>         0.0616
     63 H26       -10.5865    2.3986    6.2828 H         1 <0>         0.0750
     64 H27        -9.4064    1.0706    6.1723 H         1 <0>         0.0616
     65 H28        -8.9546    4.5439    3.7152 H         1 <0>         0.0818
     66 H29       -10.3226    4.4268    4.8479 H         1 <0>         0.0615
     67 H30        -8.6697    4.6512    5.4689 H         1 <0>         0.0516
     68 H31         0.1991    0.2517   -0.2698 H         1 <0>         0.4078
     69 H32         3.1681    1.8691   -1.5665 H         1 <0>         0.0945
     70 H33         2.5617    0.4149   -0.7383 H         1 <0>         0.0784
     71 H34         1.2882    1.4265   -3.3429 H         1 <0>         0.0962
     72 H35         1.3075   -1.2205   -1.7220 H         1 <0>         0.0807
     73 H36        -0.0389   -0.5422   -2.7360 H         1 <0>         0.0673
     74 H37         1.2450   -0.8431   -4.8030 H         1 <0>         0.0802
     75 H38         2.0940   -2.1408   -3.8574 H         1 <0>         0.0682
     76 H39         3.2862    0.4400   -4.3629 H         1 <0>         0.0697
     77 H40         3.6528   -0.5277   -2.8695 H         1 <0>         0.0819
     78 H41         2.7938    4.1510    2.4013 H         1 <0>         0.4113
     79 H42         3.5299    5.3459    1.4779 H         1 <0>         0.4114
     80 H43        -4.4625   -1.1581   -3.3078 H         1 <0>         0.0610
     81 H44        -4.0343   -2.4192   -2.1269 H         1 <0>         0.0652
     82 H45        -5.7066   -1.8164   -2.2182 H         1 <0>         0.0669
@<TRIPOS>BOND
     1    1    2 1
     2    1   43 1
     3    1   44 1
     4    1   45 1
     5    2    5 1
     6    2    3 1
     7    2   42 1
     8    3    4 1
     9    3   10 1
    10    3    5 1
    11    5    6 1
    12    5    7 1
    13    7    8 1
    14    7    9 1
    15    7   27 1
    16    9   10 1
    17    9   11 am
    18   10   46 1
    19   10   47 1
    20   11   12 2
    21   11   13 1
    22   13   14 1
    23   13   15 1
    24   13   19 1
    25   15   16 1
    26   15   17 1
    27   15   18 1
    28   16   48 1
    29   16   49 1
    30   16   50 1
    31   17   51 1
    32   17   52 1
    33   17   53 1
    34   18   54 1
    35   18   55 1
    36   18   56 1
    37   19   20 am
    38   19   57 1
    39   20   21 2
    40   20   22 am
    41   22   23 1
    42   22   58 1
    43   23   24 1
    44   23   25 1
    45   23   26 1
    46   24   59 1
    47   24   60 1
    48   24   61 1
    49   25   62 1
    50   25   63 1
    51   25   64 1
    52   26   65 1
    53   26   66 1
    54   26   67 1
    55   27   28 2
    56   27   29 am
    57   29   30 1
    58   29   68 1
    59   30   31 1
    60   30   32 1
    61   30   37 1
    62   32   33 1
    63   32   69 1
    64   32   70 1
    65   33   36 1
    66   33   34 1
    67   33   71 1
    68   34   35 1
    69   34   72 1
    70   34   73 1
    71   35   36 1
    72   35   74 1
    73   35   75 1
    74   36   76 1
    75   36   77 1
    76   37   38 2
    77   37   39 1
    78   39   40 2
    79   39   41 am
    80   41   78 1
    81   41   79 1
    82   42   80 1
    83   42   81 1
    84   42   82 1
@<TRIPOS>MOLECULE
ZINC03992480
  102   106     0     0     0
SMALL
USER_CHARGES
(3S,3aS,6aR)-2-[(2S)-2-[[(2S)-2-cyclohexyl-2-(pyrazine-2-carbonylamino)acetyl]amino]-3,3-dimethyl-butanoyl]-N-[(1S)-1-[2-(cyclopropylamino)-2-oxo-acetyl]butyl]-3,3a,4,5,6,6a-hexahydro-1H-cyclopenta[c]pyrrole-3-carboxamide
@<TRIPOS>ATOM
      1 C1          1.7934    1.7727    0.8817 C.3       1 <0>        -0.1487
      2 C2          1.7248    0.5575    1.8089 C.3       1 <0>        -0.1167
      3 C3          0.8624    0.8935    3.0272 C.3       1 <0>        -0.1199
      4 C4          0.7939   -0.3217    3.9543 C.3       1 <0>         0.1239
      5 H1          1.8017   -0.6804    4.2107 H         1 <0>         0.1267
      6 C5          0.0481    0.0467    5.2109 C.2       1 <0>         0.3566
      7 O1         -1.0847   -0.3385    5.3758 O.2       1 <0>        -0.4149
      8 C6          0.7087    0.8865    6.2507 C.2       1 <0>         0.4805
      9 O2          1.8470    1.2735    6.0850 O.2       1 <0>        -0.5039
     10 N1          0.0417    1.2160    7.3746 N.am      1 <0>        -0.7073
     11 C7          0.6908    2.0412    8.3963 C.3       1 <0>        -0.0276
     12 C8          0.5147    1.6244    9.8578 C.3       1 <0>        -0.1399
     13 C9         -0.2119    2.8596    9.3217 C.3       1 <0>        -0.1337
     14 N2          0.0953   -1.4155    3.2748 N.am      1 <0>        -0.7346
     15 C10         0.7740   -2.2418    2.4544 C.2       1 <0>         0.5149
     16 O3          1.9631   -2.0798    2.2786 O.2       1 <0>        -0.5121
     17 C11         0.0555   -3.3671    1.7554 C.3       1 <0>         0.1287
     18 H2         -0.9062   -2.9933    1.3742 H         1 <0>         0.1002
     19 C12        -0.1293   -4.5437    2.7221 C.3       1 <0>        -0.0857
     20 H3         -0.0541   -4.1984    3.7638 H         1 <0>         0.1022
     21 C13        -1.4874   -5.2301    2.4491 C.3       1 <0>        -0.1224
     22 C14        -1.2136   -6.7010    2.8498 C.3       1 <0>        -0.1218
     23 C15         0.2399   -6.9708    2.3654 C.3       1 <0>        -0.1188
     24 C16         0.9220   -5.5938    2.2729 C.3       1 <0>        -0.0914
     25 H4          1.8529   -5.5988    2.8589 H         1 <0>         0.0975
     26 C17         1.1556   -5.2588    0.7871 C.3       1 <0>         0.0946
     27 N3          0.8539   -3.8336    0.6177 N.am      1 <0>        -0.5900
     28 C18         1.2489   -3.0718   -0.4216 C.2       1 <0>         0.5443
     29 O4          0.8644   -1.9252   -0.5136 O.2       1 <0>        -0.5196
     30 C19         2.1684   -3.6446   -1.4692 C.3       1 <0>         0.1503
     31 H5          2.0590   -4.7386   -1.5031 H         1 <0>         0.1031
     32 C20         3.6116   -3.2463   -1.1540 C.3       1 <0>        -0.0620
     33 C21         4.0068   -3.8028    0.2153 C.3       1 <0>        -0.1579
     34 C22         4.5436   -3.8169   -2.2248 C.3       1 <0>        -0.1311
     35 C23         3.7275   -1.7208   -1.1372 C.3       1 <0>        -0.1439
     36 N4          1.7941   -3.1223   -2.7857 N.am      1 <0>        -0.7211
     37 C24         2.0936   -3.8217   -3.8982 C.2       1 <0>         0.5232
     38 O5          2.6731   -4.8834   -3.8094 O.2       1 <0>        -0.5292
     39 C25         1.7086   -3.2844   -5.2525 C.3       1 <0>         0.1352
     40 H6          2.2217   -2.3284   -5.4337 H         1 <0>         0.1161
     41 C26         0.1896   -3.1143   -5.3207 C.3       1 <0>        -0.0896
     42 C27        -0.4858   -4.4691   -5.0987 C.3       1 <0>        -0.1126
     43 C28        -2.0048   -4.2990   -5.1668 C.3       1 <0>        -0.1165
     44 C29        -2.3957   -3.7535   -6.5418 C.3       1 <0>        -0.1204
     45 C30        -1.7203   -2.3987   -6.7638 C.3       1 <0>        -0.1211
     46 C31        -0.2013   -2.5688   -6.6957 C.3       1 <0>        -0.1056
     47 N5          2.1421   -4.2222   -6.2912 N.am      1 <0>        -0.7017
     48 C32         2.3774   -3.7803   -7.5425 C.2       1 <0>         0.5813
     49 O6          2.2300   -2.6039   -7.8092 O.2       1 <0>        -0.5254
     50 C33         2.8157   -4.7287   -8.5929 C.ar      1 <0>         0.0295
     51 C34         3.0542   -4.2746   -9.8896 C.ar      1 <0>         0.1103
     52 N6          3.4495   -5.1232  -10.8214 N.ar      1 <0>        -0.4385
     53 C35         3.6088   -6.4017  -10.5281 C.ar      1 <0>         0.0749
     54 C36         3.3673   -6.8575   -9.2403 C.ar      1 <0>         0.0513
     55 N7          2.9777   -6.0166   -8.3031 N.ar      1 <0>        -0.4104
     56 H7          2.4134    1.5311    0.0058 H         1 <0>         0.0548
     57 H8          2.2373    2.6217    1.4222 H         1 <0>         0.0486
     58 H9          0.7788    2.0389    0.5505 H         1 <0>         0.0488
     59 H10         1.2809   -0.2915    1.2684 H         1 <0>         0.0837
     60 H11         2.7394    0.2912    2.1401 H         1 <0>         0.0656
     61 H12         1.3063    1.7425    3.5677 H         1 <0>         0.0806
     62 H13        -0.1522    1.1597    2.6961 H         1 <0>         0.0676
     63 H14        -0.9900    0.8653    7.5247 H         1 <0>         0.4187
     64 H15         1.5384    2.2490    7.7266 H         1 <0>         0.1597
     65 H16         0.0905    0.6104    9.9013 H         1 <0>         0.1051
     66 H17         1.4921    1.6349   10.3624 H         1 <0>         0.1123
     67 H18         0.1649    3.8912    9.3831 H         1 <0>         0.1132
     68 H19        -1.2367    2.8667    8.9220 H         1 <0>         0.1057
     69 H20        -0.9831   -1.5624    3.4342 H         1 <0>         0.4268
     70 H21        -2.2667   -4.7596    3.0666 H         1 <0>         0.0738
     71 H22        -1.7464   -5.1206    1.3856 H         1 <0>         0.0724
     72 H23        -1.3096   -6.8079    3.9404 H         1 <0>         0.0694
     73 H24        -1.9413   -7.3583    2.3515 H         1 <0>         0.0697
     74 H25         0.7534   -7.6197    3.0902 H         1 <0>         0.0720
     75 H26         0.2132   -7.4667    1.3839 H         1 <0>         0.0731
     76 H27         2.2029   -5.4688    0.5242 H         1 <0>         0.0848
     77 H28         0.4905   -5.8742    0.1635 H         1 <0>         0.0758
     78 H29         5.0444   -3.5164    0.4419 H         1 <0>         0.0604
     79 H30         3.9234   -4.8996    0.2033 H         1 <0>         0.0526
     80 H31         3.3367   -3.3925    0.9851 H         1 <0>         0.0827
     81 H32         5.5812   -3.5305   -1.9982 H         1 <0>         0.0513
     82 H33         4.2594   -3.4167   -3.2092 H         1 <0>         0.0526
     83 H34         4.4602   -4.9137   -2.2368 H         1 <0>         0.0640
     84 H35         4.7651   -1.4344   -0.9106 H         1 <0>         0.0536
     85 H36         3.0574   -1.3106   -0.3673 H         1 <0>         0.0720
     86 H37         3.4433   -1.3206   -2.1216 H         1 <0>         0.0527
     87 H38         1.2686   -2.1593   -2.8663 H         1 <0>         0.4321
     88 H39        -0.1359   -2.4102   -4.5408 H         1 <0>         0.0837
     89 H40        -0.1604   -5.1732   -5.8786 H         1 <0>         0.0660
     90 H41        -0.2047   -4.8614   -4.1102 H         1 <0>         0.0589
     91 H42        -2.4903   -5.2730   -5.0071 H         1 <0>         0.0610
     92 H43        -2.3303   -3.5949   -4.3869 H         1 <0>         0.0615
     93 H44        -2.0702   -4.4577   -7.3217 H         1 <0>         0.0587
     94 H45        -3.4878   -3.6312   -6.5909 H         1 <0>         0.0604
     95 H46        -2.0014   -2.0065   -7.7523 H         1 <0>         0.0622
     96 H47        -2.0457   -1.6946   -5.9839 H         1 <0>         0.0614
     97 H48         0.2843   -1.5948   -6.8553 H         1 <0>         0.0741
     98 H49         0.1242   -3.2729   -7.4756 H         1 <0>         0.0623
     99 H50         2.2756   -5.2871   -6.0498 H         1 <0>         0.4443
    100 H51         2.9200   -3.2304  -10.1304 H         1 <0>         0.1828
    101 H52         3.9283   -7.0938  -11.2931 H         1 <0>         0.1779
    102 H53         3.4985   -7.9034   -9.0053 H         1 <0>         0.1793
@<TRIPOS>BOND
     1    1    2 1
     2    1   56 1
     3    1   57 1
     4    1   58 1
     5    2    3 1
     6    2   59 1
     7    2   60 1
     8    3    4 1
     9    3   61 1
    10    3   62 1
    11    4    5 1
    12    4    6 1
    13    4   14 1
    14    6    7 2
    15    6    8 1
    16    8    9 2
    17    8   10 am
    18   10   11 1
    19   10   63 1
    20   11   13 1
    21   11   12 1
    22   11   64 1
    23   12   13 1
    24   12   65 1
    25   12   66 1
    26   13   67 1
    27   13   68 1
    28   14   15 am
    29   14   69 1
    30   15   16 2
    31   15   17 1
    32   17   18 1
    33   17   27 1
    34   17   19 1
    35   19   20 1
    36   19   24 1
    37   19   21 1
    38   21   22 1
    39   21   70 1
    40   21   71 1
    41   22   23 1
    42   22   72 1
    43   22   73 1
    44   23   24 1
    45   23   74 1
    46   23   75 1
    47   24   25 1
    48   24   26 1
    49   26   27 1
    50   26   76 1
    51   26   77 1
    52   27   28 am
    53   28   29 2
    54   28   30 1
    55   30   31 1
    56   30   32 1
    57   30   36 1
    58   32   33 1
    59   32   34 1
    60   32   35 1
    61   33   78 1
    62   33   79 1
    63   33   80 1
    64   34   81 1
    65   34   82 1
    66   34   83 1
    67   35   84 1
    68   35   85 1
    69   35   86 1
    70   36   37 am
    71   36   87 1
    72   37   38 2
    73   37   39 1
    74   39   40 1
    75   39   41 1
    76   39   47 1
    77   41   46 1
    78   41   42 1
    79   41   88 1
    80   42   43 1
    81   42   89 1
    82   42   90 1
    83   43   44 1
    84   43   91 1
    85   43   92 1
    86   44   45 1
    87   44   93 1
    88   44   94 1
    89   45   46 1
    90   45   95 1
    91   45   96 1
    92   46   97 1
    93   46   98 1
    94   47   48 am
    95   47   99 1
    96   48   49 2
    97   48   50 1
    98   50   55 ar
    99   50   51 ar
   100   51   52 ar
   101   51  100 1
   102   52   53 ar
   103   53   54 ar
   104   53  101 1
   105   54   55 ar
   106   54  102 1
@<TRIPOS>MOLECULE
ZINC05751469
   34    36     0     0     0
SMALL
USER_CHARGES
1,3-bis(p-tolyl)-1,3-diazetidine-2,4-dione
@<TRIPOS>ATOM
      1 C1          6.6004    2.2531   -0.0495 C.3       1 <0>        -0.1162
      2 C2          5.0936    2.2326   -0.0352 C.ar      1 <0>        -0.0936
      3 C3          4.3874    3.4213   -0.0215 C.ar      1 <0>        -0.0889
      4 C4          3.0064    3.4057   -0.0084 C.ar      1 <0>        -0.1306
      5 C5          2.3272    2.1949   -0.0084 C.ar      1 <0>         0.1579
      6 C6          3.0390    1.0030   -0.0159 C.ar      1 <0>        -0.1306
      7 C7          4.4199    1.0250   -0.0352 C.ar      1 <0>        -0.0889
      8 N1          0.9256    2.1758    0.0049 N.am      1 <0>        -0.5632
      9 C8         -0.0144    1.2099    0.0087 C.2       1 <0>         0.7348
     10 O1          0.0021   -0.0041    0.0020 O.2       1 <0>        -0.4357
     11 N2         -0.9802    2.1499    0.0169 N.am      1 <0>        -0.5632
     12 C9         -0.0402    3.1157    0.0192 C.2       1 <0>         0.7348
     13 O2         -0.0567    4.3297    0.0259 O.2       1 <0>        -0.4357
     14 C10        -2.3820    2.1308    0.0213 C.ar      1 <0>         0.1579
     15 C11        -3.0611    0.9201    0.0112 C.ar      1 <0>        -0.1306
     16 C12        -4.4422    0.9045    0.0218 C.ar      1 <0>        -0.0889
     17 C13        -5.1484    2.0933    0.0306 C.ar      1 <0>        -0.0936
     18 C14        -4.4747    3.3008    0.0345 C.ar      1 <0>        -0.0889
     19 C15        -3.0937    3.3228    0.0301 C.ar      1 <0>        -0.1306
     20 C16        -6.6553    2.0728    0.0354 C.3       1 <0>        -0.1162
     21 H1          6.9735    2.2521    0.9746 H         1 <0>         0.0738
     22 H2          6.9708    1.3711   -0.5720 H         1 <0>         0.0693
     23 H3          6.9467    3.1509   -0.5615 H         1 <0>         0.0693
     24 H4          4.9163    4.3630   -0.0215 H         1 <0>         0.1350
     25 H5          2.4554    4.3345    0.0023 H         1 <0>         0.1364
     26 H6          2.5134    0.0595   -0.0114 H         1 <0>         0.1364
     27 H7          4.9741    0.0981   -0.0455 H         1 <0>         0.1350
     28 H8         -2.5101   -0.0087   -0.0002 H         1 <0>         0.1364
     29 H9         -4.9711   -0.0372    0.0184 H         1 <0>         0.1350
     30 H10        -5.0290    4.2277    0.0414 H         1 <0>         0.1350
     31 H11        -2.5681    4.2662    0.0332 H         1 <0>         0.1364
     32 H12        -7.0219    2.0731   -0.9911 H         1 <0>         0.0738
     33 H13        -7.0048    1.1754    0.5458 H         1 <0>         0.0693
     34 H14        -7.0290    2.9551    0.5549 H         1 <0>         0.0693
@<TRIPOS>BOND
     1    1    2 1
     2    1   21 1
     3    1   22 1
     4    1   23 1
     5    2    7 ar
     6    2    3 ar
     7    3    4 ar
     8    3   24 1
     9    4    5 ar
    10    4   25 1
    11    5    6 ar
    12    5    8 1
    13    6    7 ar
    14    6   26 1
    15    7   27 1
    16    8   12 am
    17    8    9 am
    18    9   10 2
    19    9   11 am
    20   11   12 am
    21   11   14 1
    22   12   13 2
    23   14   19 ar
    24   14   15 ar
    25   15   16 ar
    26   15   28 1
    27   16   17 ar
    28   16   29 1
    29   17   18 ar
    30   17   20 1
    31   18   19 ar
    32   18   30 1
    33   19   31 1
    34   20   32 1
    35   20   33 1
    36   20   34 1
@<TRIPOS>MOLECULE
ZINC01583409
   41    42     0     0     0
SMALL
USER_CHARGES

@<TRIPOS>ATOM
      1 C1         -0.0167    1.3781    0.0096 C.ar      1 <0>        -0.1171
      2 C2          1.1709    2.0855    0.0021 C.ar      1 <0>        -0.1160
      3 C3          2.3773    1.4107   -0.0130 C.ar      1 <0>        -0.1094
      4 C4          2.3960    0.0285   -0.0201 C.ar      1 <0>        -0.0902
      5 C5          1.2084   -0.6789   -0.0117 C.ar      1 <0>        -0.1120
      6 C6          0.0021   -0.0041    0.0020 C.ar      1 <0>        -0.1165
      7 C7          3.7112   -0.7071   -0.0376 C.3       1 <0>        -0.0833
      8 C8          4.1714   -0.9633    1.3989 C.3       1 <0>         0.1302
      9 H1          3.3868   -1.4885    1.9436 H         1 <0>         0.1271
     10 C9          5.4216   -1.8045    1.3834 C.2       1 <0>         0.3307
     11 O1          6.4929   -1.2983    1.6167 O.2       1 <0>        -0.4069
     12 C10         5.3350   -3.2775    1.0768 C.3       1 <0>        -0.0954
     13 Cl1         6.9853   -4.0013    1.1340 Cl        1 <0>        -0.1387
     14 N1          4.4511    0.3151    2.0574 N.am      1 <0>        -0.6901
     15 C11         4.3778    0.4121    3.3997 C.2       1 <0>         0.6554
     16 O2          4.0797   -0.5609    4.0637 O.2       1 <0>        -0.5689
     17 O3          4.6349    1.5870    4.0048 O.3       1 <0>        -0.3550
     18 C12         4.5385    1.6173    5.4302 C.3       1 <0>         0.1289
     19 C13         4.8579    3.0041    5.9259 C.ar      1 <0>        -0.1012
     20 C14         6.1620    3.3452    6.2325 C.ar      1 <0>        -0.0927
     21 C15         6.4550    4.6173    6.6872 C.ar      1 <0>        -0.1229
     22 C16         5.4441    5.5485    6.8349 C.ar      1 <0>        -0.1068
     23 C17         4.1401    5.2077    6.5274 C.ar      1 <0>        -0.1236
     24 C18         3.8477    3.9369    6.0687 C.ar      1 <0>        -0.0932
     25 H2         -0.9591    1.9053    0.0259 H         1 <0>         0.1227
     26 H3          1.1563    3.1654    0.0076 H         1 <0>         0.1235
     27 H4          3.3051    1.9634   -0.0196 H         1 <0>         0.1200
     28 H5          1.2231   -1.7588   -0.0176 H         1 <0>         0.1246
     29 H6         -0.9258   -0.5567    0.0082 H         1 <0>         0.1241
     30 H7          3.5884   -1.6586   -0.5549 H         1 <0>         0.1031
     31 H8          4.4573   -0.1052   -0.5563 H         1 <0>         0.0913
     32 H9          4.6984   -3.7654    1.8150 H         1 <0>         0.1309
     33 H10         4.9112   -3.4173    0.0824 H         1 <0>         0.1298
     34 H11         4.6891    1.0919    1.5273 H         1 <0>         0.4120
     35 H12         3.5262    1.3479    5.7317 H         1 <0>         0.0789
     36 H13         5.2461    0.9068    5.8575 H         1 <0>         0.0788
     37 H14         6.9518    2.6177    6.1171 H         1 <0>         0.1250
     38 H15         7.4737    4.8836    6.9273 H         1 <0>         0.1266
     39 H16         5.6729    6.5422    7.1908 H         1 <0>         0.1255
     40 H17         3.3502    5.9351    6.6431 H         1 <0>         0.1264
     41 H18         2.8295    3.6717    5.8250 H         1 <0>         0.1245
@<TRIPOS>BOND
     1    1    6 ar
     2    1    2 ar
     3    1   25 1
     4    2    3 ar
     5    2   26 1
     6    3    4 ar
     7    3   27 1
     8    4    5 ar
     9    4    7 1
    10    5    6 ar
    11    5   28 1
    12    6   29 1
    13    7    8 1
    14    7   30 1
    15    7   31 1
    16    8    9 1
    17    8   10 1
    18    8   14 1
    19   10   11 2
    20   10   12 1
    21   12   13 1
    22   12   32 1
    23   12   33 1
    24   14   15 am
    25   14   34 1
    26   15   16 2
    27   15   17 1
    28   17   18 1
    29   18   19 1
    30   18   35 1
    31   18   36 1
    32   19   24 ar
    33   19   20 ar
    34   20   21 ar
    35   20   37 1
    36   21   22 ar
    37   21   38 1
    38   22   23 ar
    39   22   39 1
    40   23   24 ar
    41   23   40 1
    42   24   41 1
@<TRIPOS>MOLECULE
ZINC01040623
   44    46     0     0     0
SMALL
USER_CHARGES

@<TRIPOS>ATOM
      1 C1         -0.0187    1.5258    0.0104 C.3       1 <0>        -0.1449
      2 C2          0.0021   -0.0041    0.0020 C.3       1 <0>        -0.1183
      3 C3          0.7182   -0.4975   -1.2568 C.3       1 <0>        -0.6168
      4 S1          0.7428   -2.3113   -1.2668 S.o2      1 <0>         2.5052
      5 O1          1.5760   -2.7952   -0.2223 O.2       1 <0>        -0.9546
      6 O2         -0.5740   -2.8177   -1.4366 O.2       1 <0>        -0.9542
      7 C4          1.5862   -2.7445   -2.7519 C.ar      1 <0>        -0.7540
      8 C5          0.8735   -2.9196   -3.9240 C.ar      1 <0>         0.0096
      9 C6          1.5314   -3.2591   -5.0898 C.ar      1 <0>        -0.1919
     10 C7          2.9105   -3.4249   -5.0842 C.ar      1 <0>         0.3261
     11 C8          3.6234   -3.2484   -3.9050 C.ar      1 <0>        -0.2796
     12 C9          2.9599   -2.9033   -2.7440 C.ar      1 <0>         0.0288
     13 N1          3.5790   -3.7688   -6.2614 N.2       1 <0>        -1.0766
     14 S2          5.2232   -3.9660   -6.2525 S.o2      1 <0>         2.6314
     15 O3          5.7840   -2.6886   -5.9822 O.2       1 <0>        -1.0090
     16 O4          5.4916   -5.1026   -5.4430 O.2       1 <0>        -1.0067
     17 C10         5.7058   -4.3908   -7.8930 C.2       1 <0>        -0.6568
     18 C11         6.9377   -4.6489   -8.3552 C.2       1 <0>         0.0070
     19 C12         7.1162   -4.9832   -9.7606 C.ar      1 <0>        -0.0922
     20 C13         8.3121   -5.2874  -10.4535 C.ar      1 <0>        -0.0561
     21 C14         8.2907   -5.5790  -11.7821 C.ar      1 <0>        -0.0443
     22 C15         7.1034   -5.5892  -12.5040 C.ar      1 <0>        -0.0834
     23 C16         5.9158   -5.2976  -11.8634 C.ar      1 <0>        -0.0656
     24 C17         5.9248   -5.0006  -10.5173 C.ar      1 <0>        -0.1253
     25 S3          4.6714   -4.5875   -9.3315 S.3       1 <0>         0.1761
     26 Cl1         9.7805   -5.9461  -12.5942 Cl        1 <0>        -0.0713
     27 C18         8.1253   -4.5929   -7.4293 C.3       1 <0>        -0.1333
     28 H1          1.0039    1.9031    0.0027 H         1 <0>         0.0583
     29 H2         -0.5459    1.8868   -0.8726 H         1 <0>         0.0583
     30 H3         -0.5289    1.8773    0.9072 H         1 <0>         0.0586
     31 H4          0.5293   -0.3651    0.8851 H         1 <0>         0.0770
     32 H5         -1.0205   -0.3814    0.0098 H         1 <0>         0.0772
     33 H6          0.1910   -0.1364   -2.1398 H         1 <0>         0.1324
     34 H7          1.7408   -0.1202   -1.2645 H         1 <0>         0.1321
     35 H8         -0.1988   -2.7909   -3.9276 H         1 <0>         0.1258
     36 H9          0.9742   -3.3960   -6.0048 H         1 <0>         0.1242
     37 H10         4.6957   -3.3768   -3.8971 H         1 <0>         0.1054
     38 H11         3.5139   -2.7615   -1.8279 H         1 <0>         0.1231
     39 H12         9.2522   -5.2878   -9.9218 H         1 <0>         0.1377
     40 H13         7.1097   -5.8231  -13.5583 H         1 <0>         0.1448
     41 H14         4.9861   -5.3021  -12.4131 H         1 <0>         0.1439
     42 H15         8.2863   -5.5752   -6.9851 H         1 <0>         0.0918
     43 H16         9.0113   -4.2989   -7.9921 H         1 <0>         0.0815
     44 H17         7.9373   -3.8640   -6.6409 H         1 <0>         0.0786
@<TRIPOS>BOND
     1    1    2 1
     2    1   28 1
     3    1   29 1
     4    1   30 1
     5    2    3 1
     6    2   31 1
     7    2   32 1
     8    3    4 1
     9    3   33 1
    10    3   34 1
    11    4    5 2
    12    4    6 2
    13    4    7 1
    14    7   12 ar
    15    7    8 ar
    16    8    9 ar
    17    8   35 1
    18    9   10 ar
    19    9   36 1
    20   10   11 ar
    21   10   13 1
    22   11   12 ar
    23   11   37 1
    24   12   38 1
    25   13   14 1
    26   14   15 2
    27   14   16 2
    28   14   17 1
    29   17   25 1
    30   17   18 2
    31   18   19 1
    32   18   27 1
    33   19   24 ar
    34   19   20 ar
    35   20   21 ar
    36   20   39 1
    37   21   22 ar
    38   21   26 1
    39   22   23 ar
    40   22   40 1
    41   23   24 ar
    42   23   41 1
    43   24   25 1
    44   27   42 1
    45   27   43 1
    46   27   44 1
@<TRIPOS>MOLECULE
ZINC00901254
   41    42     0     0     0
SMALL
USER_CHARGES

@<TRIPOS>ATOM
      1 C1         -0.0184    1.5028    0.0103 C.3       1 <0>        -0.1266
      2 C2          0.0021   -0.0041    0.0020 C.ar      1 <0>        -0.0227
      3 C3          0.0057   -0.6887   -1.1989 C.ar      1 <0>        -0.1379
      4 C4          0.0245   -2.0709   -1.2065 C.ar      1 <0>        -0.0030
      5 C5          0.0400   -2.7685   -0.0132 C.ar      1 <0>        -0.6854
      6 C6          0.0373   -2.0839    1.1877 C.ar      1 <0>        -0.0263
      7 C7          0.0229   -0.7016    1.1953 C.ar      1 <0>        -0.1399
      8 S1          0.0628   -4.5303   -0.0229 S.o2      1 <0>         2.6899
      9 O1         -0.4759   -4.9503    1.2232 O.2       1 <0>        -0.9485
     10 O2         -0.4897   -4.9367   -1.2674 O.2       1 <0>        -0.9514
     11 N1          1.6509   -4.9994   -0.0343 N.pl3     1 <0>        -1.0959
     12 C8          2.5116   -4.6990    1.1125 C.3       1 <0>         0.1166
     13 H1          1.8992   -4.5880    2.0073 H         1 <0>         0.1255
     14 C9          3.5084   -5.8418    1.3153 C.3       1 <0>        -0.0760
     15 C10         2.7641   -7.0964    1.6934 C.ar      1 <0>        -0.0884
     16 C11         2.5157   -7.3783    3.0237 C.ar      1 <0>        -0.1117
     17 C12         1.8329   -8.5291    3.3705 C.ar      1 <0>        -0.1152
     18 C13         1.3982   -9.3979    2.3870 C.ar      1 <0>        -0.1166
     19 C14         1.6458   -9.1155    1.0567 C.ar      1 <0>        -0.1181
     20 C15         2.3248   -7.9625    0.7096 C.ar      1 <0>        -0.1121
     21 C16         3.2620   -3.4176    0.8553 C.2       1 <0>         0.3196
     22 O3          3.3121   -2.9610   -0.2616 O.2       1 <0>        -0.3958
     23 C17         3.9499   -2.7061    1.9918 C.3       1 <0>        -0.0994
     24 Cl1         4.7536   -1.2168    1.3698 Cl        1 <0>        -0.1369
     25 H2          1.0042    1.8801    0.0026 H         1 <0>         0.0807
     26 H3         -0.5455    1.8639   -0.8728 H         1 <0>         0.0735
     27 H4         -0.5286    1.8543    0.9071 H         1 <0>         0.0734
     28 H5         -0.0064   -0.1436   -2.1312 H         1 <0>         0.1329
     29 H6          0.0266   -2.6057   -2.1448 H         1 <0>         0.1389
     30 H7          0.0491   -2.6289    2.1200 H         1 <0>         0.1371
     31 H8          0.0245   -0.1667    2.1335 H         1 <0>         0.1329
     32 H9          2.0112   -5.4731   -0.8002 H         1 <0>         0.4246
     33 H10         4.0599   -6.0113    0.3905 H         1 <0>         0.0910
     34 H11         4.2055   -5.5791    2.1110 H         1 <0>         0.0966
     35 H12         2.8553   -6.6996    3.7921 H         1 <0>         0.1238
     36 H13         1.6394   -8.7497    4.4099 H         1 <0>         0.1239
     37 H14         0.8653  -10.2973    2.6581 H         1 <0>         0.1228
     38 H15         1.3065   -9.7944    0.2883 H         1 <0>         0.1237
     39 H16         2.5151   -7.7401   -0.3300 H         1 <0>         0.1208
     40 H17         3.2140   -2.4330    2.7480 H         1 <0>         0.1283
     41 H18         4.6975   -3.3649    2.4335 H         1 <0>         0.1310
@<TRIPOS>BOND
     1    1    2 1
     2    1   25 1
     3    1   26 1
     4    1   27 1
     5    2    7 ar
     6    2    3 ar
     7    3    4 ar
     8    3   28 1
     9    4    5 ar
    10    4   29 1
    11    5    6 ar
    12    5    8 1
    13    6    7 ar
    14    6   30 1
    15    7   31 1
    16    8    9 2
    17    8   10 2
    18    8   11 1
    19   11   12 1
    20   11   32 1
    21   12   13 1
    22   12   14 1
    23   12   21 1
    24   14   15 1
    25   14   33 1
    26   14   34 1
    27   15   20 ar
    28   15   16 ar
    29   16   17 ar
    30   16   35 1
    31   17   18 ar
    32   17   36 1
    33   18   19 ar
    34   18   37 1
    35   19   20 ar
    36   19   38 1
    37   20   39 1
    38   21   22 2
    39   21   23 1
    40   23   24 1
    41   23   40 1
    42   23   41 1
