@<TRIPOS>MOLECULE
ZINC01530625
   53    55     0     0     0
SMALL
USER_CHARGES
trimethyl-pentyl-BLAHol
@<TRIPOS>ATOM
      1 C1          1.1312    7.6661    2.8994 C.3       1 <0>        -0.1540
      2 C2          1.1487    6.1362    2.8960 C.3       1 <0>        -0.1262
      3 C3          1.1435    5.6293    1.4524 C.3       1 <0>        -0.1205
      4 C4          1.1610    4.0994    1.4490 C.3       1 <0>        -0.1146
      5 C5          1.1558    3.5925    0.0054 C.3       1 <0>        -0.0805
      6 C6          1.1731    2.0856    0.0021 C.ar      1 <0>        -0.0309
      7 C7         -0.0167    1.3825    0.0096 C.ar      1 <0>        -0.1773
      8 C8          0.0021   -0.0041    0.0020 C.ar      1 <0>         0.1493
      9 C9          1.2101   -0.6850   -0.0134 C.ar      1 <0>        -0.1821
     10 C10         2.4061    0.0193   -0.0126 C.ar      1 <0>         0.1598
     11 C11         2.3764    1.4113   -0.0090 C.ar      1 <0>        -0.1594
     12 O1          3.6146   -0.6005   -0.0010 O.3       1 <0>        -0.3086
     13 C12         3.6845   -2.0092   -0.2471 C.3       1 <0>         0.1227
     14 C13         2.5579   -2.6737    0.5379 C.3       1 <0>        -0.1116
     15 H1          2.6234   -2.3795    1.5854 H         1 <0>         0.0833
     16 C14         1.2282   -2.1827   -0.0438 C.3       1 <0>        -0.0074
     17 H2          1.1717   -2.5044   -1.0837 H         1 <0>         0.0862
     18 C15         0.0991   -2.8232    0.6943 C.2       1 <0>        -0.1575
     19 C16         0.2426   -3.9571    1.3166 C.2       1 <0>        -0.1330
     20 C17         1.5172   -4.7404    1.4011 C.3       1 <0>        -0.0831
     21 C18         2.5770   -4.1958    0.4360 C.3       1 <0>        -0.1091
     22 C19        -0.9695   -4.5278    2.0066 C.3       1 <0>        -0.1201
     23 C20         3.5073   -2.2839   -1.7418 C.3       1 <0>        -0.1757
     24 C21         5.0358   -2.5513    0.2230 C.3       1 <0>        -0.1411
     25 O2         -1.1666   -0.6976    0.0092 O.3       1 <0>        -0.4884
     26 H3          2.0130    8.0407    2.3796 H         1 <0>         0.0535
     27 H4          0.2332    8.0203    2.3932 H         1 <0>         0.0534
     28 H5          1.1349    8.0272    3.9278 H         1 <0>         0.0534
     29 H6          0.2669    5.7616    3.4158 H         1 <0>         0.0608
     30 H7          2.0467    5.7820    3.4022 H         1 <0>         0.0609
     31 H8          2.0253    6.0039    0.9326 H         1 <0>         0.0625
     32 H9          0.2455    5.9835    0.9462 H         1 <0>         0.0622
     33 H10         0.2792    3.7248    1.9688 H         1 <0>         0.0642
     34 H11         2.0590    3.7452    1.9552 H         1 <0>         0.0645
     35 H12         2.0376    3.9671   -0.5144 H         1 <0>         0.0754
     36 H13         0.2578    3.9467   -0.5008 H         1 <0>         0.0752
     37 H14        -0.9583    1.9114    0.0170 H         1 <0>         0.1293
     38 H15         3.3023    1.9672   -0.0154 H         1 <0>         0.1307
     39 H16        -0.8626   -2.3322    0.7121 H         1 <0>         0.1461
     40 H17         1.3121   -5.7820    1.1539 H         1 <0>         0.0732
     41 H18         1.9012   -4.6853    2.4197 H         1 <0>         0.0718
     42 H19         2.3403   -4.5010   -0.5833 H         1 <0>         0.0690
     43 H20         3.5606   -4.5727    0.7164 H         1 <0>         0.0748
     44 H21        -1.0093   -4.1621    3.0327 H         1 <0>         0.0632
     45 H22        -1.8695   -4.2183    1.4753 H         1 <0>         0.0622
     46 H23        -0.9063   -5.6160    2.0110 H         1 <0>         0.0592
     47 H24         4.2972   -1.7810   -2.2998 H         1 <0>         0.0681
     48 H25         3.5615   -3.3574   -1.9228 H         1 <0>         0.0755
     49 H26         2.5371   -1.9090   -2.0676 H         1 <0>         0.0640
     50 H27         5.1499   -2.3661    1.2911 H         1 <0>         0.0669
     51 H28         5.0831   -3.6236    0.0331 H         1 <0>         0.0817
     52 H29         5.8372   -2.0504   -0.3202 H         1 <0>         0.0690
     53 H30        -1.5131   -0.8936   -0.8720 H         1 <0>         0.3891
@<TRIPOS>BOND
     1    1    2 1
     2    1   26 1
     3    1   27 1
     4    1   28 1
     5    2    3 1
     6    2   29 1
     7    2   30 1
     8    3    4 1
     9    3   31 1
    10    3   32 1
    11    4    5 1
    12    4   33 1
    13    4   34 1
    14    5    6 1
    15    5   35 1
    16    5   36 1
    17    6   11 ar
    18    6    7 ar
    19    7    8 ar
    20    7   37 1
    21    8    9 ar
    22    8   25 1
    23    9   16 1
    24    9   10 ar
    25   10   11 ar
    26   10   12 1
    27   11   38 1
    28   12   13 1
    29   13   14 1
    30   13   23 1
    31   13   24 1
    32   14   15 1
    33   14   21 1
    34   14   16 1
    35   16   17 1
    36   16   18 1
    37   18   19 2
    38   18   39 1
    39   19   20 1
    40   19   22 1
    41   20   21 1
    42   20   40 1
    43   20   41 1
    44   21   42 1
    45   21   43 1
    46   22   44 1
    47   22   45 1
    48   22   46 1
    49   23   47 1
    50   23   48 1
    51   23   49 1
    52   24   50 1
    53   24   51 1
    54   24   52 1
    55   25   53 1
@<TRIPOS>MOLECULE
ZINC02034208
   53    55     0     0     0
SMALL
USER_CHARGES
trimethyl-pentyl-BLAHol
@<TRIPOS>ATOM
      1 C1         -6.2917    5.9798   -2.7842 C.3       1 <0>        -0.1543
      2 C2         -4.9343    5.2740   -2.8018 C.3       1 <0>        -0.1256
      3 C3         -4.4687    5.0282   -1.3652 C.3       1 <0>        -0.1212
      4 C4         -3.1113    4.3224   -1.3828 C.3       1 <0>        -0.1133
      5 C5         -2.6457    4.0766    0.0538 C.3       1 <0>        -0.0810
      6 C6         -1.3087    3.3815    0.0365 C.ar      1 <0>        -0.0326
      7 C7         -0.1433    4.1243    0.0313 C.ar      1 <0>        -0.1762
      8 C8          1.0855    3.4838    0.0144 C.ar      1 <0>         0.1477
      9 C9          1.1513    2.0948    0.0023 C.ar      1 <0>        -0.1770
     10 C10        -0.0163    1.3544    0.0095 C.ar      1 <0>         0.1559
     11 C11        -1.2475    2.0028    0.0306 C.ar      1 <0>        -0.1582
     12 O1          0.0021   -0.0041    0.0020 O.3       1 <0>        -0.3024
     13 C12         1.1999   -0.6466   -0.4358 C.3       1 <0>         0.1180
     14 C13         2.3857   -0.0457    0.3242 C.3       1 <0>        -0.1081
     15 H1          3.3021   -0.5622    0.0387 H         1 <0>         0.0902
     16 C14         2.5050    1.4352   -0.0208 C.3       1 <0>         0.0022
     17 H2          2.9091    1.5288   -1.0288 H         1 <0>         0.0820
     18 C15         3.4271    2.1313    0.9346 C.2       1 <0>        -0.1400
     19 C16         3.8162    1.6341    2.0647 C.2       1 <0>        -0.1278
     20 C17         3.4029    0.2828    2.5707 C.3       1 <0>        -0.0829
     21 C18         2.1560   -0.2023    1.8304 C.3       1 <0>        -0.1119
     22 C19         4.7383    2.4611    2.9231 C.3       1 <0>        -0.1183
     23 C20         1.1125   -2.1466   -0.1473 C.3       1 <0>        -0.1416
     24 C21         1.3846   -0.4196   -1.9375 C.3       1 <0>        -0.1765
     25 O2          2.2305    4.2158    0.0100 O.3       1 <0>        -0.4899
     26 H3         -6.1988    6.9332   -2.2642 H         1 <0>         0.0535
     27 H4         -6.6234    6.1549   -3.8076 H         1 <0>         0.0535
     28 H5         -7.0199    5.3540   -2.2683 H         1 <0>         0.0537
     29 H6         -4.2061    5.8998   -3.3177 H         1 <0>         0.0604
     30 H7         -5.0272    4.3206   -3.3218 H         1 <0>         0.0608
     31 H8         -5.1969    4.4024   -0.8493 H         1 <0>         0.0627
     32 H9         -4.3758    5.9816   -0.8452 H         1 <0>         0.0623
     33 H10        -2.3831    4.9482   -1.8987 H         1 <0>         0.0633
     34 H11        -3.2042    3.3690   -1.9028 H         1 <0>         0.0642
     35 H12        -3.3739    3.4508    0.5697 H         1 <0>         0.0754
     36 H13        -2.5528    5.0300    0.5738 H         1 <0>         0.0751
     37 H14        -0.1902    5.2033    0.0401 H         1 <0>         0.1281
     38 H15        -2.1595    1.4243    0.0385 H         1 <0>         0.1306
     39 H16         3.7899    3.1115    0.6625 H         1 <0>         0.1233
     40 H17         4.2126   -0.4281    2.4066 H         1 <0>         0.0716
     41 H18         3.1899    0.3459    3.6378 H         1 <0>         0.0712
     42 H19         1.3004    0.4007    2.1345 H         1 <0>         0.0665
     43 H20         1.9695   -1.2503    2.0649 H         1 <0>         0.0724
     44 H21         4.9458    3.4084    2.4255 H         1 <0>         0.0608
     45 H22         4.2643    2.6525    3.8857 H         1 <0>         0.0623
     46 H23         5.6719    1.9204    3.0789 H         1 <0>         0.0618
     47 H24         0.2597   -2.5696   -0.6782 H         1 <0>         0.0685
     48 H25         2.0276   -2.6349   -0.4822 H         1 <0>         0.0785
     49 H26         0.9879   -2.3039    0.9241 H         1 <0>         0.0706
     50 H27         1.4533    0.6497   -2.1376 H         1 <0>         0.0632
     51 H28         2.2993   -0.9107   -2.2694 H         1 <0>         0.0733
     52 H29         0.5329   -0.8359   -2.4754 H         1 <0>         0.0680
     53 H30         2.5538    4.4350   -0.8746 H         1 <0>         0.3871
@<TRIPOS>BOND
     1    1    2 1
     2    1   26 1
     3    1   27 1
     4    1   28 1
     5    2    3 1
     6    2   29 1
     7    2   30 1
     8    3    4 1
     9    3   31 1
    10    3   32 1
    11    4    5 1
    12    4   33 1
    13    4   34 1
    14    5    6 1
    15    5   35 1
    16    5   36 1
    17    6   11 ar
    18    6    7 ar
    19    7    8 ar
    20    7   37 1
    21    8    9 ar
    22    8   25 1
    23    9   16 1
    24    9   10 ar
    25   10   11 ar
    26   10   12 1
    27   11   38 1
    28   12   13 1
    29   13   14 1
    30   13   23 1
    31   13   24 1
    32   14   15 1
    33   14   21 1
    34   14   16 1
    35   16   17 1
    36   16   18 1
    37   18   19 2
    38   18   39 1
    39   19   20 1
    40   19   22 1
    41   20   21 1
    42   20   40 1
    43   20   41 1
    44   21   42 1
    45   21   43 1
    46   22   44 1
    47   22   45 1
    48   22   46 1
    49   23   47 1
    50   23   48 1
    51   23   49 1
    52   24   50 1
    53   24   51 1
    54   24   52 1
    55   25   53 1
@<TRIPOS>MOLECULE
ZINC01540228
   51    54     0     0     0
SMALL
USER_CHARGES

@<TRIPOS>ATOM
      1 C1          0.4170    1.4732    0.0360 C.3       1 <0>        -0.0850
      2 C2          0.1935   -0.0170    0.0132 C.2       1 <0>        -0.1034
      3 C3          0.1739   -0.8345   -1.0823 C.2       1 <0>         0.0475
      4 N1         -0.0613   -2.1006   -0.6256 N.pl3     1 <0>        -0.2296
      5 N2         -0.1813   -2.0898    0.6532 N.2       1 <0>        -0.2348
      6 C4         -0.0338   -0.8645    1.1195 C.2       1 <0>        -0.0016
      7 C5         -0.0985   -0.4542    2.5368 C.2       1 <0>         0.6243
      8 O1          0.0512    0.7138    2.8390 O.2       1 <0>        -0.4953
      9 N3         -0.3236   -1.3747    3.4952 N.am      1 <0>        -0.5719
     10 N4         -0.3835   -0.9953    4.8060 N.3       1 <0>        -0.2924
     11 C6          0.7092   -1.5991    5.5791 C.3       1 <0>         0.0381
     12 C7          0.6976   -1.0401    7.0037 C.3       1 <0>        -0.1138
     13 C8         -0.6503   -1.3540    7.6589 C.3       1 <0>        -0.1252
     14 C9         -1.7740   -0.7554    6.8084 C.3       1 <0>        -0.1137
     15 C10        -1.6907   -1.3226    5.3895 C.3       1 <0>         0.0385
     16 C11        -0.1580   -3.2413   -1.4326 C.ar      1 <0>         0.1383
     17 C12        -0.9653   -3.2277   -2.5625 C.ar      1 <0>        -0.0784
     18 C13        -1.0587   -4.3534   -3.3568 C.ar      1 <0>        -0.0881
     19 C14        -0.3490   -5.4954   -3.0279 C.ar      1 <0>        -0.0132
     20 C15         0.4560   -5.5128   -1.9027 C.ar      1 <0>        -0.0912
     21 C16         0.5581   -4.3870   -1.1074 C.ar      1 <0>        -0.0121
     22 Cl1         1.5741   -4.4064    0.3001 Cl        1 <0>        -0.0235
     23 Cl2        -0.4696   -6.9086   -4.0289 Cl        1 <0>        -0.0385
     24 C17         0.3696   -0.4268   -2.4910 C.ar      1 <0>        -0.0243
     25 C18        -0.4173    0.5843   -3.0431 C.ar      1 <0>        -0.0792
     26 C19        -0.2304    0.9603   -4.3572 C.ar      1 <0>        -0.1055
     27 C20         0.7359    0.3363   -5.1279 C.ar      1 <0>        -0.0237
     28 C21         1.5198   -0.6678   -4.5852 C.ar      1 <0>        -0.1047
     29 C22         1.3457   -1.0481   -3.2706 C.ar      1 <0>        -0.0846
     30 Cl3         0.9651    0.8142   -6.7810 Cl        1 <0>        -0.0608
     31 H1          1.4830    1.6792    0.1325 H         1 <0>         0.0742
     32 H2          0.0448    1.9106   -0.8905 H         1 <0>         0.0668
     33 H3         -0.1151    1.9075    0.8823 H         1 <0>         0.0894
     34 H4         -0.4431   -2.3066    3.2541 H         1 <0>         0.3863
     35 H5          0.5763   -2.6805    5.6122 H         1 <0>         0.0400
     36 H6          1.6623   -1.3649    5.1049 H         1 <0>         0.0813
     37 H7          1.4991   -1.5002    7.5817 H         1 <0>         0.0737
     38 H8          0.8443    0.0395    6.9722 H         1 <0>         0.0774
     39 H9         -0.7801   -2.4342    7.7259 H         1 <0>         0.0604
     40 H10        -0.6793   -0.9200    8.6584 H         1 <0>         0.0702
     41 H11        -2.7384   -1.0119    7.2468 H         1 <0>         0.0741
     42 H12        -1.6662    0.3287    6.7738 H         1 <0>         0.0774
     43 H13        -2.4808   -0.8875    4.7774 H         1 <0>         0.0821
     44 H14        -1.8124   -2.4053    5.4234 H         1 <0>         0.0406
     45 H15        -1.5200   -2.3374   -2.8196 H         1 <0>         0.1511
     46 H16        -1.6865   -4.3429   -4.2355 H         1 <0>         0.1550
     47 H17         1.0081   -6.4054   -1.6480 H         1 <0>         0.1575
     48 H18        -1.1716    1.0715   -2.4430 H         1 <0>         0.1405
     49 H19        -0.8392    1.7427   -4.7858 H         1 <0>         0.1417
     50 H20         2.2721   -1.1511   -5.1910 H         1 <0>         0.1392
     51 H21         1.9607   -1.8283   -2.8471 H         1 <0>         0.1290
@<TRIPOS>BOND
     1    1    2 1
     2    1   31 1
     3    1   32 1
     4    1   33 1
     5    2    6 1
     6    2    3 2
     7    3    4 1
     8    3   24 1
     9    4    5 1
    10    4   16 1
    11    5    6 2
    12    6    7 1
    13    7    8 2
    14    7    9 am
    15    9   10 1
    16    9   34 1
    17   10   15 1
    18   10   11 1
    19   11   12 1
    20   11   35 1
    21   11   36 1
    22   12   13 1
    23   12   37 1
    24   12   38 1
    25   13   14 1
    26   13   39 1
    27   13   40 1
    28   14   15 1
    29   14   41 1
    30   14   42 1
    31   15   43 1
    32   15   44 1
    33   16   21 ar
    34   16   17 ar
    35   17   18 ar
    36   17   45 1
    37   18   19 ar
    38   18   46 1
    39   19   20 ar
    40   19   23 1
    41   20   21 ar
    42   20   47 1
    43   21   22 1
    44   24   29 ar
    45   24   25 ar
    46   25   26 ar
    47   25   48 1
    48   26   27 ar
    49   26   49 1
    50   27   28 ar
    51   27   30 1
    52   28   29 ar
    53   28   50 1
    54   29   51 1
@<TRIPOS>MOLECULE
ZINC05821097
   53    55     0     0     0
SMALL
USER_CHARGES
dimethyl-methylene-pentyl-BLAHol
@<TRIPOS>ATOM
      1 C1          6.0267   -0.9299   -2.9356 C.3       1 <0>        -0.1541
      2 C2          4.6910   -0.1837   -2.9216 C.3       1 <0>        -0.1261
      3 C3          4.2581    0.0598   -1.4745 C.3       1 <0>        -0.1205
      4 C4          2.9224    0.8060   -1.4605 C.3       1 <0>        -0.1145
      5 C5          2.4895    1.0495   -0.0134 C.3       1 <0>        -0.0807
      6 C6          1.1739    1.7845    0.0004 C.ar      1 <0>        -0.0313
      7 C7         -0.0126    1.0758    0.0080 C.ar      1 <0>        -0.1766
      8 C8         -1.2216    1.7540    0.0174 C.ar      1 <0>         0.1463
      9 C9         -1.2437    3.1425    0.0320 C.ar      1 <0>        -0.1882
     10 C10        -0.0546    3.8525    0.0199 C.ar      1 <0>         0.1586
     11 C11         1.1553    3.1640    0.0051 C.ar      1 <0>        -0.1587
     12 O1         -0.0255    5.2104    0.0144 O.3       1 <0>        -0.3068
     13 C12        -1.2218    5.9221    0.3402 C.3       1 <0>         0.1200
     14 C13        -2.3784    5.2930   -0.4378 C.3       1 <0>        -0.1102
     15 H1         -2.1359    5.2802   -1.5004 H         1 <0>         0.0828
     16 C14        -2.5659    3.8571    0.0588 C.3       1 <0>        -0.0291
     17 H2         -2.9344    3.8758    1.0845 H         1 <0>         0.0816
     18 C15        -3.5875    3.1535   -0.8376 C.3       1 <0>        -0.0830
     19 C16        -4.8597    3.9760   -0.8179 C.2       1 <0>        -0.1231
     20 C17        -6.0144    3.4131   -0.5609 C.2       1 <0>        -0.1953
     21 C18        -4.7717    5.4585   -1.1009 C.3       1 <0>        -0.0876
     22 C19        -3.6738    6.0721   -0.2220 C.3       1 <0>        -0.1080
     23 C20        -1.4923    5.8166    1.8424 C.3       1 <0>        -0.1757
     24 C21        -1.0721    7.3922   -0.0563 C.3       1 <0>        -0.1418
     25 O2         -2.3888    1.0579    0.0180 O.3       1 <0>        -0.4888
     26 H3          5.9142   -1.8859   -2.4243 H         1 <0>         0.0534
     27 H4          6.3351   -1.1034   -3.9666 H         1 <0>         0.0535
     28 H5          6.7823   -0.3319   -2.4261 H         1 <0>         0.0535
     29 H6          3.9355   -0.7816   -3.4312 H         1 <0>         0.0608
     30 H7          4.8036    0.7723   -3.4330 H         1 <0>         0.0609
     31 H8          5.0137    0.6578   -0.9649 H         1 <0>         0.0625
     32 H9          4.1456   -0.8962   -0.9631 H         1 <0>         0.0622
     33 H10         2.1668    0.2081   -1.9701 H         1 <0>         0.0641
     34 H11         3.0349    1.7620   -1.9719 H         1 <0>         0.0645
     35 H12         3.2450    1.6474    0.4962 H         1 <0>         0.0753
     36 H13         2.3770    0.0935    0.4980 H         1 <0>         0.0751
     37 H14         0.0021   -0.0041    0.0020 H         1 <0>         0.1290
     38 H15         2.0852    3.7132   -0.0024 H         1 <0>         0.1306
     39 H16        -3.7885    2.1535   -0.4532 H         1 <0>         0.1044
     40 H17        -3.2064    3.0874   -1.8566 H         1 <0>         0.0693
     41 H18        -6.9150    4.0090   -0.5498 H         1 <0>         0.0960
     42 H19        -6.0656    2.3532   -0.3601 H         1 <0>         0.0981
     43 H20        -5.7274    5.9305   -0.8731 H         1 <0>         0.0707
     44 H21        -4.5284    5.6165   -2.1516 H         1 <0>         0.0725
     45 H22        -3.9674    6.0099    0.8259 H         1 <0>         0.0689
     46 H23        -3.5228    7.1158   -0.4978 H         1 <0>         0.0739
     47 H24        -0.6555    6.2458    2.3933 H         1 <0>         0.0670
     48 H25        -2.4050    6.3604    2.0863 H         1 <0>         0.0751
     49 H26        -1.6093    4.7685    2.1178 H         1 <0>         0.0635
     50 H27        -0.8908    7.4626   -1.1288 H         1 <0>         0.0670
     51 H28        -1.9862    7.9308    0.1938 H         1 <0>         0.0819
     52 H29        -0.2328    7.8305    0.4837 H         1 <0>         0.0684
     53 H30        -2.7228    0.8509    0.9015 H         1 <0>         0.3886
@<TRIPOS>BOND
     1    1    2 1
     2    1   26 1
     3    1   27 1
     4    1   28 1
     5    2    3 1
     6    2   29 1
     7    2   30 1
     8    3    4 1
     9    3   31 1
    10    3   32 1
    11    4    5 1
    12    4   33 1
    13    4   34 1
    14    5    6 1
    15    5   35 1
    16    5   36 1
    17    6   11 ar
    18    6    7 ar
    19    7    8 ar
    20    7   37 1
    21    8    9 ar
    22    8   25 1
    23    9   16 1
    24    9   10 ar
    25   10   11 ar
    26   10   12 1
    27   11   38 1
    28   12   13 1
    29   13   14 1
    30   13   23 1
    31   13   24 1
    32   14   15 1
    33   14   22 1
    34   14   16 1
    35   16   17 1
    36   16   18 1
    37   18   19 1
    38   18   39 1
    39   18   40 1
    40   19   20 2
    41   19   21 1
    42   20   41 1
    43   20   42 1
    44   21   22 1
    45   21   43 1
    46   21   44 1
    47   22   45 1
    48   22   46 1
    49   23   47 1
    50   23   48 1
    51   23   49 1
    52   24   50 1
    53   24   51 1
    54   24   52 1
    55   25   53 1
@<TRIPOS>MOLECULE
ZINC17654244
   61    60     0     0     0
SMALL
USER_CHARGES
(5Z,8Z,11Z,14Z)-1-(fluoro-methoxy-phosphoryl)icosa-5,8,11,14-tetraene
@<TRIPOS>ATOM
      1 C1        -11.8196   13.2176    9.8711 C.3       1 <0>        -0.1543
      2 C2        -10.9707   13.0657    8.6073 C.3       1 <0>        -0.1259
      3 C3        -11.6929   12.1528    7.6145 C.3       1 <0>        -0.1214
      4 C4        -10.8440   12.0009    6.3507 C.3       1 <0>        -0.1145
      5 C5        -11.5663   11.0879    5.3578 C.3       1 <0>        -0.1025
      6 C6        -10.7302   10.9383    4.1130 C.2       1 <0>        -0.1583
      7 C7        -10.4412    9.7445    3.6577 C.2       1 <0>        -0.1532
      8 C8        -11.0768    8.5271    4.2782 C.3       1 <0>        -0.0835
      9 C9        -11.7351    7.7011    3.2034 C.2       1 <0>        -0.1510
     10 C10       -11.4475    6.4284    3.0870 C.2       1 <0>        -0.1520
     11 C11       -10.5979    5.7494    4.1301 C.3       1 <0>        -0.0842
     12 C12       -11.3122    4.5243    4.6402 C.2       1 <0>        -0.1501
     13 C13       -10.7100    3.3610    4.6246 C.2       1 <0>        -0.1521
     14 C14        -9.2524    3.2720    4.2528 C.3       1 <0>        -0.0854
     15 C15        -8.5067    2.5148    5.3213 C.2       1 <0>        -0.1476
     16 C16        -7.7706    1.4804    4.9984 C.2       1 <0>        -0.1622
     17 C17        -7.5360    1.1459    3.5479 C.3       1 <0>        -0.1044
     18 C18        -6.0339    1.0055    3.2934 C.3       1 <0>        -0.1085
     19 C19        -5.7957    0.6658    1.8207 C.3       1 <0>        -0.1174
     20 C20        -4.2936    0.5254    1.5661 C.3       1 <0>        -0.7259
     21 P1         -4.0098    0.1207   -0.1886 P.3       1 <0>         2.2098
     22 O1         -4.5553    1.2024   -1.0388 O.2       1 <0>        -0.9851
     23 O2         -2.4291   -0.0270   -0.4564 O.3       1 <0>        -0.7306
     24 C21        -1.8831   -0.3417   -1.7390 C.3       1 <0>         0.0716
     25 F1         -4.7739   -1.3173   -0.5588 F         1 <0>        -0.3637
     26 H1        -11.9748   12.2386   10.3244 H         1 <0>         0.0533
     27 H2        -11.3050   13.8680   10.5784 H         1 <0>         0.0535
     28 H3        -12.7837   13.6545    9.6109 H         1 <0>         0.0535
     29 H4        -10.0066   12.6288    8.8676 H         1 <0>         0.0604
     30 H5        -10.8154   14.0448    8.1540 H         1 <0>         0.0607
     31 H6        -12.6570   12.5897    7.3542 H         1 <0>         0.0614
     32 H7        -11.8482   11.1737    8.0677 H         1 <0>         0.0609
     33 H8         -9.8799   11.5640    6.6109 H         1 <0>         0.0617
     34 H9        -10.6888   12.9799    5.8974 H         1 <0>         0.0618
     35 H10       -12.5304   11.5248    5.0976 H         1 <0>         0.0689
     36 H11       -11.7216   10.1089    5.8111 H         1 <0>         0.0754
     37 H12       -10.3692   11.8153    3.5963 H         1 <0>         0.1090
     38 H13        -9.7474    9.6327    2.8376 H         1 <0>         0.1088
     39 H14       -11.8255    8.8394    5.0063 H         1 <0>         0.0838
     40 H15       -10.3116    7.9318    4.7765 H         1 <0>         0.0822
     41 H16       -12.4441    8.1584    2.5291 H         1 <0>         0.1102
     42 H17       -11.8193    5.8657    2.2434 H         1 <0>         0.1106
     43 H18       -10.4195    6.4367    4.9571 H         1 <0>         0.0833
     44 H19        -9.6451    5.4570    3.6886 H         1 <0>         0.0832
     45 H20       -12.3204    4.6055    5.0186 H         1 <0>         0.1105
     46 H21       -11.2583    2.4658    4.8782 H         1 <0>         0.1102
     47 H22        -8.8383    4.2763    4.1630 H         1 <0>         0.0841
     48 H23        -9.1514    2.7509    3.3007 H         1 <0>         0.0847
     49 H24        -8.5793    2.8250    6.3533 H         1 <0>         0.1099
     50 H25        -7.3318    0.8674    5.7718 H         1 <0>         0.1089
     51 H26        -7.9377    1.9425    2.9217 H         1 <0>         0.0806
     52 H27        -8.0347    0.2073    3.3062 H         1 <0>         0.0728
     53 H28        -5.6321    0.2089    3.9195 H         1 <0>         0.0625
     54 H29        -5.5351    1.9441    3.5350 H         1 <0>         0.0648
     55 H30        -6.1974    1.4625    1.1945 H         1 <0>         0.0878
     56 H31        -6.2944   -0.2728    1.5790 H         1 <0>         0.0746
     57 H32        -3.8918   -0.2712    2.1923 H         1 <0>         0.1025
     58 H33        -3.7948    1.4640    1.8078 H         1 <0>         0.1213
     59 H34        -2.2668   -1.3066   -2.0704 H         1 <0>         0.0612
     60 H35        -0.7963   -0.3872   -1.6700 H         1 <0>         0.1019
     61 H36        -2.1698    0.4286   -2.4549 H         1 <0>         0.0714
@<TRIPOS>BOND
     1    1    2 1
     2    1   26 1
     3    1   27 1
     4    1   28 1
     5    2    3 1
     6    2   29 1
     7    2   30 1
     8    3    4 1
     9    3   31 1
    10    3   32 1
    11    4    5 1
    12    4   33 1
    13    4   34 1
    14    5    6 1
    15    5   35 1
    16    5   36 1
    17    6    7 2
    18    6   37 1
    19    7    8 1
    20    7   38 1
    21    8    9 1
    22    8   39 1
    23    8   40 1
    24    9   10 2
    25    9   41 1
    26   10   11 1
    27   10   42 1
    28   11   12 1
    29   11   43 1
    30   11   44 1
    31   12   13 2
    32   12   45 1
    33   13   14 1
    34   13   46 1
    35   14   15 1
    36   14   47 1
    37   14   48 1
    38   15   16 2
    39   15   49 1
    40   16   17 1
    41   16   50 1
    42   17   18 1
    43   17   51 1
    44   17   52 1
    45   18   19 1
    46   18   53 1
    47   18   54 1
    48   19   20 1
    49   19   55 1
    50   19   56 1
    51   20   21 1
    52   20   57 1
    53   20   58 1
    54   21   22 2
    55   21   23 1
    56   21   25 1
    57   23   24 1
    58   24   59 1
    59   24   60 1
    60   24   61 1
@<TRIPOS>MOLECULE
ZINC17654246
   61    60     0     0     0
SMALL
USER_CHARGES
(5Z,8Z,11Z,14Z)-1-(fluoro-methoxy-phosphoryl)icosa-5,8,11,14-tetraene
@<TRIPOS>ATOM
      1 C1        -11.8196   13.2177    9.8709 C.3       1 <0>        -0.1543
      2 C2        -10.9707   13.0658    8.6072 C.3       1 <0>        -0.1259
      3 C3        -11.6930   12.1528    7.6143 C.3       1 <0>        -0.1215
      4 C4        -10.8441   12.0009    6.3505 C.3       1 <0>        -0.1144
      5 C5        -11.5664   11.0880    5.3577 C.3       1 <0>        -0.1027
      6 C6        -10.7302   10.9383    4.1129 C.2       1 <0>        -0.1578
      7 C7        -10.4412    9.7445    3.6576 C.2       1 <0>        -0.1535
      8 C8        -11.0768    8.5271    4.2781 C.3       1 <0>        -0.0836
      9 C9        -11.7352    7.7011    3.2033 C.2       1 <0>        -0.1508
     10 C10       -11.4476    6.4284    3.0869 C.2       1 <0>        -0.1523
     11 C11       -10.5979    5.7494    4.1300 C.3       1 <0>        -0.0837
     12 C12       -11.3122    4.5244    4.6401 C.2       1 <0>        -0.1507
     13 C13       -10.7101    3.3610    4.6245 C.2       1 <0>        -0.1519
     14 C14        -9.2524    3.2720    4.2527 C.3       1 <0>        -0.0847
     15 C15        -8.5067    2.5148    5.3213 C.2       1 <0>        -0.1493
     16 C16        -7.7706    1.4805    4.9984 C.2       1 <0>        -0.1608
     17 C17        -7.5360    1.1459    3.5479 C.3       1 <0>        -0.1046
     18 C18        -6.0339    1.0055    3.2933 C.3       1 <0>        -0.1085
     19 C19        -5.7957    0.6658    1.8207 C.3       1 <0>        -0.1173
     20 C20        -4.2936    0.5254    1.5661 C.3       1 <0>        -0.7260
     21 P1         -4.0098    0.1207   -0.1886 P.3       1 <0>         2.2100
     22 O1         -4.6870   -1.1537   -0.5167 O.2       1 <0>        -0.9853
     23 O2         -2.4291   -0.0270   -0.4564 O.3       1 <0>        -0.7306
     24 C21        -1.8831   -0.3417   -1.7390 C.3       1 <0>         0.0715
     25 F1         -4.6253    1.3412   -1.1480 F         1 <0>        -0.3637
     26 H1        -12.7837   13.6546    9.6107 H         1 <0>         0.0535
     27 H2        -11.9749   12.2387   10.3242 H         1 <0>         0.0533
     28 H3        -11.3050   13.8681   10.5783 H         1 <0>         0.0536
     29 H4        -10.0066   12.6289    8.8674 H         1 <0>         0.0603
     30 H5        -10.8155   14.0448    8.1539 H         1 <0>         0.0606
     31 H6        -12.6571   12.5897    7.3540 H         1 <0>         0.0615
     32 H7        -11.8482   11.1738    8.0676 H         1 <0>         0.0609
     33 H8         -9.8800   11.5640    6.6108 H         1 <0>         0.0617
     34 H9        -10.6888   12.9799    5.8972 H         1 <0>         0.0618
     35 H10       -12.5305   11.5249    5.0974 H         1 <0>         0.0691
     36 H11       -11.7216   10.1089    5.8110 H         1 <0>         0.0755
     37 H12       -10.3693   11.8153    3.5961 H         1 <0>         0.1090
     38 H13        -9.7474    9.6327    2.8375 H         1 <0>         0.1085
     39 H14       -11.8255    8.8394    5.0062 H         1 <0>         0.0839
     40 H15       -10.3117    7.9318    4.7764 H         1 <0>         0.0822
     41 H16       -12.4441    8.1584    2.5290 H         1 <0>         0.1102
     42 H17       -11.8193    5.8657    2.2433 H         1 <0>         0.1105
     43 H18       -10.4195    6.4367    4.9570 H         1 <0>         0.0832
     44 H19        -9.6452    5.4570    3.6886 H         1 <0>         0.0827
     45 H20       -12.3205    4.6055    5.0185 H         1 <0>         0.1106
     46 H21       -11.2583    2.4658    4.8782 H         1 <0>         0.1104
     47 H22        -8.8383    4.2763    4.1630 H         1 <0>         0.0835
     48 H23        -9.1514    2.7509    3.3007 H         1 <0>         0.0843
     49 H24        -8.5793    2.8250    6.3532 H         1 <0>         0.1099
     50 H25        -7.3318    0.8675    5.7718 H         1 <0>         0.1093
     51 H26        -7.9377    1.9425    2.9217 H         1 <0>         0.0794
     52 H27        -8.0347    0.2073    3.3062 H         1 <0>         0.0744
     53 H28        -5.6321    0.2089    3.9195 H         1 <0>         0.0646
     54 H29        -5.5351    1.9441    3.5350 H         1 <0>         0.0628
     55 H30        -6.1974    1.4624    1.1945 H         1 <0>         0.0742
     56 H31        -6.2944   -0.2728    1.5790 H         1 <0>         0.0882
     57 H32        -3.8918   -0.2712    2.1923 H         1 <0>         0.1214
     58 H33        -3.7948    1.4640    1.8078 H         1 <0>         0.1025
     59 H34        -2.2668   -1.3067   -2.0703 H         1 <0>         0.0714
     60 H35        -0.7962   -0.3872   -1.6699 H         1 <0>         0.1019
     61 H36        -2.1698    0.4286   -2.4549 H         1 <0>         0.0612
@<TRIPOS>BOND
     1    1    2 1
     2    1   26 1
     3    1   27 1
     4    1   28 1
     5    2    3 1
     6    2   29 1
     7    2   30 1
     8    3    4 1
     9    3   31 1
    10    3   32 1
    11    4    5 1
    12    4   33 1
    13    4   34 1
    14    5    6 1
    15    5   35 1
    16    5   36 1
    17    6    7 2
    18    6   37 1
    19    7    8 1
    20    7   38 1
    21    8    9 1
    22    8   39 1
    23    8   40 1
    24    9   10 2
    25    9   41 1
    26   10   11 1
    27   10   42 1
    28   11   12 1
    29   11   43 1
    30   11   44 1
    31   12   13 2
    32   12   45 1
    33   13   14 1
    34   13   46 1
    35   14   15 1
    36   14   47 1
    37   14   48 1
    38   15   16 2
    39   15   49 1
    40   16   17 1
    41   16   50 1
    42   17   18 1
    43   17   51 1
    44   17   52 1
    45   18   19 1
    46   18   53 1
    47   18   54 1
    48   19   20 1
    49   19   55 1
    50   19   56 1
    51   20   21 1
    52   20   57 1
    53   20   58 1
    54   21   22 2
    55   21   23 1
    56   21   25 1
    57   23   24 1
    58   24   59 1
    59   24   60 1
    60   24   61 1
@<TRIPOS>MOLECULE
ZINC08860468
   65    64     0     0     0
SMALL
USER_CHARGES

@<TRIPOS>ATOM
      1 C1          1.4699    3.0103    1.6795 C.3       1 <0>        -0.1543
      2 C2          1.1470    1.5224    1.8304 C.3       1 <0>        -0.1260
      3 C3          2.2011    0.8593    2.7193 C.3       1 <0>        -0.1214
      4 C4          1.8782   -0.6286    2.8702 C.3       1 <0>        -0.1145
      5 C5          2.9323   -1.2916    3.7591 C.3       1 <0>        -0.1025
      6 C6          2.6142   -2.7572    3.9077 C.2       1 <0>        -0.1581
      7 C7          3.5316   -3.6560    3.6493 C.2       1 <0>        -0.1534
      8 C8          4.9477   -3.2268    3.3638 C.3       1 <0>        -0.0836
      9 C9          5.8898   -3.9597    4.2837 C.2       1 <0>        -0.1511
     10 C10         6.9144   -4.6095    3.7897 C.2       1 <0>        -0.1521
     11 C11         7.2468   -4.4906    2.3247 C.3       1 <0>        -0.0839
     12 C12         8.6877   -4.0777    2.1683 C.2       1 <0>        -0.1518
     13 C13         9.4920   -4.7809    1.4103 C.2       1 <0>        -0.1513
     14 C14         8.9417   -5.8950    0.5577 C.3       1 <0>        -0.0835
     15 C15         9.3779   -5.6965   -0.8711 C.2       1 <0>        -0.1524
     16 C16         9.9891   -6.6633   -1.5096 C.2       1 <0>        -0.1565
     17 C17        10.1105   -8.0256   -0.8767 C.3       1 <0>        -0.1019
     18 C18         9.5949   -9.0878   -1.8497 C.3       1 <0>        -0.0980
     19 C19         9.7182  -10.4708   -1.2070 C.3       1 <0>        -0.1414
     20 C20         9.2103  -11.5171   -2.1654 C.2       1 <0>         0.5114
     21 O1          8.7910  -11.1889   -3.2551 O.2       1 <0>        -0.5402
     22 N1          9.2220  -12.8175   -1.8115 N.am      1 <0>        -0.7255
     23 C21         8.7283  -13.8347   -2.7431 C.3       1 <0>         0.1422
     24 H1          8.9753  -13.5429   -3.7639 H         1 <0>         0.0983
     25 C22         7.2101  -13.9614   -2.6021 C.3       1 <0>        -0.1597
     26 C23         9.3842  -15.1797   -2.4243 C.3       1 <0>         0.0666
     27 O2          8.9668  -15.6182   -1.1299 O.3       1 <0>        -0.5706
     28 H2          2.4534    3.1242    1.2236 H         1 <0>         0.0534
     29 H3          0.7189    3.4826    1.0462 H         1 <0>         0.0535
     30 H4          1.4674    3.4840    2.6612 H         1 <0>         0.0534
     31 H5          0.1635    1.4084    2.2863 H         1 <0>         0.0605
     32 H6          1.1495    1.0487    0.8487 H         1 <0>         0.0606
     33 H7          3.1846    0.9733    2.2634 H         1 <0>         0.0610
     34 H8          2.1986    1.3330    3.7010 H         1 <0>         0.0613
     35 H9          0.8947   -0.7425    3.3261 H         1 <0>         0.0616
     36 H10         1.8807   -1.1023    1.8885 H         1 <0>         0.0620
     37 H11         3.9158   -1.1777    3.3032 H         1 <0>         0.0756
     38 H12         2.9298   -0.8179    4.7408 H         1 <0>         0.0688
     39 H13         1.6300   -3.0664    4.2272 H         1 <0>         0.1088
     40 H14         3.2730   -4.7045    3.6409 H         1 <0>         0.1085
     41 H15         5.1962   -3.4599    2.3284 H         1 <0>         0.0830
     42 H16         5.0419   -2.1533    3.5273 H         1 <0>         0.0840
     43 H17         5.7203   -3.9492    5.3503 H         1 <0>         0.1096
     44 H18         7.5209   -5.2304    4.4324 H         1 <0>         0.1098
     45 H19         7.0897   -5.4528    1.8372 H         1 <0>         0.0835
     46 H20         6.6022   -3.7411    1.8655 H         1 <0>         0.0834
     47 H21         9.0572   -3.2020    2.6812 H         1 <0>         0.1097
     48 H22        10.5496   -4.5623    1.3965 H         1 <0>         0.1098
     49 H23         9.3168   -6.8511    0.9226 H         1 <0>         0.0836
     50 H24         7.8529   -5.8882    0.6094 H         1 <0>         0.0830
     51 H25         9.1867   -4.7572   -1.3685 H         1 <0>         0.1092
     52 H26        10.4060   -6.4842   -2.4897 H         1 <0>         0.1103
     53 H27        11.1560   -8.2251   -0.6416 H         1 <0>         0.0704
     54 H28         9.5202   -8.0546    0.0392 H         1 <0>         0.0765
     55 H29         8.5494   -8.8883   -2.0848 H         1 <0>         0.0709
     56 H30        10.1852   -9.0588   -2.7655 H         1 <0>         0.0705
     57 H31        10.7637  -10.6704   -0.9719 H         1 <0>         0.0935
     58 H32         9.1279  -10.4999   -0.2912 H         1 <0>         0.0936
     59 H33         9.5574  -13.0800   -0.9400 H         1 <0>         0.4046
     60 H34         6.7429  -13.0032   -2.8293 H         1 <0>         0.0590
     61 H35         6.8428  -14.7182   -3.2953 H         1 <0>         0.0633
     62 H36         6.9631  -14.2532   -1.5814 H         1 <0>         0.0664
     63 H37         9.0857  -15.9156   -3.1709 H         1 <0>         0.0625
     64 H38        10.4683  -15.0675   -2.4378 H         1 <0>         0.0529
     65 H39         9.3448  -16.4667   -0.8612 H         1 <0>         0.3836
@<TRIPOS>BOND
     1    1    2 1
     2    1   28 1
     3    1   29 1
     4    1   30 1
     5    2    3 1
     6    2   31 1
     7    2   32 1
     8    3    4 1
     9    3   33 1
    10    3   34 1
    11    4    5 1
    12    4   35 1
    13    4   36 1
    14    5    6 1
    15    5   37 1
    16    5   38 1
    17    6    7 2
    18    6   39 1
    19    7    8 1
    20    7   40 1
    21    8    9 1
    22    8   41 1
    23    8   42 1
    24    9   10 2
    25    9   43 1
    26   10   11 1
    27   10   44 1
    28   11   12 1
    29   11   45 1
    30   11   46 1
    31   12   13 2
    32   12   47 1
    33   13   14 1
    34   13   48 1
    35   14   15 1
    36   14   49 1
    37   14   50 1
    38   15   16 2
    39   15   51 1
    40   16   17 1
    41   16   52 1
    42   17   18 1
    43   17   53 1
    44   17   54 1
    45   18   19 1
    46   18   55 1
    47   18   56 1
    48   19   20 1
    49   19   57 1
    50   19   58 1
    51   20   21 2
    52   20   22 am
    53   22   23 1
    54   22   59 1
    55   23   24 1
    56   23   25 1
    57   23   26 1
    58   25   60 1
    59   25   61 1
    60   25   62 1
    61   26   27 1
    62   26   63 1
    63   26   64 1
    64   27   65 1
@<TRIPOS>MOLECULE
ZINC04654957
   64    63     0     0     0
SMALL
USER_CHARGES

@<TRIPOS>ATOM
      1 C1         -0.4451    2.1287    0.0861 C.3       1 <0>        -0.1543
      2 C2         -0.4043    0.6196   -0.1629 C.3       1 <0>        -0.1259
      3 C3         -1.7788    0.0165    0.1335 C.3       1 <0>        -0.1214
      4 C4         -1.7380   -1.4926   -0.1154 C.3       1 <0>        -0.1145
      5 C5         -3.1125   -2.0957    0.1810 C.3       1 <0>        -0.1025
      6 C6         -3.0723   -3.5821   -0.0643 C.2       1 <0>        -0.1585
      7 C7         -3.4782   -4.4106    0.8657 C.2       1 <0>        -0.1531
      8 C8         -4.1352   -3.8794    2.1136 C.3       1 <0>        -0.0834
      9 C9         -5.4655   -4.5598    2.3095 C.2       1 <0>        -0.1520
     10 C10        -5.7479   -5.1285    3.4552 C.2       1 <0>        -0.1516
     11 C11        -4.8158   -4.9643    4.6280 C.3       1 <0>        -0.0834
     12 C12        -5.5882   -4.4497    5.8153 C.2       1 <0>        -0.1534
     13 C13        -5.5275   -5.0828    6.9605 C.2       1 <0>        -0.1579
     14 C14        -4.5540   -6.2186    7.1430 C.3       1 <0>        -0.1030
     15 C15        -3.7006   -5.9640    8.3871 C.3       1 <0>        -0.1131
     16 C16        -2.7123   -7.1171    8.5724 C.3       1 <0>        -0.1208
     17 C17        -1.8589   -6.8625    9.8165 C.3       1 <0>        -0.1199
     18 C18        -0.8706   -8.0156   10.0018 C.3       1 <0>        -0.1050
     19 C19        -0.0172   -7.7610   11.2459 C.3       1 <0>        -0.1405
     20 C20         0.9563   -8.8968   11.4284 C.2       1 <0>         0.5101
     21 O1          0.9666   -9.8191   10.6408 O.2       1 <0>        -0.5411
     22 N1          1.8155   -8.8877   12.4667 N.am      1 <0>        -0.7287
     23 C21         2.7619   -9.9918   12.6441 C.3       1 <0>         0.1176
     24 C22         3.6152   -9.7372   13.8882 C.3       1 <0>         0.0628
     25 O2          2.7832   -9.7622   15.0497 O.3       1 <0>        -0.5723
     26 H1          0.5341    2.5584   -0.1250 H         1 <0>         0.0535
     27 H2         -1.1902    2.5845   -0.5659 H         1 <0>         0.0534
     28 H3         -0.7083    2.3183    1.1267 H         1 <0>         0.0533
     29 H4         -0.1410    0.4301   -1.2035 H         1 <0>         0.0606
     30 H5          0.3408    0.1638    0.4892 H         1 <0>         0.0605
     31 H6         -2.0420    0.2061    1.1742 H         1 <0>         0.0610
     32 H7         -2.5238    0.4723   -0.5185 H         1 <0>         0.0613
     33 H8         -1.4747   -1.6821   -1.1560 H         1 <0>         0.0616
     34 H9         -0.9929   -1.9484    0.5366 H         1 <0>         0.0620
     35 H10        -3.3757   -1.9061    1.2216 H         1 <0>         0.0756
     36 H11        -3.8575   -1.6399   -0.4711 H         1 <0>         0.0687
     37 H12        -2.7089   -3.9642   -1.0068 H         1 <0>         0.1088
     38 H13        -3.3419   -5.4743    0.7382 H         1 <0>         0.1086
     39 H14        -3.4955   -4.0777    2.9736 H         1 <0>         0.0829
     40 H15        -4.2878   -2.8047    2.0145 H         1 <0>         0.0838
     41 H16        -6.1861   -4.5784    1.5052 H         1 <0>         0.1095
     42 H17        -6.6487   -5.7151    3.5594 H         1 <0>         0.1096
     43 H18        -4.3693   -5.9275    4.8748 H         1 <0>         0.0840
     44 H19        -4.0296   -4.2546    4.3706 H         1 <0>         0.0826
     45 H20        -6.1917   -3.5589    5.7220 H         1 <0>         0.1082
     46 H21        -6.1751   -4.7907    7.7740 H         1 <0>         0.1087
     47 H22        -5.1034   -7.1521    7.2641 H         1 <0>         0.0690
     48 H23        -3.9083   -6.2879    6.2675 H         1 <0>         0.0757
     49 H24        -3.1512   -5.0304    8.2661 H         1 <0>         0.0618
     50 H25        -4.3463   -5.8946    9.2626 H         1 <0>         0.0617
     51 H26        -3.2617   -8.0507    8.6935 H         1 <0>         0.0629
     52 H27        -2.0666   -7.1864    7.6969 H         1 <0>         0.0625
     53 H28        -1.3095   -5.9289    9.6954 H         1 <0>         0.0621
     54 H29        -2.5046   -6.7932   10.6920 H         1 <0>         0.0624
     55 H30        -1.4200   -8.9492   10.1229 H         1 <0>         0.0696
     56 H31        -0.2249   -8.0849    9.1263 H         1 <0>         0.0694
     57 H32         0.5322   -6.8275   11.1248 H         1 <0>         0.0929
     58 H33        -0.6629   -7.6917   12.1214 H         1 <0>         0.0936
     59 H34         1.8073   -8.1500   13.0965 H         1 <0>         0.4035
     60 H35         2.2124  -10.9254   12.7651 H         1 <0>         0.0751
     61 H36         3.4075  -10.0612   11.7686 H         1 <0>         0.0823
     62 H37         4.3776  -10.5119   13.9706 H         1 <0>         0.0647
     63 H38         4.0954   -8.7622   13.8061 H         1 <0>         0.0540
     64 H39         3.2587   -9.6077   15.8775 H         1 <0>         0.3841
@<TRIPOS>BOND
     1    1    2 1
     2    1   26 1
     3    1   27 1
     4    1   28 1
     5    2    3 1
     6    2   29 1
     7    2   30 1
     8    3    4 1
     9    3   31 1
    10    3   32 1
    11    4    5 1
    12    4   33 1
    13    4   34 1
    14    5    6 1
    15    5   35 1
    16    5   36 1
    17    6    7 2
    18    6   37 1
    19    7    8 1
    20    7   38 1
    21    8    9 1
    22    8   39 1
    23    8   40 1
    24    9   10 2
    25    9   41 1
    26   10   11 1
    27   10   42 1
    28   11   12 1
    29   11   43 1
    30   11   44 1
    31   12   13 2
    32   12   45 1
    33   13   14 1
    34   13   46 1
    35   14   15 1
    36   14   47 1
    37   14   48 1
    38   15   16 1
    39   15   49 1
    40   15   50 1
    41   16   17 1
    42   16   51 1
    43   16   52 1
    44   17   18 1
    45   17   53 1
    46   17   54 1
    47   18   19 1
    48   18   55 1
    49   18   56 1
    50   19   20 1
    51   19   57 1
    52   19   58 1
    53   20   21 2
    54   20   22 am
    55   22   23 1
    56   22   59 1
    57   23   24 1
    58   23   60 1
    59   23   61 1
    60   24   25 1
    61   24   62 1
    62   24   63 1
    63   25   64 1
@<TRIPOS>MOLECULE
ZINC13475543
   63    62     0     0     0
SMALL
USER_CHARGES
(5Z,8Z,11Z,13E,15S)-15-hydroxy-N-(2-hydroxyethyl)icosa-5,8,11,13-tetraenamide
@<TRIPOS>ATOM
      1 C1         -0.6315    2.1682   -5.2092 C.3       1 <0>        -0.1542
      2 C2         -1.2218    2.7105   -3.9060 C.3       1 <0>        -0.1259
      3 C3         -0.5748    1.9970   -2.7173 C.3       1 <0>        -0.1209
      4 C4         -1.1651    2.5393   -1.4140 C.3       1 <0>        -0.1177
      5 C5         -0.5180    1.8258   -0.2253 C.3       1 <0>        -0.1456
      6 C6         -1.1083    2.3681    1.0779 C.3       1 <0>         0.1349
      7 H1         -2.1939    2.2730    1.0523 H         1 <0>         0.1083
      8 C7         -0.5625    1.5820    2.2420 C.2       1 <0>        -0.1885
      9 C8          0.0415    2.2117    3.2441 C.2       1 <0>        -0.1242
     10 C9          0.5743    1.4443    4.3805 C.2       1 <0>        -0.1392
     11 C10         1.2554    2.0631    5.3391 C.2       1 <0>        -0.1307
     12 C11         1.3533    3.5669    5.3433 C.3       1 <0>        -0.0839
     13 C12         0.8850    4.0970    6.6739 C.2       1 <0>        -0.1527
     14 C13         1.6444    4.9183    7.3558 C.2       1 <0>        -0.1497
     15 C14         2.9126    5.4553    6.7441 C.3       1 <0>        -0.0836
     16 C15         2.9109    6.9602    6.8242 C.2       1 <0>        -0.1526
     17 C16         3.9286    7.5889    7.3582 C.2       1 <0>        -0.1566
     18 C17         5.1725    6.8258    7.7343 C.3       1 <0>        -0.1017
     19 C18         6.3927    7.4938    7.0972 C.3       1 <0>        -0.0984
     20 C19         7.6556    6.7191    7.4791 C.3       1 <0>        -0.1408
     21 C20         8.8575    7.3770    6.8516 C.2       1 <0>         0.5103
     22 O1          8.7177    8.3679    6.1664 O.2       1 <0>        -0.5403
     23 N1         10.0877    6.8642    7.0518 N.am      1 <0>        -0.7286
     24 C21        11.2561    7.5038    6.4418 C.3       1 <0>         0.1177
     25 C22        12.5190    6.7291    6.8236 C.3       1 <0>         0.0628
     26 O2         12.4648    5.4194    6.2545 O.3       1 <0>        -0.5723
     27 O3         -0.7541    3.7447    1.2248 O.3       1 <0>        -0.5573
     28 H2         -0.8256    1.0979   -5.2783 H         1 <0>         0.0531
     29 H3         -1.0925    2.6765   -6.0561 H         1 <0>         0.0537
     30 H4          0.4442    2.3439   -5.2216 H         1 <0>         0.0532
     31 H5         -2.2975    2.5348   -3.8936 H         1 <0>         0.0606
     32 H6         -1.0277    3.7808   -3.8369 H         1 <0>         0.0611
     33 H7          0.5009    2.1727   -2.7297 H         1 <0>         0.0601
     34 H8         -0.7689    0.9267   -2.7864 H         1 <0>         0.0600
     35 H9         -2.2408    2.3636   -1.4016 H         1 <0>         0.0615
     36 H10        -0.9709    3.6096   -1.3449 H         1 <0>         0.0687
     37 H11        -0.7121    0.7555   -0.2944 H         1 <0>         0.0725
     38 H12         0.5577    2.0015   -0.2377 H         1 <0>         0.0663
     39 H13        -0.6622    0.5068    2.2618 H         1 <0>         0.1167
     40 H14         0.1412    3.2869    3.2243 H         1 <0>         0.1260
     41 H15         0.4119    0.3780    4.4357 H         1 <0>         0.1134
     42 H16         1.7388    1.4883    6.1152 H         1 <0>         0.1138
     43 H17         2.3889    3.8640    5.1778 H         1 <0>         0.0862
     44 H18         0.7272    3.9739    4.5492 H         1 <0>         0.0833
     45 H19        -0.0767    3.7999    7.0654 H         1 <0>         0.1103
     46 H20         1.3616    5.2105    8.3563 H         1 <0>         0.1104
     47 H21         3.7724    5.0636    7.2876 H         1 <0>         0.0839
     48 H22         2.9714    5.1471    5.7002 H         1 <0>         0.0831
     49 H23         2.0707    7.5204    6.4413 H         1 <0>         0.1096
     50 H24         3.8762    8.6540    7.5289 H         1 <0>         0.1105
     51 H25         5.2839    6.8243    8.8186 H         1 <0>         0.0703
     52 H26         5.0916    5.7996    7.3759 H         1 <0>         0.0764
     53 H27         6.2814    7.4953    6.0129 H         1 <0>         0.0711
     54 H28         6.4737    8.5200    7.4556 H         1 <0>         0.0707
     55 H29         7.7670    6.7175    8.5634 H         1 <0>         0.0937
     56 H30         7.5747    5.6929    7.1207 H         1 <0>         0.0939
     57 H31        10.1995    6.0717    7.5998 H         1 <0>         0.4035
     58 H32        11.1447    7.5053    5.3575 H         1 <0>         0.0752
     59 H33        11.3370    8.5300    6.8002 H         1 <0>         0.0824
     60 H34        13.3958    7.2540    6.4445 H         1 <0>         0.0647
     61 H35        12.5833    6.6512    7.9090 H         1 <0>         0.0540
     62 H36        13.2351    4.8708    6.4561 H         1 <0>         0.3841
     63 H37         0.1991    3.9045    1.2551 H         1 <0>         0.3739
@<TRIPOS>BOND
     1    1    2 1
     2    1   28 1
     3    1   29 1
     4    1   30 1
     5    2    3 1
     6    2   31 1
     7    2   32 1
     8    3    4 1
     9    3   33 1
    10    3   34 1
    11    4    5 1
    12    4   35 1
    13    4   36 1
    14    5    6 1
    15    5   37 1
    16    5   38 1
    17    6    7 1
    18    6    8 1
    19    6   27 1
    20    8    9 2
    21    8   39 1
    22    9   10 1
    23    9   40 1
    24   10   11 2
    25   10   41 1
    26   11   12 1
    27   11   42 1
    28   12   13 1
    29   12   43 1
    30   12   44 1
    31   13   14 2
    32   13   45 1
    33   14   15 1
    34   14   46 1
    35   15   16 1
    36   15   47 1
    37   15   48 1
    38   16   17 2
    39   16   49 1
    40   17   18 1
    41   17   50 1
    42   18   19 1
    43   18   51 1
    44   18   52 1
    45   19   20 1
    46   19   53 1
    47   19   54 1
    48   20   21 1
    49   20   55 1
    50   20   56 1
    51   21   22 2
    52   21   23 am
    53   23   24 1
    54   23   57 1
    55   24   25 1
    56   24   58 1
    57   24   59 1
    58   25   26 1
    59   25   60 1
    60   25   61 1
    61   26   62 1
    62   27   63 1
@<TRIPOS>MOLECULE
ZINC13475545
   63    62     0     0     0
SMALL
USER_CHARGES
(5Z,8Z,11Z,13E,15R)-15-hydroxy-N-(2-hydroxyethyl)icosa-5,8,11,13-tetraenamide
@<TRIPOS>ATOM
      1 C1         -0.9900    1.2508    2.7911 C.3       1 <0>        -0.1542
      2 C2         -1.7649    1.6319    1.5280 C.3       1 <0>        -0.1259
      3 C3         -0.9163    1.3168    0.2946 C.3       1 <0>        -0.1207
      4 C4         -1.6911    1.6979   -0.9685 C.3       1 <0>        -0.1176
      5 C5         -0.8425    1.3828   -2.2020 C.3       1 <0>        -0.1476
      6 C6         -1.6174    1.7639   -3.4650 C.3       1 <0>         0.1362
      7 H1         -2.5848    1.2617   -3.4632 H         1 <0>         0.0998
      8 C7         -0.8344    1.3414   -4.6813 C.2       1 <0>        -0.1861
      9 C8         -1.3610    0.4788   -5.5439 C.2       1 <0>        -0.1123
     10 C9         -0.5967    0.0663   -6.7313 C.2       1 <0>        -0.1410
     11 C10        -1.0855   -0.8619   -7.5466 C.2       1 <0>        -0.1281
     12 C11        -2.4847   -1.3830   -7.3425 C.3       1 <0>        -0.0844
     13 C12        -3.2687   -1.2313   -8.6205 C.2       1 <0>        -0.1537
     14 C13        -3.8971   -2.2619   -9.1297 C.2       1 <0>        -0.1488
     15 C14        -3.9670   -3.5566   -8.3616 C.3       1 <0>        -0.0840
     16 C15        -5.4048   -3.9912   -8.2395 C.2       1 <0>        -0.1530
     17 C16        -5.7582   -5.1971   -8.6097 C.2       1 <0>        -0.1561
     18 C17        -4.7066   -6.2060   -8.9937 C.3       1 <0>        -0.1018
     19 C18        -4.9123   -7.4894   -8.1865 C.3       1 <0>        -0.0985
     20 C19        -3.8447   -8.5136   -8.5763 C.3       1 <0>        -0.1408
     21 C20        -4.0472   -9.7777   -7.7813 C.2       1 <0>         0.5104
     22 O1         -4.9560   -9.8521   -6.9816 O.2       1 <0>        -0.5405
     23 N1         -3.2185  -10.8256   -7.9589 N.am      1 <0>        -0.7286
     24 C21        -3.4154  -12.0545   -7.1861 C.3       1 <0>         0.1176
     25 C22        -2.3478  -13.0787   -7.5759 C.3       1 <0>         0.0628
     26 O2         -1.0595  -12.5934   -7.1926 O.3       1 <0>        -0.5723
     27 O3         -1.8152    3.1788   -3.4937 O.3       1 <0>        -0.5556
     28 H2         -1.5946    1.4753    3.6698 H         1 <0>         0.0537
     29 H3         -0.7618    0.1852    2.7696 H         1 <0>         0.0531
     30 H4         -0.0617    1.8204    2.8336 H         1 <0>         0.0531
     31 H5         -1.9931    2.6975    1.5495 H         1 <0>         0.0611
     32 H6         -2.6932    1.0623    1.4856 H         1 <0>         0.0607
     33 H7         -0.6880    0.2511    0.2731 H         1 <0>         0.0600
     34 H8          0.0121    1.8864    0.3370 H         1 <0>         0.0602
     35 H9         -2.6195    1.1282   -1.0110 H         1 <0>         0.0611
     36 H10        -1.9194    2.7635   -0.9471 H         1 <0>         0.0688
     37 H11         0.0858    1.9524   -2.1595 H         1 <0>         0.0664
     38 H12        -0.6143    0.3171   -2.2234 H         1 <0>         0.0722
     39 H13         0.1549    1.7398   -4.8520 H         1 <0>         0.1130
     40 H14        -2.3503    0.0804   -5.3733 H         1 <0>         0.1189
     41 H15         0.3618    0.5181   -6.9402 H         1 <0>         0.1149
     42 H16        -0.4801   -1.2430   -8.3557 H         1 <0>         0.1149
     43 H17        -2.4433   -2.4361   -7.0644 H         1 <0>         0.0871
     44 H18        -2.9712   -0.8164   -6.5484 H         1 <0>         0.0817
     45 H19        -3.3125   -0.2730   -9.1167 H         1 <0>         0.1108
     46 H20        -4.3650   -2.1836  -10.0999 H         1 <0>         0.1108
     47 H21        -3.3992   -4.3231   -8.8891 H         1 <0>         0.0842
     48 H22        -3.5453   -3.4121   -7.3669 H         1 <0>         0.0830
     49 H23        -6.1438   -3.3085   -7.8468 H         1 <0>         0.1095
     50 H24        -6.8032   -5.4683   -8.6397 H         1 <0>         0.1105
     51 H25        -4.7882   -6.4288  -10.0575 H         1 <0>         0.0705
     52 H26        -3.7179   -5.7985   -8.7826 H         1 <0>         0.0764
     53 H27        -4.8307   -7.2665   -7.1226 H         1 <0>         0.0710
     54 H28        -5.9010   -7.8968   -8.3975 H         1 <0>         0.0707
     55 H29        -3.9263   -8.7365   -9.6402 H         1 <0>         0.0937
     56 H30        -2.8560   -8.1062   -8.3653 H         1 <0>         0.0940
     57 H31        -2.4916  -10.7661   -8.5985 H         1 <0>         0.4035
     58 H32        -3.3338  -11.8316   -6.1222 H         1 <0>         0.0752
     59 H33        -4.4041  -12.4619   -7.3971 H         1 <0>         0.0824
     60 H34        -2.5466  -14.0222   -7.0676 H         1 <0>         0.0648
     61 H35        -2.3710  -13.2352   -8.6544 H         1 <0>         0.0540
     62 H36        -0.3327  -13.1932   -7.4096 H         1 <0>         0.3841
     63 H37        -0.9948    3.6907   -3.4969 H         1 <0>         0.3747
@<TRIPOS>BOND
     1    1    2 1
     2    1   28 1
     3    1   29 1
     4    1   30 1
     5    2    3 1
     6    2   31 1
     7    2   32 1
     8    3    4 1
     9    3   33 1
    10    3   34 1
    11    4    5 1
    12    4   35 1
    13    4   36 1
    14    5    6 1
    15    5   37 1
    16    5   38 1
    17    6    7 1
    18    6    8 1
    19    6   27 1
    20    8    9 2
    21    8   39 1
    22    9   10 1
    23    9   40 1
    24   10   11 2
    25   10   41 1
    26   11   12 1
    27   11   42 1
    28   12   13 1
    29   12   43 1
    30   12   44 1
    31   13   14 2
    32   13   45 1
    33   14   15 1
    34   14   46 1
    35   15   16 1
    36   15   47 1
    37   15   48 1
    38   16   17 2
    39   16   49 1
    40   17   18 1
    41   17   50 1
    42   18   19 1
    43   18   51 1
    44   18   52 1
    45   19   20 1
    46   19   53 1
    47   19   54 1
    48   20   21 1
    49   20   55 1
    50   20   56 1
    51   21   22 2
    52   21   23 am
    53   23   24 1
    54   23   57 1
    55   24   25 1
    56   24   58 1
    57   24   59 1
    58   25   26 1
    59   25   60 1
    60   25   61 1
    61   26   62 1
    62   27   63 1
@<TRIPOS>MOLECULE
ZINC04654969
   65    64     0     0     0
SMALL
USER_CHARGES

@<TRIPOS>ATOM
      1 C1          0.6453    3.0200   -2.1184 C.3       1 <0>        -0.1543
      2 C2          0.9747    1.5406   -1.9090 C.3       1 <0>        -0.1259
      3 C3          1.2342    0.8791   -3.2640 C.3       1 <0>        -0.1214
      4 C4          1.5635   -0.6003   -3.0546 C.3       1 <0>        -0.1145
      5 C5          1.8231   -1.2617   -4.4095 C.3       1 <0>        -0.1025
      6 C6          2.1475   -2.7189   -4.2033 C.2       1 <0>        -0.1581
      7 C7          1.4879   -3.6368   -4.8654 C.2       1 <0>        -0.1535
      8 C8          0.5222   -3.2356   -5.9506 C.3       1 <0>        -0.0836
      9 C9          0.8663   -3.9645   -7.2239 C.2       1 <0>        -0.1510
     10 C10        -0.0571   -4.6399   -7.8620 C.2       1 <0>        -0.1522
     11 C11        -1.4947   -4.5556   -7.4178 C.3       1 <0>        -0.0839
     12 C12        -2.3604   -4.1684   -8.5889 C.2       1 <0>        -0.1512
     13 C13        -3.4010   -4.8991   -8.9041 C.2       1 <0>        -0.1518
     14 C14        -3.8363   -6.0212   -7.9973 C.3       1 <0>        -0.0844
     15 C15        -5.2963   -5.8582   -7.6615 C.2       1 <0>        -0.1497
     16 C16        -6.1304   -6.8470   -7.8682 C.2       1 <0>        -0.1584
     17 C17        -5.6088   -8.1980   -8.2850 C.3       1 <0>        -0.1014
     18 C18        -6.1669   -9.2713   -7.3483 C.3       1 <0>        -0.1031
     19 C19        -5.6374  -10.6430   -7.7715 C.3       1 <0>        -0.1141
     20 C20        -6.1871  -11.7002   -6.8489 C.2       1 <0>         0.4571
     21 O1         -6.9265  -11.3885   -5.9455 O.2       1 <0>        -0.5110
     22 O2         -5.8553  -12.9881   -7.0307 O.3       1 <0>        -0.3285
     23 C21        -6.4129  -13.9366   -6.1189 C.3       1 <0>         0.0878
     24 C22        -6.5853  -15.2827   -6.8253 C.3       1 <0>         0.0835
     25 O3         -5.3019  -15.8045   -7.1758 O.3       1 <0>        -0.5357
     26 C23        -5.4752  -14.1053   -4.9217 C.3       1 <0>         0.0625
     27 O4         -4.2428  -14.6810   -5.3594 O.3       1 <0>        -0.5356
     28 H1          1.4846    3.5132   -2.6087 H         1 <0>         0.0534
     29 H2         -0.2437    3.1095   -2.7426 H         1 <0>         0.0534
     30 H3          0.4604    3.4912   -1.1531 H         1 <0>         0.0535
     31 H4          1.8637    1.4511   -1.2847 H         1 <0>         0.0606
     32 H5          0.1353    1.0474   -1.4187 H         1 <0>         0.0605
     33 H6          0.3451    0.9686   -3.8882 H         1 <0>         0.0610
     34 H7          2.0735    1.3723   -3.7542 H         1 <0>         0.0613
     35 H8          2.4526   -0.6897   -2.4303 H         1 <0>         0.0616
     36 H9          0.7242   -1.0935   -2.5643 H         1 <0>         0.0619
     37 H10         0.9340   -1.1722   -5.0338 H         1 <0>         0.0756
     38 H11         2.6624   -0.7685   -4.8998 H         1 <0>         0.0688
     39 H12         2.9237   -3.0063   -3.5096 H         1 <0>         0.1088
     40 H13         1.6361   -4.6812   -4.6336 H         1 <0>         0.1086
     41 H14        -0.4926   -3.4932   -5.6473 H         1 <0>         0.0828
     42 H15         0.5897   -2.1606   -6.1177 H         1 <0>         0.0840
     43 H16         1.8742   -3.9300   -7.6103 H         1 <0>         0.1097
     44 H17         0.2118   -5.2572   -8.7064 H         1 <0>         0.1101
     45 H18        -1.8140   -5.5248   -7.0346 H         1 <0>         0.0834
     46 H19        -1.5889   -3.8055   -6.6326 H         1 <0>         0.0833
     47 H20        -2.1230   -3.2885   -9.1684 H         1 <0>         0.1099
     48 H21        -3.9470   -4.6972   -9.8138 H         1 <0>         0.1101
     49 H22        -3.6838   -6.9756   -8.5013 H         1 <0>         0.0841
     50 H23        -3.2476   -5.9965   -7.0803 H         1 <0>         0.0834
     51 H24        -5.6550   -4.9261   -7.2504 H         1 <0>         0.1098
     52 H25        -7.1917   -6.6940   -7.7398 H         1 <0>         0.1109
     53 H26        -5.9227   -8.4090   -9.3073 H         1 <0>         0.0734
     54 H27        -4.5201   -8.1995   -8.2316 H         1 <0>         0.0790
     55 H28        -5.8530   -9.0603   -6.3260 H         1 <0>         0.0730
     56 H29        -7.2556   -9.2698   -7.4017 H         1 <0>         0.0731
     57 H30        -5.9513  -10.8540   -8.7938 H         1 <0>         0.1072
     58 H31        -4.5487  -10.6445   -7.7181 H         1 <0>         0.1074
     59 H32        -7.3834  -13.5809   -5.7729 H         1 <0>         0.1075
     60 H33        -7.0916  -15.9807   -6.1586 H         1 <0>         0.0635
     61 H34        -7.1806  -15.1457   -7.7280 H         1 <0>         0.0524
     62 H35        -5.3348  -16.6585   -7.6283 H         1 <0>         0.3714
     63 H36        -5.2818  -13.1316   -4.4716 H         1 <0>         0.0474
     64 H37        -5.9408  -14.7601   -4.1850 H         1 <0>         0.0587
     65 H38        -3.5987  -14.8170   -4.6510 H         1 <0>         0.3703
@<TRIPOS>BOND
     1    1    2 1
     2    1   28 1
     3    1   29 1
     4    1   30 1
     5    2    3 1
     6    2   31 1
     7    2   32 1
     8    3    4 1
     9    3   33 1
    10    3   34 1
    11    4    5 1
    12    4   35 1
    13    4   36 1
    14    5    6 1
    15    5   37 1
    16    5   38 1
    17    6    7 2
    18    6   39 1
    19    7    8 1
    20    7   40 1
    21    8    9 1
    22    8   41 1
    23    8   42 1
    24    9   10 2
    25    9   43 1
    26   10   11 1
    27   10   44 1
    28   11   12 1
    29   11   45 1
    30   11   46 1
    31   12   13 2
    32   12   47 1
    33   13   14 1
    34   13   48 1
    35   14   15 1
    36   14   49 1
    37   14   50 1
    38   15   16 2
    39   15   51 1
    40   16   17 1
    41   16   52 1
    42   17   18 1
    43   17   53 1
    44   17   54 1
    45   18   19 1
    46   18   55 1
    47   18   56 1
    48   19   20 1
    49   19   57 1
    50   19   58 1
    51   20   21 2
    52   20   22 1
    53   22   23 1
    54   23   24 1
    55   23   26 1
    56   23   59 1
    57   24   25 1
    58   24   60 1
    59   24   61 1
    60   25   62 1
    61   26   27 1
    62   26   63 1
    63   26   64 1
    64   27   65 1
@<TRIPOS>MOLECULE
ZINC33848576
   53    57     0     0     0
SMALL
USER_CHARGES

@<TRIPOS>ATOM
      1 C1          2.7182   -2.2000   -4.0738 C.ar      1 <0>        -0.1158
      2 C2          3.9146   -1.5080   -3.9011 C.ar      1 <0>        -0.1066
      3 C3          4.2599   -0.9987   -2.6847 C.ar      1 <0>        -0.1088
      4 C4          3.4009   -1.1725   -1.5929 C.ar      1 <0>        -0.0248
      5 C5          2.1832   -1.8754   -1.7651 C.ar      1 <0>        -0.0540
      6 C6          1.8599   -2.3872   -3.0337 C.ar      1 <0>        -0.1018
      7 C7          1.3237   -2.0472   -0.6672 C.ar      1 <0>        -0.0896
      8 C8          1.6503   -1.5453    0.5555 C.ar      1 <0>        -0.1192
      9 C9          2.8326   -0.8503    0.7697 C.ar      1 <0>        -0.0751
     10 C10         3.7294   -0.6437   -0.2710 C.ar      1 <0>        -0.1341
     11 C11         4.9865    0.0939   -0.0463 C.2       1 <0>         0.4748
     12 O1          4.9701    1.3065    0.0606 O.2       1 <0>        -0.4475
     13 C12         6.2581   -0.6342    0.0486 C.2       1 <0>        -0.2576
     14 C13         6.4263   -1.9897    0.0489 C.2       1 <0>         0.1379
     15 N1          7.7433   -2.2873    0.1511 N.pl3     1 <0>        -0.4633
     16 C14         8.4947   -1.1320    0.2223 C.ar      1 <0>         0.0855
     17 C15         7.6063   -0.0465    0.1560 C.ar      1 <0>        -0.0632
     18 C16         8.0921    1.2574    0.2009 C.ar      1 <0>        -0.0708
     19 C17         9.4485    1.4767    0.3073 C.ar      1 <0>        -0.1345
     20 C18        10.3277    0.4059    0.3696 C.ar      1 <0>        -0.0994
     21 C19         9.8596   -0.8900    0.3343 C.ar      1 <0>        -0.1214
     22 C20         8.2932   -3.6449    0.1823 C.3       1 <0>         0.1072
     23 C21         8.4859   -4.0839    1.6352 C.3       1 <0>         0.0386
     24 N2          9.0372   -5.4451    1.6665 N.3       1 <0>        -0.5335
     25 C22         8.0690   -6.4179    1.1396 C.3       1 <0>         0.0104
     26 C23         8.7045   -7.8108    1.1347 C.3       1 <0>         0.0632
     27 O2          9.1345   -8.1377    2.4589 O.3       1 <0>        -0.3836
     28 C24        10.0786   -7.2113    3.0028 C.3       1 <0>         0.0633
     29 C25         9.4571   -5.8124    3.0266 C.3       1 <0>         0.0187
     30 H1          2.4656   -2.5903   -5.0486 H         1 <0>         0.1259
     31 H2          4.5781   -1.3733   -4.7426 H         1 <0>         0.1256
     32 H3          5.1908   -0.4647   -2.5638 H         1 <0>         0.1255
     33 H4          0.9356   -2.9257   -3.1825 H         1 <0>         0.1303
     34 H5          0.3944   -2.5825   -0.7944 H         1 <0>         0.1301
     35 H6          0.9704   -1.6916    1.3817 H         1 <0>         0.1291
     36 H7          3.0571   -0.4666    1.7539 H         1 <0>         0.1291
     37 H8          5.6290   -2.7148   -0.0215 H         1 <0>         0.1760
     38 H9          7.4094    2.0928    0.1522 H         1 <0>         0.1313
     39 H10         9.8286    2.4870    0.3421 H         1 <0>         0.1266
     40 H11        11.3887    0.5891    0.4529 H         1 <0>         0.1281
     41 H12        10.5529   -1.7167    0.3819 H         1 <0>         0.1219
     42 H13         7.6041   -4.3275   -0.3152 H         1 <0>         0.0948
     43 H14         9.2540   -3.6596   -0.3322 H         1 <0>         0.1025
     44 H15         9.1749   -3.4013    2.1326 H         1 <0>         0.0863
     45 H16         7.5251   -4.0691    2.1497 H         1 <0>         0.0451
     46 H17         7.1805   -6.4254    1.7709 H         1 <0>         0.0473
     47 H18         7.7914   -6.1409    0.1226 H         1 <0>         0.0875
     48 H19         7.9714   -8.5441    0.7987 H         1 <0>         0.1007
     49 H20         9.5617   -7.8174    0.4616 H         1 <0>         0.0620
     50 H21        10.3394   -7.5111    4.0178 H         1 <0>         0.1014
     51 H22        10.9759   -7.2005    2.3840 H         1 <0>         0.0622
     52 H23        10.1928   -5.0934    3.3871 H         1 <0>         0.0894
     53 H24         8.5907   -5.8102    3.6881 H         1 <0>         0.0464
@<TRIPOS>BOND
     1    1    6 ar
     2    1    2 ar
     3    1   30 1
     4    2    3 ar
     5    2   31 1
     6    3    4 ar
     7    3   32 1
     8    4   10 ar
     9    4    5 ar
    10    5    6 ar
    11    5    7 ar
    12    6   33 1
    13    7    8 ar
    14    7   34 1
    15    8    9 ar
    16    8   35 1
    17    9   10 ar
    18    9   36 1
    19   10   11 1
    20   11   12 2
    21   11   13 1
    22   13   17 1
    23   13   14 2
    24   14   15 1
    25   14   37 1
    26   15   16 1
    27   15   22 1
    28   16   21 ar
    29   16   17 ar
    30   17   18 ar
    31   18   19 ar
    32   18   38 1
    33   19   20 ar
    34   19   39 1
    35   20   21 ar
    36   20   40 1
    37   21   41 1
    38   22   23 1
    39   22   42 1
    40   22   43 1
    41   23   24 1
    42   23   44 1
    43   23   45 1
    44   24   29 1
    45   24   25 1
    46   25   26 1
    47   25   46 1
    48   25   47 1
    49   26   27 1
    50   26   48 1
    51   26   49 1
    52   27   28 1
    53   28   29 1
    54   28   50 1
    55   28   51 1
    56   29   52 1
    57   29   53 1
@<TRIPOS>MOLECULE
ZINC30691168
   54    57     0     0     0
SMALL
USER_CHARGES

@<TRIPOS>ATOM
      1 C1         -0.0407    1.5177   -0.0007 C.3       1 <0>        -0.1040
      2 C2         -0.0085    0.0110    0.0001 C.2       1 <0>         0.1343
      3 C3          0.0071   -0.7753   -1.1165 C.2       1 <0>        -0.2466
      4 C4          0.0374   -2.1715   -0.6431 C.ar      1 <0>        -0.0685
      5 C5          0.0631   -3.4090   -1.2813 C.ar      1 <0>        -0.0756
      6 C6          0.0885   -4.5635   -0.5299 C.ar      1 <0>        -0.1356
      7 C7          0.0886   -4.4968    0.8559 C.ar      1 <0>        -0.0990
      8 C8          0.0633   -3.2791    1.5001 C.ar      1 <0>        -0.1235
      9 C9          0.0374   -2.1022    0.7590 C.ar      1 <0>         0.0951
     10 N1          0.0152   -0.7672    1.1079 N.pl3     1 <0>        -0.4676
     11 C10         0.0132   -0.2629    2.4834 C.3       1 <0>         0.1095
     12 C11        -1.4297   -0.1182    2.9714 C.3       1 <0>         0.0379
     13 N2         -1.4317    0.3875    4.3507 N.3       1 <0>        -0.5333
     14 C12        -0.8543   -0.5997    5.2745 C.3       1 <0>         0.0107
     15 C13        -0.8211   -0.0102    6.6871 C.3       1 <0>         0.0634
     16 O1         -2.1439    0.3783    7.0673 O.3       1 <0>        -0.3837
     17 C14        -2.7364    1.3394    6.1895 C.3       1 <0>         0.0635
     18 C15        -2.7890    0.7637    4.7719 C.3       1 <0>         0.0182
     19 C16        -0.0046   -0.3203   -2.5124 C.2       1 <0>         0.4835
     20 O2         -1.0579   -0.2370   -3.1165 O.2       1 <0>        -0.4486
     21 C17         1.2615    0.0361   -3.1832 C.ar      1 <0>        -0.2022
     22 C18         2.4813   -0.1708   -2.5332 C.ar      1 <0>        -0.0198
     23 C19         3.6598    0.1625   -3.1625 C.ar      1 <0>        -0.1673
     24 C20         3.6375    0.7041   -4.4426 C.ar      1 <0>         0.1613
     25 C21         2.4263    0.9119   -5.0924 C.ar      1 <0>        -0.2239
     26 C22         1.2436    0.5759   -4.4723 C.ar      1 <0>        -0.0189
     27 O3          4.8012    1.0313   -5.0594 O.3       1 <0>        -0.3125
     28 C23         4.7058    1.5834   -6.3740 C.3       1 <0>         0.0236
     29 H1          0.9790    1.9028   -0.0075 H         1 <0>         0.0868
     30 H2         -0.5678    1.8693   -0.8876 H         1 <0>         0.0859
     31 H3         -0.5565    1.8706    0.8923 H         1 <0>         0.0775
     32 H4          0.0627   -3.4634   -2.3599 H         1 <0>         0.1217
     33 H5          0.1082   -5.5248   -1.0218 H         1 <0>         0.1259
     34 H6          0.1083   -5.4081    1.4352 H         1 <0>         0.1272
     35 H7          0.0632   -3.2385    2.5794 H         1 <0>         0.1176
     36 H8          0.5462   -0.9623    3.1275 H         1 <0>         0.0913
     37 H9          0.5066    0.7085    2.5150 H         1 <0>         0.1024
     38 H10        -1.9627    0.5812    2.3273 H         1 <0>         0.0844
     39 H11        -1.9231   -1.0896    2.9398 H         1 <0>         0.0455
     40 H12        -1.4653   -1.5023    5.2711 H         1 <0>         0.0471
     41 H13         0.1597   -0.8446    4.9584 H         1 <0>         0.0874
     42 H14        -0.4469   -0.7590    7.3852 H         1 <0>         0.1004
     43 H15        -0.1671    0.8616    6.7024 H         1 <0>         0.0618
     44 H16        -3.7473    1.5668    6.5278 H         1 <0>         0.1010
     45 H17        -2.1381    2.2505    6.1903 H         1 <0>         0.0620
     46 H18        -3.1873    1.5140    4.0889 H         1 <0>         0.0890
     47 H19        -3.4309   -0.1172    4.7604 H         1 <0>         0.0463
     48 H20         2.4995   -0.5912   -1.5386 H         1 <0>         0.1371
     49 H21         4.6028    0.0033   -2.6608 H         1 <0>         0.1369
     50 H22         2.4131    1.3335   -6.0866 H         1 <0>         0.1352
     51 H23         0.3033    0.7335   -4.9795 H         1 <0>         0.1368
     52 H24         4.2157    0.8676   -7.0340 H         1 <0>         0.0594
     53 H25         4.1234    2.5041   -6.3400 H         1 <0>         0.0593
     54 H26         5.7055    1.7995   -6.7507 H         1 <0>         0.1039
@<TRIPOS>BOND
     1    1    2 1
     2    1   29 1
     3    1   30 1
     4    1   31 1
     5    2   10 1
     6    2    3 2
     7    3    4 1
     8    3   19 1
     9    4    9 ar
    10    4    5 ar
    11    5    6 ar
    12    5   32 1
    13    6    7 ar
    14    6   33 1
    15    7    8 ar
    16    7   34 1
    17    8    9 ar
    18    8   35 1
    19    9   10 1
    20   10   11 1
    21   11   12 1
    22   11   36 1
    23   11   37 1
    24   12   13 1
    25   12   38 1
    26   12   39 1
    27   13   18 1
    28   13   14 1
    29   14   15 1
    30   14   40 1
    31   14   41 1
    32   15   16 1
    33   15   42 1
    34   15   43 1
    35   16   17 1
    36   17   18 1
    37   17   44 1
    38   17   45 1
    39   18   46 1
    40   18   47 1
    41   19   20 2
    42   19   21 1
    43   21   26 ar
    44   21   22 ar
    45   22   23 ar
    46   22   48 1
    47   23   24 ar
    48   23   49 1
    49   24   25 ar
    50   24   27 1
    51   25   26 ar
    52   25   50 1
    53   26   51 1
    54   27   28 1
    55   28   52 1
    56   28   53 1
    57   28   54 1
@<TRIPOS>MOLECULE
ZINC03949401
   43    44     0     0     0
SMALL
USER_CHARGES

@<TRIPOS>ATOM
      1 C1         -0.0280    1.4371   -0.0849 C.ar      1 <0>        -0.0803
      2 C2          1.1697    2.1263   -0.0815 C.ar      1 <0>        -0.1174
      3 C3          2.3704    1.4329   -0.0243 C.ar      1 <0>         0.0980
      4 C4          2.3675    0.0471    0.0301 C.ar      1 <0>        -0.0881
      5 C5          1.1647   -0.6417    0.0270 C.ar      1 <0>         0.0816
      6 C6         -0.0335    0.0566   -0.0308 C.ar      1 <0>        -0.1267
      7 O1          1.1586   -1.9996    0.0797 O.3       1 <0>        -0.6561
      8 S1          1.1213   -2.5642    1.4926 S.o2      1 <0>         2.5920
      9 O2          1.3832   -3.9520    1.3356 O.2       1 <0>        -0.9134
     10 O3          2.0078   -1.7393    2.2362 O.2       1 <0>        -0.9409
     11 C7         -0.5856   -2.3097    2.0514 C.3       1 <0>        -0.6546
     12 C8         -0.7411   -2.8456    3.4760 C.3       1 <0>        -0.1169
     13 C9         -2.1808   -2.6310    3.9473 C.3       1 <0>        -0.1588
     14 C10        -2.3363   -3.1669    5.3720 C.3       1 <0>         0.4505
     15 F1         -1.4602   -2.4865    6.2244 F         1 <0>        -0.1813
     16 F2         -3.6527   -2.9707    5.8029 F         1 <0>        -0.1814
     17 F3         -2.0382   -4.5337    5.3912 F         1 <0>        -0.1808
     18 O4          3.5479    2.1110   -0.0219 O.3       1 <0>        -0.2390
     19 C11         3.8453    2.8672    1.0648 C.ar      1 <0>         0.1650
     20 C12         3.0257    2.8328    2.1828 C.ar      1 <0>        -0.1617
     21 C13         3.3293    3.6033    3.2879 C.ar      1 <0>        -0.0481
     22 C14         4.4521    4.4145    3.2896 C.ar      1 <0>        -0.0956
     23 C15         5.2782    4.4608    2.1874 C.ar      1 <0>        -0.1075
     24 C16         4.9858    3.6825    1.0646 C.ar      1 <0>         0.0016
     25 C17         5.8429    3.7216   -0.0819 C.1       1 <0>         0.2346
     26 N1          6.5228    3.7527   -0.9915 N.1       1 <0>        -0.3690
     27 C18         6.4980    5.3458    2.1952 C.3       1 <0>         0.5070
     28 F4          6.5797    6.0165    3.4203 F         1 <0>        -0.1667
     29 F5          7.6433    4.5628    2.0150 F         1 <0>        -0.1681
     30 F6          6.4034    6.2795    1.1578 F         1 <0>        -0.1686
     31 H1         -0.9615    1.9787   -0.1253 H         1 <0>         0.1545
     32 H2          1.1714    3.2055   -0.1238 H         1 <0>         0.1497
     33 H3          3.3009   -0.4945    0.0743 H         1 <0>         0.1557
     34 H4         -0.9709   -0.4798   -0.0335 H         1 <0>         0.1511
     35 H5         -0.8179   -1.2449    2.0364 H         1 <0>         0.1409
     36 H6         -1.2682   -2.8399    1.3873 H         1 <0>         0.1468
     37 H7         -0.5088   -3.9105    3.4910 H         1 <0>         0.0976
     38 H8         -0.0585   -2.3155    4.1402 H         1 <0>         0.0977
     39 H9         -2.4131   -1.5662    3.9324 H         1 <0>         0.1166
     40 H10        -2.8634   -3.1612    3.2832 H         1 <0>         0.1172
     41 H11         2.1484    2.2028    2.1891 H         1 <0>         0.1521
     42 H12         2.6873    3.5734    4.1559 H         1 <0>         0.1538
     43 H13         4.6810    5.0137    4.1585 H         1 <0>         0.1570
@<TRIPOS>BOND
     1    1    6 ar
     2    1    2 ar
     3    1   31 1
     4    2    3 ar
     5    2   32 1
     6    3    4 ar
     7    3   18 1
     8    4    5 ar
     9    4   33 1
    10    5    6 ar
    11    5    7 1
    12    6   34 1
    13    7    8 1
    14    8    9 2
    15    8   10 2
    16    8   11 1
    17   11   12 1
    18   11   35 1
    19   11   36 1
    20   12   13 1
    21   12   37 1
    22   12   38 1
    23   13   14 1
    24   13   39 1
    25   13   40 1
    26   14   15 1
    27   14   16 1
    28   14   17 1
    29   18   19 1
    30   19   24 ar
    31   19   20 ar
    32   20   21 ar
    33   20   41 1
    34   21   22 ar
    35   21   42 1
    36   22   23 ar
    37   22   43 1
    38   23   24 ar
    39   23   27 1
    40   24   25 1
    41   25   26 3
    42   27   28 1
    43   27   29 1
    44   27   30 1
@<TRIPOS>MOLECULE
ZINC04102443
   73    73     0     0     0
SMALL
USER_CHARGES

@<TRIPOS>ATOM
      1 C1          0.6453    3.0200   -2.1184 C.3       1 <0>        -0.1543
      2 C2          0.9747    1.5406   -1.9090 C.3       1 <0>        -0.1260
      3 C3          1.2342    0.8791   -3.2640 C.3       1 <0>        -0.1214
      4 C4          1.5635   -0.6003   -3.0546 C.3       1 <0>        -0.1145
      5 C5          1.8231   -1.2617   -4.4095 C.3       1 <0>        -0.1026
      6 C6          2.1475   -2.7189   -4.2033 C.2       1 <0>        -0.1579
      7 C7          1.4879   -3.6368   -4.8654 C.2       1 <0>        -0.1536
      8 C8          0.5222   -3.2356   -5.9506 C.3       1 <0>        -0.0837
      9 C9          0.8663   -3.9645   -7.2239 C.2       1 <0>        -0.1508
     10 C10        -0.0571   -4.6399   -7.8620 C.2       1 <0>        -0.1524
     11 C11        -1.4947   -4.5556   -7.4178 C.3       1 <0>        -0.0837
     12 C12        -2.3604   -4.1684   -8.5889 C.2       1 <0>        -0.1516
     13 C13        -3.4010   -4.8991   -8.9041 C.2       1 <0>        -0.1517
     14 C14        -3.8363   -6.0212   -7.9973 C.3       1 <0>        -0.0833
     15 C15        -5.2963   -5.8582   -7.6615 C.2       1 <0>        -0.1521
     16 C16        -6.1304   -6.8470   -7.8682 C.2       1 <0>        -0.1570
     17 C17        -5.6088   -8.1980   -8.2850 C.3       1 <0>        -0.1018
     18 C18        -6.1669   -9.2713   -7.3483 C.3       1 <0>        -0.0988
     19 C19        -5.6374  -10.6430   -7.7715 C.3       1 <0>        -0.1414
     20 C20        -6.1871  -11.7002   -6.8489 C.2       1 <0>         0.5113
     21 O1         -6.9293  -11.3874   -5.9421 O.2       1 <0>        -0.5370
     22 N1         -5.8539  -12.9933   -7.0314 N.am      1 <0>        -0.7358
     23 C21        -6.3883  -14.0210   -6.1345 C.3       1 <0>         0.1234
     24 C22        -5.8588  -15.3927   -6.5577 C.3       1 <0>        -0.0911
     25 C23        -6.4085  -16.4499   -5.6351 C.ar      1 <0>        -0.0758
     26 C24        -5.7188  -16.7886   -4.4857 C.ar      1 <0>        -0.1047
     27 C25        -6.2188  -17.7578   -3.6362 C.ar      1 <0>        -0.1272
     28 C26        -7.4141  -18.3917   -3.9355 C.ar      1 <0>         0.0801
     29 C27        -8.1085  -18.0504   -5.0921 C.ar      1 <0>         0.0834
     30 C28        -7.6041  -17.0747   -5.9369 C.ar      1 <0>        -0.1240
     31 O2         -9.2820  -18.6697   -5.3902 O.3       1 <0>        -0.4879
     32 O3         -7.9072  -19.3456   -3.1010 O.3       1 <0>        -0.4883
     33 H1          1.4846    3.5132   -2.6087 H         1 <0>         0.0534
     34 H2         -0.2437    3.1095   -2.7426 H         1 <0>         0.0534
     35 H3          0.4604    3.4912   -1.1531 H         1 <0>         0.0535
     36 H4          1.8637    1.4511   -1.2847 H         1 <0>         0.0605
     37 H5          0.1353    1.0474   -1.4187 H         1 <0>         0.0606
     38 H6          0.3451    0.9686   -3.8882 H         1 <0>         0.0610
     39 H7          2.0735    1.3723   -3.7542 H         1 <0>         0.0613
     40 H8          2.4526   -0.6897   -2.4303 H         1 <0>         0.0616
     41 H9          0.7242   -1.0935   -2.5643 H         1 <0>         0.0620
     42 H10         0.9340   -1.1722   -5.0338 H         1 <0>         0.0756
     43 H11         2.6624   -0.7685   -4.8998 H         1 <0>         0.0688
     44 H12         2.9237   -3.0063   -3.5096 H         1 <0>         0.1089
     45 H13         1.6361   -4.6812   -4.6336 H         1 <0>         0.1085
     46 H14        -0.4926   -3.4932   -5.6473 H         1 <0>         0.0829
     47 H15         0.5897   -2.1606   -6.1177 H         1 <0>         0.0841
     48 H16         1.8742   -3.9300   -7.6103 H         1 <0>         0.1097
     49 H17         0.2118   -5.2572   -8.7064 H         1 <0>         0.1098
     50 H18        -1.8140   -5.5248   -7.0346 H         1 <0>         0.0833
     51 H19        -1.5889   -3.8055   -6.6326 H         1 <0>         0.0834
     52 H20        -2.1230   -3.2885   -9.1684 H         1 <0>         0.1098
     53 H21        -3.9470   -4.6972   -9.8138 H         1 <0>         0.1098
     54 H22        -3.6838   -6.9756   -8.5013 H         1 <0>         0.0835
     55 H23        -3.2476   -5.9965   -7.0803 H         1 <0>         0.0830
     56 H24        -5.6550   -4.9261   -7.2504 H         1 <0>         0.1093
     57 H25        -7.1917   -6.6940   -7.7398 H         1 <0>         0.1103
     58 H26        -5.9227   -8.4090   -9.3073 H         1 <0>         0.0706
     59 H27        -4.5201   -8.1995   -8.2316 H         1 <0>         0.0766
     60 H28        -5.8530   -9.0603   -6.3260 H         1 <0>         0.0710
     61 H29        -7.2556   -9.2698   -7.4017 H         1 <0>         0.0707
     62 H30        -5.9513  -10.8540   -8.7938 H         1 <0>         0.0945
     63 H31        -4.5487  -10.6445   -7.7181 H         1 <0>         0.0941
     64 H32        -5.2603  -13.2435   -7.7566 H         1 <0>         0.4017
     65 H33        -6.0744  -13.8100   -5.1122 H         1 <0>         0.0703
     66 H34        -7.4770  -14.0195   -6.1879 H         1 <0>         0.0693
     67 H35        -6.1727  -15.6037   -7.5800 H         1 <0>         0.0826
     68 H36        -4.7701  -15.3942   -6.5043 H         1 <0>         0.0838
     69 H37        -4.7871  -16.2953   -4.2513 H         1 <0>         0.1315
     70 H38        -5.6778  -18.0211   -2.7393 H         1 <0>         0.1355
     71 H39        -8.1430  -16.8053   -6.8332 H         1 <0>         0.1341
     72 H40       -10.0626  -18.2284   -5.0284 H         1 <0>         0.3889
     73 H41        -8.4910  -19.0012   -2.4114 H         1 <0>         0.3888
@<TRIPOS>BOND
     1    1    2 1
     2    1   33 1
     3    1   34 1
     4    1   35 1
     5    2    3 1
     6    2   36 1
     7    2   37 1
     8    3    4 1
     9    3   38 1
    10    3   39 1
    11    4    5 1
    12    4   40 1
    13    4   41 1
    14    5    6 1
    15    5   42 1
    16    5   43 1
    17    6    7 2
    18    6   44 1
    19    7    8 1
    20    7   45 1
    21    8    9 1
    22    8   46 1
    23    8   47 1
    24    9   10 2
    25    9   48 1
    26   10   11 1
    27   10   49 1
    28   11   12 1
    29   11   50 1
    30   11   51 1
    31   12   13 2
    32   12   52 1
    33   13   14 1
    34   13   53 1
    35   14   15 1
    36   14   54 1
    37   14   55 1
    38   15   16 2
    39   15   56 1
    40   16   17 1
    41   16   57 1
    42   17   18 1
    43   17   58 1
    44   17   59 1
    45   18   19 1
    46   18   60 1
    47   18   61 1
    48   19   20 1
    49   19   62 1
    50   19   63 1
    51   20   21 2
    52   20   22 am
    53   22   23 1
    54   22   64 1
    55   23   24 1
    56   23   65 1
    57   23   66 1
    58   24   25 1
    59   24   67 1
    60   24   68 1
    61   25   30 ar
    62   25   26 ar
    63   26   27 ar
    64   26   69 1
    65   27   28 ar
    66   27   70 1
    67   28   29 ar
    68   28   32 1
    69   29   30 ar
    70   29   31 1
    71   30   71 1
    72   31   72 1
    73   32   73 1
@<TRIPOS>MOLECULE
ZINC13760073
   66    65     0     0     0
SMALL
USER_CHARGES
(5Z,8Z,11Z,14Z)-N-[2-hydroxy-1-(hydroxymethyl)ethyl]icosa-5,8,11,14-tetraenamide
@<TRIPOS>ATOM
      1 C1          1.8622   -0.7602   -4.9515 C.3       1 <0>        -0.1543
      2 C2          1.3560    0.0455   -3.7534 C.3       1 <0>        -0.1259
      3 C3          1.6704   -0.7106   -2.4609 C.3       1 <0>        -0.1214
      4 C4          1.1642    0.0951   -1.2627 C.3       1 <0>        -0.1145
      5 C5          1.4787   -0.6609    0.0297 C.3       1 <0>        -0.1026
      6 C6          0.9800    0.1326    1.2099 C.2       1 <0>        -0.1581
      7 C7          0.2026   -0.4342    2.0989 C.2       1 <0>        -0.1534
      8 C8         -0.0603   -1.9167    2.0341 C.3       1 <0>        -0.0837
      9 C9          0.2658   -2.5434    3.3653 C.2       1 <0>        -0.1511
     10 C10        -0.6188   -3.2986    3.9680 C.2       1 <0>        -0.1520
     11 C11        -1.8950   -3.6754    3.2605 C.3       1 <0>        -0.0837
     12 C12        -2.0561   -5.1736    3.2791 C.2       1 <0>        -0.1521
     13 C13        -3.1634   -5.7078    3.7315 C.2       1 <0>        -0.1512
     14 C14        -4.3410   -4.8296    4.0679 C.3       1 <0>        -0.0834
     15 C15        -5.5641   -5.3304    3.3439 C.2       1 <0>        -0.1527
     16 C16        -6.6597   -5.5922    4.0125 C.2       1 <0>        -0.1562
     17 C17        -6.7526   -5.2394    5.4747 C.3       1 <0>        -0.1021
     18 C18        -8.0167   -4.4133    5.7207 C.3       1 <0>        -0.0976
     19 C19        -8.1110   -4.0551    7.2052 C.3       1 <0>        -0.1409
     20 C20        -9.3561   -3.2414    7.4475 C.2       1 <0>         0.5116
     21 O1        -10.0952   -2.9743    6.5238 O.2       1 <0>        -0.5445
     22 N1         -9.6482   -2.8105    8.6907 N.am      1 <0>        -0.7166
     23 C21       -10.8586   -2.0195    8.9262 C.3       1 <0>         0.1469
     24 C22       -12.0496   -2.9581    9.1301 C.3       1 <0>         0.0667
     25 O2        -11.8572   -3.7194   10.3240 O.3       1 <0>        -0.5430
     26 C23       -10.6691   -1.1572   10.1758 C.3       1 <0>         0.0707
     27 O3        -10.5400   -2.0010   11.3218 O.3       1 <0>        -0.5433
     28 H1          2.9397   -0.9007   -4.8657 H         1 <0>         0.0534
     29 H2          1.3694   -1.7322   -4.9701 H         1 <0>         0.0534
     30 H3          1.6382   -0.2216   -5.8723 H         1 <0>         0.0535
     31 H4          0.2785    0.1860   -3.8391 H         1 <0>         0.0606
     32 H5          1.8488    1.0175   -3.7348 H         1 <0>         0.0605
     33 H6          2.7479   -0.8511   -2.3751 H         1 <0>         0.0613
     34 H7          1.1776   -1.6826   -2.4795 H         1 <0>         0.0611
     35 H8          0.0867    0.2356   -1.3485 H         1 <0>         0.0620
     36 H9          1.6570    1.0671   -1.2442 H         1 <0>         0.0616
     37 H10         0.9858   -1.6330    0.0111 H         1 <0>         0.0756
     38 H11         2.5562   -0.8014    0.1155 H         1 <0>         0.0688
     39 H12         1.2636    1.1686    1.3226 H         1 <0>         0.1088
     40 H13        -0.2498    0.1609    2.8784 H         1 <0>         0.1085
     41 H14        -1.1104   -2.0895    1.7987 H         1 <0>         0.0830
     42 H15         0.5638   -2.3629    1.2599 H         1 <0>         0.0840
     43 H16         1.2288   -2.3698    3.8224 H         1 <0>         0.1096
     44 H17        -0.4335   -3.6512    4.9719 H         1 <0>         0.1098
     45 H18        -2.7417   -3.2126    3.7674 H         1 <0>         0.0834
     46 H19        -1.8547   -3.3271    2.2285 H         1 <0>         0.0833
     47 H20        -1.2586   -5.8070    2.9195 H         1 <0>         0.1097
     48 H21        -3.2323   -6.7775    3.8634 H         1 <0>         0.1098
     49 H22        -4.5187   -4.8564    5.1430 H         1 <0>         0.0837
     50 H23        -4.1302   -3.8055    3.7599 H         1 <0>         0.0828
     51 H24        -5.5374   -5.4734    2.2737 H         1 <0>         0.1091
     52 H25        -7.4964   -6.0609    3.5159 H         1 <0>         0.1102
     53 H26        -6.7949   -6.1534    6.0671 H         1 <0>         0.0707
     54 H27        -5.8769   -4.6587    5.7647 H         1 <0>         0.0765
     55 H28        -7.9744   -3.4993    5.1284 H         1 <0>         0.0707
     56 H29        -8.8924   -4.9940    5.4307 H         1 <0>         0.0701
     57 H30        -8.1533   -4.9691    7.7975 H         1 <0>         0.0945
     58 H31        -7.2353   -3.4744    7.4952 H         1 <0>         0.0932
     59 H32        -9.0570   -3.0242    9.4294 H         1 <0>         0.4081
     60 H33       -11.0457   -1.3767    8.0661 H         1 <0>         0.1104
     61 H34       -12.9640   -2.3712    9.2168 H         1 <0>         0.0495
     62 H35       -12.1304   -3.6329    8.2779 H         1 <0>         0.0474
     63 H36       -12.5756   -4.3373   10.5165 H         1 <0>         0.3693
     64 H37        -9.7690   -0.5522   10.0667 H         1 <0>         0.0498
     65 H38       -11.5328   -0.5041   10.3009 H         1 <0>         0.0576
     66 H39       -10.4166   -1.5206   12.1520 H         1 <0>         0.3730
@<TRIPOS>BOND
     1    1    2 1
     2    1   28 1
     3    1   29 1
     4    1   30 1
     5    2    3 1
     6    2   31 1
     7    2   32 1
     8    3    4 1
     9    3   33 1
    10    3   34 1
    11    4    5 1
    12    4   35 1
    13    4   36 1
    14    5    6 1
    15    5   37 1
    16    5   38 1
    17    6    7 2
    18    6   39 1
    19    7    8 1
    20    7   40 1
    21    8    9 1
    22    8   41 1
    23    8   42 1
    24    9   10 2
    25    9   43 1
    26   10   11 1
    27   10   44 1
    28   11   12 1
    29   11   45 1
    30   11   46 1
    31   12   13 2
    32   12   47 1
    33   13   14 1
    34   13   48 1
    35   14   15 1
    36   14   49 1
    37   14   50 1
    38   15   16 2
    39   15   51 1
    40   16   17 1
    41   16   52 1
    42   17   18 1
    43   17   53 1
    44   17   54 1
    45   18   19 1
    46   18   55 1
    47   18   56 1
    48   19   20 1
    49   19   57 1
    50   19   58 1
    51   20   21 2
    52   20   22 am
    53   22   23 1
    54   22   59 1
    55   23   24 1
    56   23   26 1
    57   23   60 1
    58   24   25 1
    59   24   61 1
    60   24   62 1
    61   25   63 1
    62   26   27 1
    63   26   64 1
    64   26   65 1
    65   27   66 1
@<TRIPOS>MOLECULE
ZINC13760077
   66    66     0     0     0
SMALL
USER_CHARGES
(5Z,8Z,11Z,14Z)-N-(3-hydroxyphenyl)icosa-5,8,11,14-tetraenamide
@<TRIPOS>ATOM
      1 C1         21.0703    1.5779   -7.2993 C.3       1 <0>        -0.1543
      2 C2         19.9815    0.7425   -6.6229 C.3       1 <0>        -0.1260
      3 C3         18.7917    0.5902   -7.5727 C.3       1 <0>        -0.1214
      4 C4         17.7029   -0.2452   -6.8963 C.3       1 <0>        -0.1146
      5 C5         16.5131   -0.3975   -7.8461 C.3       1 <0>        -0.1017
      6 C6         15.4406   -1.2203   -7.1799 C.2       1 <0>        -0.1581
      7 C7         14.2074   -0.7804   -7.1402 C.2       1 <0>        -0.1537
      8 C8         13.8227    0.4548   -7.9130 C.3       1 <0>        -0.0827
      9 C9         12.6038    0.1643   -8.7502 C.2       1 <0>        -0.1509
     10 C10        11.5486    0.9354   -8.6606 C.2       1 <0>        -0.1523
     11 C11        11.6120    2.2088   -7.8572 C.3       1 <0>        -0.0839
     12 C12        11.1628    3.3653   -8.7126 C.2       1 <0>        -0.1512
     13 C13        10.2099    4.1598   -8.2921 C.2       1 <0>        -0.1520
     14 C14         9.6842    4.0274   -6.8859 C.3       1 <0>        -0.0836
     15 C15         9.7515    5.3657   -6.1964 C.2       1 <0>        -0.1509
     16 C16         8.6797    5.8679   -5.6351 C.2       1 <0>        -0.1579
     17 C17         7.4262    5.0383   -5.5278 C.3       1 <0>        -0.1015
     18 C18         6.9568    5.0093   -4.0719 C.3       1 <0>        -0.0998
     19 C19         5.6841    4.1671   -3.9631 C.3       1 <0>        -0.1395
     20 C20         5.2218    4.1385   -2.5290 C.2       1 <0>         0.5104
     21 O1          5.8485    4.7333   -1.6778 O.2       1 <0>        -0.5130
     22 N1          4.1119    3.4521   -2.1924 N.am      1 <0>        -0.6782
     23 C21         3.6225    3.5119   -0.8829 C.ar      1 <0>         0.1618
     24 C22         3.0339    2.3922   -0.3085 C.ar      1 <0>        -0.1553
     25 C23         2.5516    2.4511    0.9845 C.ar      1 <0>        -0.0830
     26 C24         2.6575    3.6217    1.7117 C.ar      1 <0>        -0.1607
     27 C25         3.2393    4.7449    1.1410 C.ar      1 <0>         0.1250
     28 C26         3.7249    4.6895   -0.1562 C.ar      1 <0>        -0.1479
     29 O2          3.3380    5.8967    1.8554 O.3       1 <0>        -0.4962
     30 H1         21.3958    1.0798   -8.2125 H         1 <0>         0.0534
     31 H2         20.6729    2.5628   -7.5445 H         1 <0>         0.0534
     32 H3         21.9180    1.6864   -6.6226 H         1 <0>         0.0536
     33 H4         19.6560    1.2406   -5.7097 H         1 <0>         0.0606
     34 H5         20.3790   -0.2424   -6.3777 H         1 <0>         0.0606
     35 H6         19.1172    0.0921   -8.4859 H         1 <0>         0.0613
     36 H7         18.3942    1.5751   -7.8179 H         1 <0>         0.0610
     37 H8         17.3774    0.2529   -5.9831 H         1 <0>         0.0621
     38 H9         18.1004   -1.2301   -6.6511 H         1 <0>         0.0617
     39 H10        16.8386   -0.8956   -8.7594 H         1 <0>         0.0688
     40 H11        16.1156    0.5874   -8.0913 H         1 <0>         0.0747
     41 H12        15.6888   -2.1728   -6.7353 H         1 <0>         0.1089
     42 H13        13.4663   -1.3030   -6.5536 H         1 <0>         0.1085
     43 H14        14.6476    0.7489   -8.5621 H         1 <0>         0.0830
     44 H15        13.6012    1.2643   -7.2175 H         1 <0>         0.0830
     45 H16        12.6002   -0.6797   -9.4241 H         1 <0>         0.1098
     46 H17        10.6332    0.6585   -9.1624 H         1 <0>         0.1098
     47 H18        12.6364    2.3786   -7.5256 H         1 <0>         0.0835
     48 H19        10.9584    2.1237   -6.9891 H         1 <0>         0.0833
     49 H20        11.6265    3.5392   -9.6724 H         1 <0>         0.1099
     50 H21         9.8009    4.9096   -8.9531 H         1 <0>         0.1099
     51 H22        10.2900    3.3056   -6.3381 H         1 <0>         0.0832
     52 H23         8.6497    3.6855   -6.9155 H         1 <0>         0.0835
     53 H24        10.6833    5.9108   -6.1651 H         1 <0>         0.1096
     54 H25         8.6944    6.8765   -5.2491 H         1 <0>         0.1106
     55 H26         7.6333    4.0221   -5.8631 H         1 <0>         0.0772
     56 H27         6.6468    5.4752   -6.1522 H         1 <0>         0.0710
     57 H28         6.7497    6.0256   -3.7366 H         1 <0>         0.0720
     58 H29         7.7361    4.5725   -3.4475 H         1 <0>         0.0725
     59 H30         5.8912    3.1508   -4.2983 H         1 <0>         0.0976
     60 H31         4.9048    4.6040   -4.5874 H         1 <0>         0.0990
     61 H32         3.6523    2.9165   -2.8579 H         1 <0>         0.4129
     62 H33         2.9536    1.4751   -0.8731 H         1 <0>         0.1289
     63 H34         2.0946    1.5796    1.4295 H         1 <0>         0.1326
     64 H35         2.2835    3.6635    2.7240 H         1 <0>         0.1307
     65 H36         4.1817    5.5615   -0.6005 H         1 <0>         0.1385
     66 H37         2.5788    6.4873    1.7563 H         1 <0>         0.3921
@<TRIPOS>BOND
     1    1    2 1
     2    1   30 1
     3    1   31 1
     4    1   32 1
     5    2    3 1
     6    2   33 1
     7    2   34 1
     8    3    4 1
     9    3   35 1
    10    3   36 1
    11    4    5 1
    12    4   37 1
    13    4   38 1
    14    5    6 1
    15    5   39 1
    16    5   40 1
    17    6    7 2
    18    6   41 1
    19    7    8 1
    20    7   42 1
    21    8    9 1
    22    8   43 1
    23    8   44 1
    24    9   10 2
    25    9   45 1
    26   10   11 1
    27   10   46 1
    28   11   12 1
    29   11   47 1
    30   11   48 1
    31   12   13 2
    32   12   49 1
    33   13   14 1
    34   13   50 1
    35   14   15 1
    36   14   51 1
    37   14   52 1
    38   15   16 2
    39   15   53 1
    40   16   17 1
    41   16   54 1
    42   17   18 1
    43   17   55 1
    44   17   56 1
    45   18   19 1
    46   18   57 1
    47   18   58 1
    48   19   20 1
    49   19   59 1
    50   19   60 1
    51   20   21 2
    52   20   22 am
    53   22   23 1
    54   22   61 1
    55   23   28 ar
    56   23   24 ar
    57   24   25 ar
    58   24   62 1
    59   25   26 ar
    60   25   63 1
    61   26   27 ar
    62   26   64 1
    63   27   28 ar
    64   27   29 1
    65   28   65 1
    66   29   66 1
@<TRIPOS>MOLECULE
ZINC03981490
   66    65     0     0     0
SMALL
USER_CHARGES

@<TRIPOS>ATOM
      1 C1          0.6453    3.0200   -2.1184 C.3       1 <0>        -0.1543
      2 C2          0.9747    1.5406   -1.9090 C.3       1 <0>        -0.1259
      3 C3          1.2342    0.8791   -3.2640 C.3       1 <0>        -0.1215
      4 C4          1.5635   -0.6003   -3.0546 C.3       1 <0>        -0.1144
      5 C5          1.8231   -1.2617   -4.4095 C.3       1 <0>        -0.1026
      6 C6          2.1475   -2.7189   -4.2033 C.2       1 <0>        -0.1582
      7 C7          1.4879   -3.6368   -4.8654 C.2       1 <0>        -0.1534
      8 C8          0.5222   -3.2356   -5.9506 C.3       1 <0>        -0.0834
      9 C9          0.8663   -3.9645   -7.2239 C.2       1 <0>        -0.1514
     10 C10        -0.0571   -4.6399   -7.8620 C.2       1 <0>        -0.1519
     11 C11        -1.4947   -4.5556   -7.4178 C.3       1 <0>        -0.0835
     12 C12        -2.3604   -4.1684   -8.5889 C.2       1 <0>        -0.1520
     13 C13        -3.4010   -4.8991   -8.9041 C.2       1 <0>        -0.1512
     14 C14        -3.8363   -6.0212   -7.9973 C.3       1 <0>        -0.0842
     15 C15        -5.2963   -5.8582   -7.6615 C.2       1 <0>        -0.1514
     16 C16        -6.1304   -6.8470   -7.8682 C.2       1 <0>        -0.1588
     17 C17        -5.6088   -8.1980   -8.2850 C.3       1 <0>        -0.1010
     18 C18        -6.1669   -9.2713   -7.3483 C.3       1 <0>        -0.1103
     19 C19        -5.6374  -10.6430   -7.7715 C.3       1 <0>        -0.1177
     20 C20        -6.1955  -11.7163   -6.8348 C.3       1 <0>         0.0561
     21 O1         -5.7009  -12.9974   -7.2301 O.3       1 <0>        -0.3615
     22 C21        -6.1646  -14.0761   -6.4155 C.3       1 <0>         0.0885
     23 C22        -7.4667  -14.6308   -6.9965 C.3       1 <0>         0.0583
     24 O2         -7.2085  -15.2086   -8.2777 O.3       1 <0>        -0.5325
     25 C23        -5.1080  -15.1822   -6.3842 C.3       1 <0>         0.0829
     26 O3         -4.9579  -15.7347   -7.6935 O.3       1 <0>        -0.5348
     27 H1          1.4846    3.5132   -2.6087 H         1 <0>         0.0534
     28 H2         -0.2437    3.1095   -2.7426 H         1 <0>         0.0534
     29 H3          0.4604    3.4912   -1.1531 H         1 <0>         0.0535
     30 H4          1.8637    1.4511   -1.2847 H         1 <0>         0.0606
     31 H5          0.1353    1.0474   -1.4187 H         1 <0>         0.0605
     32 H6          0.3451    0.9686   -3.8882 H         1 <0>         0.0610
     33 H7          2.0735    1.3723   -3.7542 H         1 <0>         0.0614
     34 H8          2.4526   -0.6897   -2.4303 H         1 <0>         0.0616
     35 H9          0.7242   -1.0935   -2.5643 H         1 <0>         0.0619
     36 H10         0.9340   -1.1722   -5.0338 H         1 <0>         0.0756
     37 H11         2.6624   -0.7685   -4.8998 H         1 <0>         0.0688
     38 H12         2.9237   -3.0063   -3.5096 H         1 <0>         0.1088
     39 H13         1.6361   -4.6812   -4.6336 H         1 <0>         0.1085
     40 H14        -0.4926   -3.4932   -5.6473 H         1 <0>         0.0828
     41 H15         0.5897   -2.1606   -6.1177 H         1 <0>         0.0840
     42 H16         1.8742   -3.9300   -7.6103 H         1 <0>         0.1097
     43 H17         0.2118   -5.2572   -8.7064 H         1 <0>         0.1101
     44 H18        -1.8140   -5.5248   -7.0346 H         1 <0>         0.0833
     45 H19        -1.5889   -3.8055   -6.6326 H         1 <0>         0.0832
     46 H20        -2.1230   -3.2885   -9.1684 H         1 <0>         0.1099
     47 H21        -3.9470   -4.6972   -9.8138 H         1 <0>         0.1099
     48 H22        -3.6838   -6.9756   -8.5013 H         1 <0>         0.0844
     49 H23        -3.2476   -5.9965   -7.0803 H         1 <0>         0.0830
     50 H24        -5.6550   -4.9261   -7.2504 H         1 <0>         0.1088
     51 H25        -7.1917   -6.6940   -7.7398 H         1 <0>         0.1094
     52 H26        -5.9227   -8.4090   -9.3073 H         1 <0>         0.0713
     53 H27        -4.5201   -8.1995   -8.2316 H         1 <0>         0.0775
     54 H28        -5.8530   -9.0603   -6.3260 H         1 <0>         0.0641
     55 H29        -7.2556   -9.2698   -7.4017 H         1 <0>         0.0638
     56 H30        -5.9513  -10.8540   -8.7938 H         1 <0>         0.0721
     57 H31        -4.5487  -10.6445   -7.7181 H         1 <0>         0.0707
     58 H32        -5.8816  -11.5053   -5.8125 H         1 <0>         0.0470
     59 H33        -7.2842  -11.7148   -6.8882 H         1 <0>         0.0459
     60 H34        -6.3433  -13.7156   -5.4024 H         1 <0>         0.0841
     61 H35        -7.8670  -15.3932   -6.3282 H         1 <0>         0.0482
     62 H36        -8.1909  -13.8230   -7.1015 H         1 <0>         0.0417
     63 H37        -7.9913  -15.5811   -8.7062 H         1 <0>         0.3662
     64 H38        -4.1561  -14.7663   -6.0540 H         1 <0>         0.0486
     65 H39        -5.4217  -15.9648   -5.6933 H         1 <0>         0.0535
     66 H40        -4.3023  -16.4435   -7.7485 H         1 <0>         0.3678
@<TRIPOS>BOND
     1    1    2 1
     2    1   27 1
     3    1   28 1
     4    1   29 1
     5    2    3 1
     6    2   30 1
     7    2   31 1
     8    3    4 1
     9    3   32 1
    10    3   33 1
    11    4    5 1
    12    4   34 1
    13    4   35 1
    14    5    6 1
    15    5   36 1
    16    5   37 1
    17    6    7 2
    18    6   38 1
    19    7    8 1
    20    7   39 1
    21    8    9 1
    22    8   40 1
    23    8   41 1
    24    9   10 2
    25    9   42 1
    26   10   11 1
    27   10   43 1
    28   11   12 1
    29   11   44 1
    30   11   45 1
    31   12   13 2
    32   12   46 1
    33   13   14 1
    34   13   47 1
    35   14   15 1
    36   14   48 1
    37   14   49 1
    38   15   16 2
    39   15   50 1
    40   16   17 1
    41   16   51 1
    42   17   18 1
    43   17   52 1
    44   17   53 1
    45   18   19 1
    46   18   54 1
    47   18   55 1
    48   19   20 1
    49   19   56 1
    50   19   57 1
    51   20   21 1
    52   20   58 1
    53   20   59 1
    54   21   22 1
    55   22   23 1
    56   22   25 1
    57   22   60 1
    58   23   24 1
    59   23   61 1
    60   23   62 1
    61   24   63 1
    62   25   26 1
    63   25   64 1
    64   25   65 1
    65   26   66 1
@<TRIPOS>MOLECULE
ZINC08689957
   60    59     0     0     0
SMALL
USER_CHARGES

@<TRIPOS>ATOM
      1 C1          0.1443    2.0146   -0.3291 C.3       1 <0>        -0.1543
      2 C2          0.3725    0.5057   -0.2196 C.3       1 <0>        -0.1258
      3 C3          0.8073   -0.0443   -1.5795 C.3       1 <0>        -0.1215
      4 C4          1.0355   -1.5532   -1.4700 C.3       1 <0>        -0.1143
      5 C5          1.4703   -2.1033   -2.8299 C.3       1 <0>        -0.1024
      6 C6          1.6951   -3.5895   -2.7220 C.2       1 <0>        -0.1587
      7 C7          1.1050   -4.4039   -3.5614 C.2       1 <0>        -0.1531
      8 C8          0.3399   -3.8508   -4.7360 C.3       1 <0>        -0.0828
      9 C9          0.8450   -4.4832   -6.0073 C.2       1 <0>        -0.1532
     10 C10         0.0027   -5.0429   -6.8399 C.2       1 <0>        -0.1586
     11 C11        -1.4813   -4.9077   -6.6152 C.3       1 <0>        -0.1022
     12 C12        -2.1412   -4.3593   -7.8820 C.3       1 <0>        -0.1142
     13 C13        -3.6478   -4.2220   -7.6537 C.3       1 <0>        -0.1200
     14 C14        -4.3076   -3.6736   -8.9206 C.3       1 <0>        -0.1205
     15 C15        -5.8143   -3.5363   -8.6923 C.3       1 <0>        -0.1200
     16 C16        -6.4741   -2.9879   -9.9591 C.3       1 <0>        -0.1051
     17 C17        -7.9807   -2.8506   -9.7309 C.3       1 <0>        -0.1404
     18 C18        -8.6306   -2.3105  -10.9787 C.2       1 <0>         0.5101
     19 O1         -7.9553   -2.0600  -11.9544 O.2       1 <0>        -0.5410
     20 N1         -9.9624   -2.1058  -11.0103 N.am      1 <0>        -0.7288
     21 C19       -10.5942   -1.5807  -12.2233 C.3       1 <0>         0.1176
     22 C20       -12.1008   -1.4434  -11.9951 C.3       1 <0>         0.0628
     23 O2        -12.3422   -0.4598  -10.9870 O.3       1 <0>        -0.5723
     24 H1          1.0695    2.5006   -0.6386 H         1 <0>         0.0534
     25 H2         -0.6340    2.2118   -1.0664 H         1 <0>         0.0534
     26 H3         -0.1654    2.4065    0.6397 H         1 <0>         0.0535
     27 H4          1.1508    0.3086    0.5177 H         1 <0>         0.0605
     28 H5         -0.5527    0.0198    0.0900 H         1 <0>         0.0605
     29 H6          0.0290    0.1528   -2.3168 H         1 <0>         0.0611
     30 H7          1.7325    0.4416   -1.8890 H         1 <0>         0.0614
     31 H8          1.8138   -1.7504   -0.7327 H         1 <0>         0.0615
     32 H9          0.1103   -2.0392   -1.1604 H         1 <0>         0.0619
     33 H10         0.6920   -1.9061   -3.5672 H         1 <0>         0.0756
     34 H11         2.3955   -1.6173   -3.1394 H         1 <0>         0.0687
     35 H12         2.3428   -3.9832   -1.9526 H         1 <0>         0.1087
     36 H13         1.1667   -5.4717   -3.4116 H         1 <0>         0.1082
     37 H14        -0.7205   -4.0729   -4.6161 H         1 <0>         0.0831
     38 H15         0.4816   -2.7712   -4.7861 H         1 <0>         0.0832
     39 H16         1.9013   -4.4749   -6.2318 H         1 <0>         0.1081
     40 H17         0.3718   -5.6013   -7.6875 H         1 <0>         0.1087
     41 H18        -1.9036   -5.8845   -6.3793 H         1 <0>         0.0683
     42 H19        -1.6624   -4.2238   -5.7860 H         1 <0>         0.0753
     43 H20        -1.7189   -3.3825   -8.1179 H         1 <0>         0.0621
     44 H21        -1.9601   -5.0432   -8.7112 H         1 <0>         0.0618
     45 H22        -4.0700   -5.1988   -7.4178 H         1 <0>         0.0612
     46 H23        -3.8288   -3.5381   -6.8246 H         1 <0>         0.0609
     47 H24        -3.8854   -2.6968   -9.1564 H         1 <0>         0.0624
     48 H25        -4.1266   -4.3576   -9.7497 H         1 <0>         0.0623
     49 H26        -6.2365   -4.5131   -8.4564 H         1 <0>         0.0619
     50 H27        -5.9953   -2.8524   -7.8631 H         1 <0>         0.0621
     51 H28        -6.0518   -2.0111  -10.1950 H         1 <0>         0.0695
     52 H29        -6.2930   -3.6719  -10.7883 H         1 <0>         0.0694
     53 H30        -8.4030   -3.8275   -9.4950 H         1 <0>         0.0929
     54 H31        -8.1618   -2.1667   -8.9017 H         1 <0>         0.0936
     55 H32       -10.5025   -2.3061  -10.2299 H         1 <0>         0.4035
     56 H33       -10.1719   -0.6039  -12.4592 H         1 <0>         0.0751
     57 H34       -10.4131   -2.2646  -13.0525 H         1 <0>         0.0823
     58 H35       -12.5826   -1.1376  -12.9238 H         1 <0>         0.0647
     59 H36       -12.5083   -2.4016  -11.6727 H         1 <0>         0.0540
     60 H37       -13.2786   -0.3200  -10.7901 H         1 <0>         0.3841
@<TRIPOS>BOND
     1    1    2 1
     2    1   24 1
     3    1   25 1
     4    1   26 1
     5    2    3 1
     6    2   27 1
     7    2   28 1
     8    3    4 1
     9    3   29 1
    10    3   30 1
    11    4    5 1
    12    4   31 1
    13    4   32 1
    14    5    6 1
    15    5   33 1
    16    5   34 1
    17    6    7 2
    18    6   35 1
    19    7    8 1
    20    7   36 1
    21    8    9 1
    22    8   37 1
    23    8   38 1
    24    9   10 2
    25    9   39 1
    26   10   11 1
    27   10   40 1
    28   11   12 1
    29   11   41 1
    30   11   42 1
    31   12   13 1
    32   12   43 1
    33   12   44 1
    34   13   14 1
    35   13   45 1
    36   13   46 1
    37   14   15 1
    38   14   47 1
    39   14   48 1
    40   15   16 1
    41   15   49 1
    42   15   50 1
    43   16   17 1
    44   16   51 1
    45   16   52 1
    46   17   18 1
    47   17   53 1
    48   17   54 1
    49   18   19 2
    50   18   20 am
    51   20   21 1
    52   20   55 1
    53   21   22 1
    54   21   56 1
    55   21   57 1
    56   22   23 1
    57   22   58 1
    58   22   59 1
    59   23   60 1
@<TRIPOS>MOLECULE
ZINC13675373
   61    60     0     0     0
SMALL
USER_CHARGES

@<TRIPOS>ATOM
      1 C1          0.6453    3.0200   -2.1184 C.3       1 <0>        -0.1543
      2 C2          0.9747    1.5406   -1.9090 C.3       1 <0>        -0.1260
      3 C3          1.2342    0.8791   -3.2640 C.3       1 <0>        -0.1214
      4 C4          1.5635   -0.6003   -3.0546 C.3       1 <0>        -0.1145
      5 C5          1.8231   -1.2617   -4.4095 C.3       1 <0>        -0.1026
      6 C6          2.1475   -2.7189   -4.2033 C.2       1 <0>        -0.1578
      7 C7          1.4879   -3.6368   -4.8654 C.2       1 <0>        -0.1537
      8 C8          0.5222   -3.2356   -5.9506 C.3       1 <0>        -0.0838
      9 C9          0.8663   -3.9645   -7.2239 C.2       1 <0>        -0.1506
     10 C10        -0.0571   -4.6399   -7.8620 C.2       1 <0>        -0.1525
     11 C11        -1.4947   -4.5556   -7.4178 C.3       1 <0>        -0.0838
     12 C12        -2.3604   -4.1684   -8.5889 C.2       1 <0>        -0.1514
     13 C13        -3.4010   -4.8991   -8.9041 C.2       1 <0>        -0.1519
     14 C14        -3.8363   -6.0212   -7.9973 C.3       1 <0>        -0.0833
     15 C15        -5.2963   -5.8582   -7.6615 C.2       1 <0>        -0.1517
     16 C16        -6.1304   -6.8470   -7.8682 C.2       1 <0>        -0.1574
     17 C17        -5.6088   -8.1980   -8.2850 C.3       1 <0>        -0.1016
     18 C18        -6.1669   -9.2713   -7.3483 C.3       1 <0>        -0.0995
     19 C19        -5.6374  -10.6430   -7.7715 C.3       1 <0>        -0.1402
     20 C20        -6.1871  -11.7002   -6.8489 C.2       1 <0>         0.5136
     21 O1         -6.9293  -11.3874   -5.9421 O.2       1 <0>        -0.5320
     22 N1         -5.8539  -12.9933   -7.0314 N.am      1 <0>        -0.7361
     23 C21        -6.3883  -14.0210   -6.1345 C.3       1 <0>         0.1079
     24 C22        -5.8588  -15.3927   -6.5577 C.3       1 <0>        -0.0498
     25 Cl1        -6.5164  -16.6575   -5.4539 Cl        1 <0>        -0.1588
     26 H1          1.4846    3.5132   -2.6087 H         1 <0>         0.0534
     27 H2         -0.2437    3.1095   -2.7426 H         1 <0>         0.0534
     28 H3          0.4604    3.4912   -1.1531 H         1 <0>         0.0536
     29 H4          1.8637    1.4511   -1.2847 H         1 <0>         0.0606
     30 H5          0.1353    1.0474   -1.4187 H         1 <0>         0.0606
     31 H6          0.3451    0.9686   -3.8882 H         1 <0>         0.0610
     32 H7          2.0735    1.3723   -3.7542 H         1 <0>         0.0613
     33 H8          2.4526   -0.6897   -2.4303 H         1 <0>         0.0617
     34 H9          0.7242   -1.0935   -2.5643 H         1 <0>         0.0620
     35 H10         0.9340   -1.1722   -5.0338 H         1 <0>         0.0756
     36 H11         2.6624   -0.7685   -4.8998 H         1 <0>         0.0688
     37 H12         2.9237   -3.0063   -3.5096 H         1 <0>         0.1089
     38 H13         1.6361   -4.6812   -4.6336 H         1 <0>         0.1085
     39 H14        -0.4926   -3.4932   -5.6473 H         1 <0>         0.0830
     40 H15         0.5897   -2.1606   -6.1177 H         1 <0>         0.0841
     41 H16         1.8742   -3.9300   -7.6103 H         1 <0>         0.1097
     42 H17         0.2118   -5.2572   -8.7064 H         1 <0>         0.1097
     43 H18        -1.8140   -5.5248   -7.0346 H         1 <0>         0.0833
     44 H19        -1.5889   -3.8055   -6.6326 H         1 <0>         0.0835
     45 H20        -2.1230   -3.2885   -9.1684 H         1 <0>         0.1098
     46 H21        -3.9470   -4.6972   -9.8138 H         1 <0>         0.1098
     47 H22        -3.6838   -6.9756   -8.5013 H         1 <0>         0.0834
     48 H23        -3.2476   -5.9965   -7.0803 H         1 <0>         0.0831
     49 H24        -5.6550   -4.9261   -7.2504 H         1 <0>         0.1094
     50 H25        -7.1917   -6.6940   -7.7398 H         1 <0>         0.1106
     51 H26        -5.9227   -8.4090   -9.3073 H         1 <0>         0.0707
     52 H27        -4.5201   -8.1995   -8.2316 H         1 <0>         0.0767
     53 H28        -5.8530   -9.0603   -6.3260 H         1 <0>         0.0716
     54 H29        -7.2556   -9.2698   -7.4017 H         1 <0>         0.0714
     55 H30        -5.9513  -10.8540   -8.7938 H         1 <0>         0.0956
     56 H31        -4.5487  -10.6445   -7.7181 H         1 <0>         0.0952
     57 H32        -5.2603  -13.2435   -7.7566 H         1 <0>         0.4022
     58 H33        -6.0744  -13.8100   -5.1122 H         1 <0>         0.0804
     59 H34        -7.4770  -14.0195   -6.1879 H         1 <0>         0.0805
     60 H35        -6.1727  -15.6037   -7.5800 H         1 <0>         0.1001
     61 H36        -4.7701  -15.3942   -6.5043 H         1 <0>         0.1001
@<TRIPOS>BOND
     1    1    2 1
     2    1   26 1
     3    1   27 1
     4    1   28 1
     5    2    3 1
     6    2   29 1
     7    2   30 1
     8    3    4 1
     9    3   31 1
    10    3   32 1
    11    4    5 1
    12    4   33 1
    13    4   34 1
    14    5    6 1
    15    5   35 1
    16    5   36 1
    17    6    7 2
    18    6   37 1
    19    7    8 1
    20    7   38 1
    21    8    9 1
    22    8   39 1
    23    8   40 1
    24    9   10 2
    25    9   41 1
    26   10   11 1
    27   10   42 1
    28   11   12 1
    29   11   43 1
    30   11   44 1
    31   12   13 2
    32   12   45 1
    33   13   14 1
    34   13   46 1
    35   14   15 1
    36   14   47 1
    37   14   48 1
    38   15   16 2
    39   15   49 1
    40   16   17 1
    41   16   50 1
    42   17   18 1
    43   17   51 1
    44   17   52 1
    45   18   19 1
    46   18   53 1
    47   18   54 1
    48   19   20 1
    49   19   55 1
    50   19   56 1
    51   20   21 2
    52   20   22 am
    53   22   23 1
    54   22   57 1
    55   23   24 1
    56   23   58 1
    57   23   59 1
    58   24   25 1
    59   24   60 1
    60   24   61 1
@<TRIPOS>MOLECULE
ZINC04533831
   55    54     0     0     0
SMALL
USER_CHARGES

@<TRIPOS>ATOM
      1 C1          1.4699    3.0103    1.6795 C.3       1 <0>        -0.1543
      2 C2          1.1470    1.5224    1.8304 C.3       1 <0>        -0.1260
      3 C3          2.2011    0.8593    2.7193 C.3       1 <0>        -0.1214
      4 C4          1.8782   -0.6286    2.8702 C.3       1 <0>        -0.1145
      5 C5          2.9323   -1.2916    3.7591 C.3       1 <0>        -0.1026
      6 C6          2.6142   -2.7572    3.9077 C.2       1 <0>        -0.1580
      7 C7          3.5316   -3.6560    3.6493 C.2       1 <0>        -0.1536
      8 C8          4.9477   -3.2268    3.3638 C.3       1 <0>        -0.0837
      9 C9          5.8898   -3.9597    4.2837 C.2       1 <0>        -0.1509
     10 C10         6.9144   -4.6095    3.7897 C.2       1 <0>        -0.1523
     11 C11         7.2468   -4.4906    2.3247 C.3       1 <0>        -0.0839
     12 C12         8.6877   -4.0777    2.1683 C.2       1 <0>        -0.1517
     13 C13         9.4920   -4.7809    1.4103 C.2       1 <0>        -0.1516
     14 C14         8.9417   -5.8950    0.5577 C.3       1 <0>        -0.0835
     15 C15         9.3779   -5.6965   -0.8711 C.2       1 <0>        -0.1522
     16 C16         9.9891   -6.6633   -1.5096 C.2       1 <0>        -0.1571
     17 C17        10.1105   -8.0256   -0.8767 C.3       1 <0>        -0.1019
     18 C18         9.5949   -9.0878   -1.8497 C.3       1 <0>        -0.1001
     19 C19         9.7182  -10.4708   -1.2070 C.3       1 <0>        -0.1434
     20 C20         9.2103  -11.5171   -2.1654 C.2       1 <0>         0.5138
     21 O1          8.7910  -11.1889   -3.2551 O.2       1 <0>        -0.5427
     22 N1          9.2220  -12.8175   -1.8115 N.am      1 <0>        -0.8593
     23 H1          2.4534    3.1242    1.2236 H         1 <0>         0.0534
     24 H2          0.7189    3.4826    1.0462 H         1 <0>         0.0535
     25 H3          1.4674    3.4840    2.6612 H         1 <0>         0.0534
     26 H4          0.1635    1.4084    2.2863 H         1 <0>         0.0605
     27 H5          1.1495    1.0487    0.8487 H         1 <0>         0.0606
     28 H6          3.1846    0.9733    2.2634 H         1 <0>         0.0610
     29 H7          2.1986    1.3330    3.7010 H         1 <0>         0.0613
     30 H8          0.8947   -0.7425    3.3261 H         1 <0>         0.0617
     31 H9          1.8807   -1.1023    1.8885 H         1 <0>         0.0620
     32 H10         3.9158   -1.1777    3.3032 H         1 <0>         0.0756
     33 H11         2.9298   -0.8179    4.7408 H         1 <0>         0.0688
     34 H12         1.6300   -3.0664    4.2272 H         1 <0>         0.1089
     35 H13         3.2730   -4.7045    3.6409 H         1 <0>         0.1085
     36 H14         5.1962   -3.4599    2.3284 H         1 <0>         0.0830
     37 H15         5.0419   -2.1533    3.5273 H         1 <0>         0.0841
     38 H16         5.7203   -3.9492    5.3503 H         1 <0>         0.1096
     39 H17         7.5209   -5.2304    4.4324 H         1 <0>         0.1098
     40 H18         7.0897   -5.4528    1.8372 H         1 <0>         0.0834
     41 H19         6.6022   -3.7411    1.8655 H         1 <0>         0.0834
     42 H20         9.0572   -3.2020    2.6812 H         1 <0>         0.1098
     43 H21        10.5496   -4.5623    1.3965 H         1 <0>         0.1098
     44 H22         9.3168   -6.8511    0.9226 H         1 <0>         0.0835
     45 H23         7.8529   -5.8882    0.6094 H         1 <0>         0.0830
     46 H24         9.1867   -4.7572   -1.3685 H         1 <0>         0.1094
     47 H25        10.4060   -6.4842   -2.4897 H         1 <0>         0.1106
     48 H26        11.1560   -8.2251   -0.6416 H         1 <0>         0.0707
     49 H27         9.5202   -8.0546    0.0392 H         1 <0>         0.0767
     50 H28         8.5494   -8.8883   -2.0848 H         1 <0>         0.0713
     51 H29        10.1852   -9.0588   -2.7655 H         1 <0>         0.0710
     52 H30        10.7637  -10.6704   -0.9719 H         1 <0>         0.0949
     53 H31         9.1279  -10.4999   -0.2912 H         1 <0>         0.0945
     54 H32         9.5574  -13.0800   -0.9400 H         1 <0>         0.4018
     55 H33         8.8951  -13.4910   -2.4284 H         1 <0>         0.4013
@<TRIPOS>BOND
     1    1    2 1
     2    1   23 1
     3    1   24 1
     4    1   25 1
     5    2    3 1
     6    2   26 1
     7    2   27 1
     8    3    4 1
     9    3   28 1
    10    3   29 1
    11    4    5 1
    12    4   30 1
    13    4   31 1
    14    5    6 1
    15    5   32 1
    16    5   33 1
    17    6    7 2
    18    6   34 1
    19    7    8 1
    20    7   35 1
    21    8    9 1
    22    8   36 1
    23    8   37 1
    24    9   10 2
    25    9   38 1
    26   10   11 1
    27   10   39 1
    28   11   12 1
    29   11   40 1
    30   11   41 1
    31   12   13 2
    32   12   42 1
    33   13   14 1
    34   13   43 1
    35   14   15 1
    36   14   44 1
    37   14   45 1
    38   15   16 2
    39   15   46 1
    40   16   17 1
    41   16   47 1
    42   17   18 1
    43   17   48 1
    44   17   49 1
    45   18   19 1
    46   18   50 1
    47   18   51 1
    48   19   20 1
    49   19   52 1
    50   19   53 1
    51   20   21 2
    52   20   22 am
    53   22   54 1
    54   22   55 1
@<TRIPOS>MOLECULE
ZINC13761101
   58    57     0     0     0
SMALL
USER_CHARGES
(5Z,8Z,11Z,14Z)-N-methylicosa-5,8,11,14-tetraenamide
@<TRIPOS>ATOM
      1 C1          8.8970    5.4407   10.0543 C.3       1 <0>        -0.1543
      2 C2          8.7744    5.8148    8.5758 C.3       1 <0>        -0.1260
      3 C3          7.5059    6.6434    8.3629 C.3       1 <0>        -0.1214
      4 C4          7.3833    7.0175    6.8844 C.3       1 <0>        -0.1145
      5 C5          6.1149    7.8461    6.6714 C.3       1 <0>        -0.1026
      6 C6          5.9941    8.2146    5.2152 C.2       1 <0>        -0.1580
      7 C7          4.8859    7.9598    4.5648 C.2       1 <0>        -0.1534
      8 C8          3.6767    7.4512    5.3066 C.3       1 <0>        -0.0837
      9 C9          2.4930    8.3328    5.0022 C.2       1 <0>        -0.1511
     10 C10         1.3772    7.8034    4.5653 C.2       1 <0>        -0.1522
     11 C11         1.2157    6.3054    4.5337 C.3       1 <0>        -0.0839
     12 C12        -0.0468    5.9209    5.2614 C.2       1 <0>        -0.1519
     13 C13        -0.9428    5.1721    4.6676 C.2       1 <0>        -0.1513
     14 C14        -0.6423    4.5598    3.3238 C.3       1 <0>        -0.0835
     15 C15        -0.9041    3.0767    3.3777 C.2       1 <0>        -0.1525
     16 C16        -1.6984    2.5194    2.4976 C.2       1 <0>        -0.1568
     17 C17        -2.2193    3.3255    1.3357 C.3       1 <0>        -0.1018
     18 C18        -1.9297    2.5834    0.0295 C.3       1 <0>        -0.0990
     19 C19        -2.4586    3.4018   -1.1501 C.3       1 <0>        -0.1415
     20 C20        -2.1734    2.6709   -2.4367 C.2       1 <0>         0.5086
     21 O1         -1.6031    1.6008   -2.4126 O.2       1 <0>        -0.5377
     22 N1         -2.5519    3.2065   -3.6142 N.am      1 <0>        -0.7395
     23 C21        -2.2746    2.4959   -4.8649 C.3       1 <0>         0.0850
     24 H1          8.9507    6.3483   10.6555 H         1 <0>         0.0534
     25 H2          8.0269    4.8569   10.3547 H         1 <0>         0.0534
     26 H3          9.8007    4.8504   10.2060 H         1 <0>         0.0535
     27 H4          8.7207    4.9072    7.9746 H         1 <0>         0.0606
     28 H5          9.6444    6.3987    8.2754 H         1 <0>         0.0605
     29 H6          7.5596    7.5510    8.9641 H         1 <0>         0.0613
     30 H7          6.6359    6.0595    8.6633 H         1 <0>         0.0610
     31 H8          7.3296    6.1099    6.2832 H         1 <0>         0.0620
     32 H9          8.2534    7.6014    6.5840 H         1 <0>         0.0616
     33 H10         6.1686    8.7537    7.2726 H         1 <0>         0.0688
     34 H11         5.2448    7.2622    6.9718 H         1 <0>         0.0756
     35 H12         6.8212    8.6887    4.7078 H         1 <0>         0.1089
     36 H13         4.8387    8.1143    3.4969 H         1 <0>         0.1085
     37 H14         3.8750    7.4664    6.3783 H         1 <0>         0.0839
     38 H15         3.4601    6.4304    4.9917 H         1 <0>         0.0829
     39 H16         2.5646    9.4010    5.1442 H         1 <0>         0.1096
     40 H17         0.5731    8.4405    4.2278 H         1 <0>         0.1098
     41 H18         2.0719    5.8373    5.0194 H         1 <0>         0.0834
     42 H19         1.1557    5.9682    3.4990 H         1 <0>         0.0835
     43 H20        -0.2128    6.2627    6.2723 H         1 <0>         0.1098
     44 H21        -1.8969    4.9936    5.1412 H         1 <0>         0.1099
     45 H22         0.4032    4.7352    3.0702 H         1 <0>         0.0831
     46 H23        -1.2810    5.0142    2.5664 H         1 <0>         0.0837
     47 H24        -0.4369    2.4733    4.1419 H         1 <0>         0.1094
     48 H25        -1.9798    1.4822    2.6046 H         1 <0>         0.1104
     49 H26        -1.7269    4.2977    1.3182 H         1 <0>         0.0766
     50 H27        -3.2950    3.4650    1.4436 H         1 <0>         0.0706
     51 H28        -2.4222    1.6112    0.0470 H         1 <0>         0.0708
     52 H29        -0.8541    2.4440   -0.0784 H         1 <0>         0.0710
     53 H30        -3.5343    3.5413   -1.0422 H         1 <0>         0.0943
     54 H31        -1.9662    4.3741   -1.1676 H         1 <0>         0.0938
     55 H32        -3.0080    4.0624   -3.6334 H         1 <0>         0.4024
     56 H33        -2.6514    3.0790   -5.7053 H         1 <0>         0.0756
     57 H34        -1.1989    2.3565   -4.9728 H         1 <0>         0.0597
     58 H35        -2.7671    1.5237   -4.8474 H         1 <0>         0.0597
@<TRIPOS>BOND
     1    1    2 1
     2    1   24 1
     3    1   25 1
     4    1   26 1
     5    2    3 1
     6    2   27 1
     7    2   28 1
     8    3    4 1
     9    3   29 1
    10    3   30 1
    11    4    5 1
    12    4   31 1
    13    4   32 1
    14    5    6 1
    15    5   33 1
    16    5   34 1
    17    6    7 2
    18    6   35 1
    19    7    8 1
    20    7   36 1
    21    8    9 1
    22    8   37 1
    23    8   38 1
    24    9   10 2
    25    9   39 1
    26   10   11 1
    27   10   40 1
    28   11   12 1
    29   11   41 1
    30   11   42 1
    31   12   13 2
    32   12   43 1
    33   13   14 1
    34   13   44 1
    35   14   15 1
    36   14   45 1
    37   14   46 1
    38   15   16 2
    39   15   47 1
    40   16   17 1
    41   16   48 1
    42   17   18 1
    43   17   49 1
    44   17   50 1
    45   18   19 1
    46   18   51 1
    47   18   52 1
    48   19   20 1
    49   19   53 1
    50   19   54 1
    51   20   21 2
    52   20   22 am
    53   22   23 1
    54   22   55 1
    55   23   56 1
    56   23   57 1
    57   23   58 1
@<TRIPOS>MOLECULE
ZINC03809850
   62    61     0     0     0
SMALL
USER_CHARGES

@<TRIPOS>ATOM
      1 C1         -2.2312    2.9666    0.4945 C.3       1 <0>        -0.1543
      2 C2         -2.1773    1.4868    0.1097 C.3       1 <0>        -0.1260
      3 C3         -3.4636    0.7944    0.5647 C.3       1 <0>        -0.1214
      4 C4         -3.4097   -0.6855    0.1800 C.3       1 <0>        -0.1146
      5 C5         -4.6960   -1.3779    0.6349 C.3       1 <0>        -0.1025
      6 C6         -4.6429   -2.8355    0.2560 C.2       1 <0>        -0.1582
      7 C7         -4.8635   -3.7561    1.1614 C.2       1 <0>        -0.1534
      8 C8         -5.3306   -3.3617    2.5389 C.3       1 <0>        -0.0837
      9 C9         -6.5867   -4.1212    2.8800 C.2       1 <0>        -0.1511
     10 C10        -6.6608   -4.7947    4.0011 C.2       1 <0>        -0.1520
     11 C11        -5.5599   -4.6791    5.0237 C.3       1 <0>        -0.0839
     12 C12        -6.1510   -4.3020    6.3577 C.2       1 <0>        -0.1519
     13 C13        -5.8856   -5.0225    7.4190 C.2       1 <0>        -0.1513
     14 C14        -4.8547   -6.1194    7.3465 C.3       1 <0>        -0.0836
     15 C15        -3.8385   -5.9270    8.4425 C.2       1 <0>        -0.1524
     16 C16        -3.5758   -6.9066    9.2716 C.2       1 <0>        -0.1566
     17 C17        -4.1634   -8.2737    9.0331 C.3       1 <0>        -0.1019
     18 C18        -3.0466   -9.3192    9.0518 C.3       1 <0>        -0.0985
     19 C19        -3.6432  -10.7071    8.8097 C.3       1 <0>        -0.1408
     20 C20        -2.5431  -11.7370    8.8281 C.2       1 <0>         0.5104
     21 O1         -1.3950  -11.3946    9.0165 O.2       1 <0>        -0.5404
     22 N1         -2.8352  -13.0385    8.6354 N.am      1 <0>        -0.7286
     23 C21        -1.7658  -14.0397    8.6533 C.3       1 <0>         0.1176
     24 C22        -2.3624  -15.4276    8.4112 C.3       1 <0>         0.0628
     25 O2         -2.9130  -15.4861    7.0938 O.3       1 <0>        -0.5722
     26 H1         -1.3148    3.4599    0.1703 H         1 <0>         0.0535
     27 H2         -3.0875    3.4368    0.0110 H         1 <0>         0.0534
     28 H3         -2.3296    3.0574    1.5762 H         1 <0>         0.0534
     29 H4         -2.0789    1.3959   -0.9720 H         1 <0>         0.0605
     30 H5         -1.3210    1.0166    0.5932 H         1 <0>         0.0606
     31 H6         -3.5620    0.8852    1.6464 H         1 <0>         0.0610
     32 H7         -4.3199    1.2645    0.0812 H         1 <0>         0.0613
     33 H8         -3.3113   -0.7763   -0.9018 H         1 <0>         0.0616
     34 H9         -2.5534   -1.1557    0.6635 H         1 <0>         0.0621
     35 H10        -4.7944   -1.2871    1.7167 H         1 <0>         0.0756
     36 H11        -5.5523   -0.9077    0.1514 H         1 <0>         0.0687
     37 H12        -4.4230   -3.1211   -0.7621 H         1 <0>         0.1088
     38 H13        -4.7107   -4.7978    0.9208 H         1 <0>         0.1086
     39 H14        -4.5545   -3.5973    3.2670 H         1 <0>         0.0830
     40 H15        -5.5360   -2.2914    2.5602 H         1 <0>         0.0840
     41 H16        -7.4259   -4.1101    2.2002 H         1 <0>         0.1096
     42 H17        -7.5108   -5.4329    4.1925 H         1 <0>         0.1098
     43 H18        -5.0443   -5.6354    5.1121 H         1 <0>         0.0835
     44 H19        -4.8518   -3.9121    4.7102 H         1 <0>         0.0834
     45 H20        -6.7935   -3.4376    6.4387 H         1 <0>         0.1097
     46 H21        -6.4054   -4.8305    8.3460 H         1 <0>         0.1098
     47 H22        -5.3434   -7.0860    7.4698 H         1 <0>         0.0837
     48 H23        -4.3556   -6.0855    6.3781 H         1 <0>         0.0830
     49 H24        -3.3267   -4.9814    8.5444 H         1 <0>         0.1092
     50 H25        -2.9381   -6.7345   10.1261 H         1 <0>         0.1103
     51 H26        -4.8864   -8.5002    9.8168 H         1 <0>         0.0705
     52 H27        -4.6612   -8.2911    8.0635 H         1 <0>         0.0766
     53 H28        -2.3236   -9.0927    8.2682 H         1 <0>         0.0711
     54 H29        -2.5488   -9.3018   10.0214 H         1 <0>         0.0706
     55 H30        -4.3661  -10.9337    9.5933 H         1 <0>         0.0937
     56 H31        -4.1409  -10.7245    7.8401 H         1 <0>         0.0940
     57 H32        -3.7534  -13.3124    8.4848 H         1 <0>         0.4035
     58 H33        -1.0428  -13.8132    7.8697 H         1 <0>         0.0752
     59 H34        -1.2680  -14.0223    9.6229 H         1 <0>         0.0823
     60 H35        -1.5816  -16.1814    8.5125 H         1 <0>         0.0647
     61 H36        -3.1482  -15.6179    9.1422 H         1 <0>         0.0540
     62 H37        -3.3095  -16.3394    6.8708 H         1 <0>         0.3841
@<TRIPOS>BOND
     1    1    2 1
     2    1   26 1
     3    1   27 1
     4    1   28 1
     5    2    3 1
     6    2   29 1
     7    2   30 1
     8    3    4 1
     9    3   31 1
    10    3   32 1
    11    4    5 1
    12    4   33 1
    13    4   34 1
    14    5    6 1
    15    5   35 1
    16    5   36 1
    17    6    7 2
    18    6   37 1
    19    7    8 1
    20    7   38 1
    21    8    9 1
    22    8   39 1
    23    8   40 1
    24    9   10 2
    25    9   41 1
    26   10   11 1
    27   10   42 1
    28   11   12 1
    29   11   43 1
    30   11   44 1
    31   12   13 2
    32   12   45 1
    33   13   14 1
    34   13   46 1
    35   14   15 1
    36   14   47 1
    37   14   48 1
    38   15   16 2
    39   15   49 1
    40   16   17 1
    41   16   50 1
    42   17   18 1
    43   17   51 1
    44   17   52 1
    45   18   19 1
    46   18   53 1
    47   18   54 1
    48   19   20 1
    49   19   55 1
    50   19   56 1
    51   20   21 2
    52   20   22 am
    53   22   23 1
    54   22   57 1
    55   23   24 1
    56   23   58 1
    57   23   59 1
    58   24   25 1
    59   24   60 1
    60   24   61 1
    61   25   62 1
@<TRIPOS>MOLECULE
ZINC13761100
   61    60     0     0     0
SMALL
USER_CHARGES
(5Z,8Z,11Z,14Z)-N-ethylicosa-5,8,11,14-tetraenamide
@<TRIPOS>ATOM
      1 C1          1.8622   -0.7602   -4.9515 C.3       1 <0>        -0.1543
      2 C2          1.3560    0.0455   -3.7534 C.3       1 <0>        -0.1260
      3 C3          1.6704   -0.7106   -2.4609 C.3       1 <0>        -0.1214
      4 C4          1.1642    0.0951   -1.2627 C.3       1 <0>        -0.1145
      5 C5          1.4787   -0.6609    0.0297 C.3       1 <0>        -0.1025
      6 C6          0.9800    0.1326    1.2099 C.2       1 <0>        -0.1580
      7 C7          0.2026   -0.4342    2.0989 C.2       1 <0>        -0.1535
      8 C8         -0.0603   -1.9167    2.0341 C.3       1 <0>        -0.0837
      9 C9          0.2658   -2.5434    3.3653 C.2       1 <0>        -0.1510
     10 C10        -0.6188   -3.2986    3.9680 C.2       1 <0>        -0.1522
     11 C11        -1.8950   -3.6754    3.2605 C.3       1 <0>        -0.0838
     12 C12        -2.0561   -5.1736    3.2791 C.2       1 <0>        -0.1518
     13 C13        -3.1634   -5.7078    3.7315 C.2       1 <0>        -0.1514
     14 C14        -4.3410   -4.8296    4.0679 C.3       1 <0>        -0.0834
     15 C15        -5.5641   -5.3304    3.3439 C.2       1 <0>        -0.1524
     16 C16        -6.6597   -5.5922    4.0125 C.2       1 <0>        -0.1567
     17 C17        -6.7526   -5.2394    5.4747 C.3       1 <0>        -0.1018
     18 C18        -8.0167   -4.4133    5.7207 C.3       1 <0>        -0.0988
     19 C19        -8.1110   -4.0551    7.2052 C.3       1 <0>        -0.1414
     20 C20        -9.3561   -3.2414    7.4475 C.2       1 <0>         0.5094
     21 O1        -10.0952   -2.9743    6.5238 O.2       1 <0>        -0.5387
     22 N1         -9.6482   -2.8105    8.6907 N.am      1 <0>        -0.7356
     23 C21       -10.8586   -2.0195    8.9262 C.3       1 <0>         0.1118
     24 C22       -10.9529   -1.6613   10.4107 C.3       1 <0>        -0.1659
     25 H1          2.9397   -0.9007   -4.8657 H         1 <0>         0.0534
     26 H2          1.3694   -1.7322   -4.9701 H         1 <0>         0.0534
     27 H3          1.6382   -0.2216   -5.8723 H         1 <0>         0.0535
     28 H4          0.2785    0.1860   -3.8391 H         1 <0>         0.0606
     29 H5          1.8488    1.0175   -3.7348 H         1 <0>         0.0605
     30 H6          2.7479   -0.8511   -2.3751 H         1 <0>         0.0613
     31 H7          1.1776   -1.6826   -2.4795 H         1 <0>         0.0610
     32 H8          0.0867    0.2356   -1.3485 H         1 <0>         0.0620
     33 H9          1.6570    1.0671   -1.2442 H         1 <0>         0.0616
     34 H10         0.9858   -1.6330    0.0111 H         1 <0>         0.0756
     35 H11         2.5562   -0.8014    0.1155 H         1 <0>         0.0688
     36 H12         1.2636    1.1686    1.3226 H         1 <0>         0.1088
     37 H13        -0.2498    0.1609    2.8784 H         1 <0>         0.1085
     38 H14        -1.1104   -2.0895    1.7987 H         1 <0>         0.0830
     39 H15         0.5638   -2.3629    1.2599 H         1 <0>         0.0840
     40 H16         1.2288   -2.3698    3.8224 H         1 <0>         0.1096
     41 H17        -0.4335   -3.6512    4.9719 H         1 <0>         0.1098
     42 H18        -2.7417   -3.2126    3.7674 H         1 <0>         0.0834
     43 H19        -1.8547   -3.3271    2.2285 H         1 <0>         0.0834
     44 H20        -1.2586   -5.8070    2.9195 H         1 <0>         0.1098
     45 H21        -3.2323   -6.7775    3.8634 H         1 <0>         0.1098
     46 H22        -4.5187   -4.8564    5.1430 H         1 <0>         0.0835
     47 H23        -4.1302   -3.8055    3.7599 H         1 <0>         0.0830
     48 H24        -5.5374   -5.4734    2.2737 H         1 <0>         0.1093
     49 H25        -7.4964   -6.0609    3.5159 H         1 <0>         0.1104
     50 H26        -6.7949   -6.1534    6.0671 H         1 <0>         0.0705
     51 H27        -5.8769   -4.6587    5.7647 H         1 <0>         0.0765
     52 H28        -7.9744   -3.4993    5.1284 H         1 <0>         0.0710
     53 H29        -8.8924   -4.9940    5.4307 H         1 <0>         0.0707
     54 H30        -8.1533   -4.9691    7.7975 H         1 <0>         0.0940
     55 H31        -7.2353   -3.4744    7.4952 H         1 <0>         0.0935
     56 H32        -9.0570   -3.0242    9.4294 H         1 <0>         0.4008
     57 H33       -10.8163   -1.1055    8.3339 H         1 <0>         0.0669
     58 H34       -11.7343   -2.6002    8.6363 H         1 <0>         0.0670
     59 H35       -10.9952   -2.5753   11.0031 H         1 <0>         0.0619
     60 H36       -10.0772   -1.0806   10.7007 H         1 <0>         0.0619
     61 H37       -11.8534   -1.0728   10.5860 H         1 <0>         0.0749
@<TRIPOS>BOND
     1    1    2 1
     2    1   25 1
     3    1   26 1
     4    1   27 1
     5    2    3 1
     6    2   28 1
     7    2   29 1
     8    3    4 1
     9    3   30 1
    10    3   31 1
    11    4    5 1
    12    4   32 1
    13    4   33 1
    14    5    6 1
    15    5   34 1
    16    5   35 1
    17    6    7 2
    18    6   36 1
    19    7    8 1
    20    7   37 1
    21    8    9 1
    22    8   38 1
    23    8   39 1
    24    9   10 2
    25    9   40 1
    26   10   11 1
    27   10   41 1
    28   11   12 1
    29   11   42 1
    30   11   43 1
    31   12   13 2
    32   12   44 1
    33   13   14 1
    34   13   45 1
    35   14   15 1
    36   14   46 1
    37   14   47 1
    38   15   16 2
    39   15   48 1
    40   16   17 1
    41   16   49 1
    42   17   18 1
    43   17   50 1
    44   17   51 1
    45   18   19 1
    46   18   52 1
    47   18   53 1
    48   19   20 1
    49   19   54 1
    50   19   55 1
    51   20   21 2
    52   20   22 am
    53   22   23 1
    54   22   56 1
    55   23   24 1
    56   23   57 1
    57   23   58 1
    58   24   59 1
    59   24   60 1
    60   24   61 1
@<TRIPOS>MOLECULE
ZINC13761105
   65    64     0     0     0
SMALL
USER_CHARGES
2-[[(5Z,8Z,11Z,14Z)-icosa-5,8,11,14-tetraenoyl]amino]ethyl dihydrogen phosphate
@<TRIPOS>ATOM
      1 C1          1.8622   -0.7602   -4.9515 C.3       1 <0>        -0.1534
      2 C2          1.3560    0.0455   -3.7534 C.3       1 <0>        -0.1263
      3 C3          1.6704   -0.7106   -2.4609 C.3       1 <0>        -0.1209
      4 C4          1.1642    0.0951   -1.2627 C.3       1 <0>        -0.1149
      5 C5          1.4787   -0.6609    0.0297 C.3       1 <0>        -0.1005
      6 C6          0.9800    0.1326    1.2099 C.2       1 <0>        -0.1662
      7 C7          0.2026   -0.4342    2.0989 C.2       1 <0>        -0.1465
      8 C8         -0.0603   -1.9167    2.0341 C.3       1 <0>        -0.0826
      9 C9          0.2658   -2.5434    3.3653 C.2       1 <0>        -0.1589
     10 C10        -0.6188   -3.2986    3.9680 C.2       1 <0>        -0.1442
     11 C11        -1.8950   -3.6754    3.2605 C.3       1 <0>        -0.0851
     12 C12        -2.0561   -5.1736    3.2791 C.2       1 <0>        -0.1592
     13 C13        -3.1634   -5.7078    3.7315 C.2       1 <0>        -0.1425
     14 C14        -4.3410   -4.8296    4.0679 C.3       1 <0>        -0.0867
     15 C15        -5.5641   -5.3304    3.3439 C.2       1 <0>        -0.1620
     16 C16        -6.6597   -5.5922    4.0125 C.2       1 <0>        -0.1451
     17 C17        -6.7526   -5.2394    5.4747 C.3       1 <0>        -0.1050
     18 C18        -8.0167   -4.4133    5.7207 C.3       1 <0>        -0.0935
     19 C19        -8.1110   -4.0551    7.2052 C.3       1 <0>        -0.1442
     20 C20        -9.3561   -3.2414    7.4475 C.2       1 <0>         0.5063
     21 O1        -10.0952   -2.9743    6.5238 O.2       1 <0>        -0.5656
     22 N1         -9.6482   -2.8105    8.6907 N.am      1 <0>        -0.7083
     23 C21       -10.8586   -2.0195    8.9262 C.3       1 <0>         0.1182
     24 C22       -10.9529   -1.6613   10.4107 C.3       1 <0>         0.1143
     25 O2         -9.8660   -0.8034   10.7637 O.3       1 <0>        -0.7581
     26 P1         -9.6504   -0.2283   12.2519 P.3       1 <0>         2.1322
     27 O3        -10.8767    0.4739   12.6919 O.2       1 <0>        -1.1662
     28 H1          1.6382   -0.2216   -5.8723 H         1 <0>         0.0523
     29 H2          2.9397   -0.9007   -4.8657 H         1 <0>         0.0524
     30 H3          1.3694   -1.7322   -4.9701 H         1 <0>         0.0534
     31 H4          0.2785    0.1860   -3.8391 H         1 <0>         0.0613
     32 H5          1.8488    1.0175   -3.7348 H         1 <0>         0.0600
     33 H6          2.7479   -0.8511   -2.3751 H         1 <0>         0.0601
     34 H7          1.1776   -1.6826   -2.4795 H         1 <0>         0.0612
     35 H8          0.0867    0.2356   -1.3485 H         1 <0>         0.0628
     36 H9          1.6570    1.0671   -1.2442 H         1 <0>         0.0608
     37 H10         0.9858   -1.6330    0.0111 H         1 <0>         0.0757
     38 H11         2.5562   -0.8014    0.1155 H         1 <0>         0.0664
     39 H12         1.2636    1.1686    1.3226 H         1 <0>         0.1080
     40 H13        -0.2498    0.1609    2.8784 H         1 <0>         0.1108
     41 H14        -1.1104   -2.0895    1.7987 H         1 <0>         0.0842
     42 H15         0.5638   -2.3629    1.2599 H         1 <0>         0.0812
     43 H16         1.2288   -2.3698    3.8224 H         1 <0>         0.1084
     44 H17        -0.4335   -3.6512    4.9719 H         1 <0>         0.1114
     45 H18        -2.7417   -3.2126    3.7674 H         1 <0>         0.0874
     46 H19        -1.8547   -3.3271    2.2285 H         1 <0>         0.0812
     47 H20        -1.2586   -5.8070    2.9195 H         1 <0>         0.1068
     48 H21        -3.2323   -6.7775    3.8634 H         1 <0>         0.1087
     49 H22        -4.5187   -4.8564    5.1430 H         1 <0>         0.0884
     50 H23        -4.1302   -3.8055    3.7599 H         1 <0>         0.0828
     51 H24        -5.5374   -5.4734    2.2737 H         1 <0>         0.1057
     52 H25        -7.4964   -6.0609    3.5159 H         1 <0>         0.1085
     53 H26        -6.7949   -6.1534    6.0671 H         1 <0>         0.0709
     54 H27        -5.8769   -4.6587    5.7647 H         1 <0>         0.0773
     55 H28        -7.9744   -3.4993    5.1284 H         1 <0>         0.0693
     56 H29        -8.8924   -4.9940    5.4307 H         1 <0>         0.0675
     57 H30        -8.1533   -4.9691    7.7975 H         1 <0>         0.0909
     58 H31        -7.2353   -3.4744    7.4952 H         1 <0>         0.0941
     59 H32        -9.0570   -3.0242    9.4294 H         1 <0>         0.4095
     60 H33       -10.8163   -1.1055    8.3339 H         1 <0>         0.0688
     61 H34       -11.7343   -2.6002    8.6363 H         1 <0>         0.0651
     62 H35       -11.8963   -1.1499   10.6019 H         1 <0>         0.0518
     63 H36       -10.9057   -2.5719   11.0079 H         1 <0>         0.0400
     64 O4         -9.3389   -1.4460   13.2580 O.3       1 <0>        -1.2005
     65 O5         -8.4122    0.8008   12.2554 O.3       1 <0>        -1.1797
@<TRIPOS>BOND
     1    1    2 1
     2    1   28 1
     3    1   29 1
     4    1   30 1
     5    2    3 1
     6    2   31 1
     7    2   32 1
     8    3    4 1
     9    3   33 1
    10    3   34 1
    11    4    5 1
    12    4   35 1
    13    4   36 1
    14    5    6 1
    15    5   37 1
    16    5   38 1
    17    6    7 2
    18    6   39 1
    19    7    8 1
    20    7   40 1
    21    8    9 1
    22    8   41 1
    23    8   42 1
    24    9   10 2
    25    9   43 1
    26   10   11 1
    27   10   44 1
    28   11   12 1
    29   11   45 1
    30   11   46 1
    31   12   13 2
    32   12   47 1
    33   13   14 1
    34   13   48 1
    35   14   15 1
    36   14   49 1
    37   14   50 1
    38   15   16 2
    39   15   51 1
    40   16   17 1
    41   16   52 1
    42   17   18 1
    43   17   53 1
    44   17   54 1
    45   18   19 1
    46   18   55 1
    47   18   56 1
    48   19   20 1
    49   19   57 1
    50   19   58 1
    51   20   21 2
    52   20   22 am
    53   22   23 1
    54   22   59 1
    55   23   24 1
    56   23   60 1
    57   23   61 1
    58   24   25 1
    59   24   62 1
    60   24   63 1
    61   25   26 1
    62   26   27 2
    63   26   64 1
    64   26   65 1
@<TRIPOS>MOLECULE
ZINC08036015
   55    54     0     0     0
SMALL
USER_CHARGES
octadec-9-enamide
@<TRIPOS>ATOM
      1 C1          0.0625    2.5023   -8.6169 C.3       1 <0>        -0.1544
      2 C2          0.6195    1.7877   -7.3840 C.3       1 <0>        -0.1260
      3 C3         -0.1205    2.2727   -6.1358 C.3       1 <0>        -0.1214
      4 C4          0.4365    1.5582   -4.9028 C.3       1 <0>        -0.1210
      5 C5         -0.3035    2.0432   -3.6546 C.3       1 <0>        -0.1206
      6 C6          0.2535    1.3286   -2.4217 C.3       1 <0>        -0.1205
      7 C7         -0.4865    1.8136   -1.1734 C.3       1 <0>        -0.1139
      8 C8          0.0704    1.0991    0.0595 C.3       1 <0>        -0.1017
      9 C9         -0.6584    1.5768    1.2890 C.2       1 <0>        -0.1600
     10 C10        -1.1961    0.7092    2.1102 C.2       1 <0>        -0.1599
     11 C11        -0.9432   -0.7643    1.9210 C.3       1 <0>        -0.1018
     12 C12        -0.4114   -1.3620    3.2252 C.3       1 <0>        -0.1143
     13 C13        -0.1547   -2.8581    3.0332 C.3       1 <0>        -0.1199
     14 C14         0.3771   -3.4558    4.3373 C.3       1 <0>        -0.1208
     15 C15         0.6338   -4.9518    4.1453 C.3       1 <0>        -0.1200
     16 C16         1.1656   -5.5496    5.4494 C.3       1 <0>        -0.1067
     17 C17         1.4223   -7.0456    5.2574 C.3       1 <0>        -0.1430
     18 C18         1.9461   -7.6343    6.5420 C.2       1 <0>         0.5135
     19 O1          2.0990   -6.9270    7.5152 O.2       1 <0>        -0.5433
     20 N1          2.2446   -8.9469    6.6092 N.am      1 <0>        -0.8595
     21 H1          0.5897    2.1567   -9.5062 H         1 <0>         0.0534
     22 H2         -1.0002    2.2813   -8.7158 H         1 <0>         0.0533
     23 H3          0.2014    3.5778   -8.5072 H         1 <0>         0.0533
     24 H4          1.6823    2.0087   -7.2852 H         1 <0>         0.0602
     25 H5          0.4807    0.7122   -7.4938 H         1 <0>         0.0602
     26 H6         -1.1833    2.0518   -6.2346 H         1 <0>         0.0606
     27 H7          0.0183    3.3483   -6.0260 H         1 <0>         0.0606
     28 H8          1.4993    1.7791   -4.8040 H         1 <0>         0.0606
     29 H9          0.2977    0.4826   -5.0126 H         1 <0>         0.0605
     30 H10        -1.3663    1.8222   -3.7534 H         1 <0>         0.0607
     31 H11        -0.1647    3.1187   -3.5449 H         1 <0>         0.0607
     32 H12         1.3162    1.5496   -2.3228 H         1 <0>         0.0611
     33 H13         0.1146    0.2531   -2.5314 H         1 <0>         0.0607
     34 H14        -1.5493    1.5927   -1.2723 H         1 <0>         0.0615
     35 H15        -0.3477    2.8892   -1.0637 H         1 <0>         0.0612
     36 H16        -0.0684    0.0235   -0.0502 H         1 <0>         0.0758
     37 H17         1.1332    1.3200    0.1583 H         1 <0>         0.0678
     38 H18        -0.7375    2.6344    1.4931 H         1 <0>         0.1072
     39 H19        -1.8206    1.0500    2.9228 H         1 <0>         0.1073
     40 H20        -1.8742   -1.2605    1.6470 H         1 <0>         0.0676
     41 H21        -0.2081   -0.9081    1.1292 H         1 <0>         0.0757
     42 H22         0.5196   -0.8659    3.4992 H         1 <0>         0.0619
     43 H23        -1.1465   -1.2183    4.0171 H         1 <0>         0.0616
     44 H24        -1.0857   -3.3543    2.7591 H         1 <0>         0.0612
     45 H25         0.5804   -3.0019    2.2413 H         1 <0>         0.0609
     46 H26         1.3081   -2.9596    4.6114 H         1 <0>         0.0625
     47 H27        -0.3580   -3.3120    5.1292 H         1 <0>         0.0625
     48 H28        -0.2972   -5.4480    3.8712 H         1 <0>         0.0622
     49 H29         1.3689   -5.0956    3.3534 H         1 <0>         0.0621
     50 H30         2.0966   -5.0534    5.7235 H         1 <0>         0.0698
     51 H31         0.4305   -5.4058    6.2413 H         1 <0>         0.0698
     52 H32         0.4913   -7.5418    4.9834 H         1 <0>         0.0941
     53 H33         2.1574   -7.1894    4.4655 H         1 <0>         0.0941
     54 H34         2.1224   -9.5126    5.8308 H         1 <0>         0.4017
     55 H35         2.5818   -9.3259    7.4361 H         1 <0>         0.4011
@<TRIPOS>BOND
     1    1    2 1
     2    1   21 1
     3    1   22 1
     4    1   23 1
     5    2    3 1
     6    2   24 1
     7    2   25 1
     8    3    4 1
     9    3   26 1
    10    3   27 1
    11    4    5 1
    12    4   28 1
    13    4   29 1
    14    5    6 1
    15    5   30 1
    16    5   31 1
    17    6    7 1
    18    6   32 1
    19    6   33 1
    20    7    8 1
    21    7   34 1
    22    7   35 1
    23    8    9 1
    24    8   36 1
    25    8   37 1
    26    9   10 2
    27    9   38 1
    28   10   11 1
    29   10   39 1
    30   11   12 1
    31   11   40 1
    32   11   41 1
    33   12   13 1
    34   12   42 1
    35   12   43 1
    36   13   14 1
    37   13   44 1
    38   13   45 1
    39   14   15 1
    40   14   46 1
    41   14   47 1
    42   15   16 1
    43   15   48 1
    44   15   49 1
    45   16   17 1
    46   16   50 1
    47   16   51 1
    48   17   18 1
    49   17   52 1
    50   17   53 1
    51   18   19 2
    52   18   20 am
    53   20   54 1
    54   20   55 1
@<TRIPOS>MOLECULE
ZINC01489479
   55    58     0     0     0
SMALL
USER_CHARGES

@<TRIPOS>ATOM
      1 C1         -0.8988   -2.2076   -2.0986 C.3       1 <0>        -0.0820
      2 C2         -1.6633   -1.7139   -0.8974 C.2       1 <0>        -0.1108
      3 C3         -1.3489   -0.6530   -0.0945 C.2       1 <0>         0.0604
      4 N1         -2.3181   -0.5842    0.8660 N.pl3     1 <0>        -0.2329
      5 N2         -3.1824   -1.5168    0.6838 N.2       1 <0>        -0.2396
      6 C4         -2.8560   -2.2492   -0.3638 C.2       1 <0>        -0.0014
      7 C5         -3.6012   -3.4138   -0.8832 C.2       1 <0>         0.6244
      8 O1         -3.1947   -4.0079   -1.8629 O.2       1 <0>        -0.4961
      9 N3         -4.7320   -3.8179   -0.2711 N.am      1 <0>        -0.5725
     10 N4         -5.4212   -4.8950   -0.7516 N.3       1 <0>        -0.2923
     11 C6         -6.7515   -4.4978   -1.2300 C.3       1 <0>         0.0382
     12 C7         -7.4360   -5.6961   -1.8915 C.3       1 <0>        -0.1137
     13 C8         -7.5577   -6.8338   -0.8739 C.3       1 <0>        -0.1251
     14 C9         -6.1632   -7.1957   -0.3554 C.3       1 <0>        -0.1137
     15 C10        -5.5156   -5.9538    0.2615 C.3       1 <0>         0.0386
     16 C11        -2.3644    0.3650    1.8949 C.ar      1 <0>         0.1417
     17 C12        -1.2364    0.6095    2.6672 C.ar      1 <0>        -0.0770
     18 C13        -1.2829    1.5500    3.6772 C.ar      1 <0>        -0.0891
     19 C14        -2.4557    2.2411    3.9283 C.ar      1 <0>        -0.0146
     20 C15        -3.5832    1.9961    3.1647 C.ar      1 <0>        -0.0921
     21 C16        -3.5408    1.0599    2.1486 C.ar      1 <0>        -0.0132
     22 Cl1        -4.9554    0.7530    1.1902 Cl        1 <0>        -0.0241
     23 Cl2        -2.5118    3.4178    5.2033 Cl        1 <0>        -0.0403
     24 C17        -0.1807    0.2439   -0.2350 C.ar      1 <0>        -0.0720
     25 C18        -0.3639    1.6256   -0.3029 C.ar      1 <0>        -0.0535
     26 C19         0.7272    2.4582   -0.4333 C.ar      1 <0>        -0.2050
     27 C20         2.0070    1.9236   -0.4975 C.ar      1 <0>         0.1434
     28 C21         2.1933    0.5493   -0.4298 C.ar      1 <0>        -0.1485
     29 C22         1.1070   -0.2897   -0.2994 C.ar      1 <0>        -0.0478
     30 O2          3.0799    2.7473   -0.6269 O.3       1 <0>        -0.3136
     31 C23         2.8166    4.1504   -0.6906 C.3       1 <0>         0.0247
     32 H1         -0.1641   -2.9481   -1.7825 H         1 <0>         0.0727
     33 H2         -1.5905   -2.6619   -2.8080 H         1 <0>         0.0869
     34 H3         -0.3888   -1.3698   -2.5741 H         1 <0>         0.0663
     35 H4         -5.0563   -3.3439    0.5105 H         1 <0>         0.3862
     36 H5         -7.3529   -4.1552   -0.3880 H         1 <0>         0.0398
     37 H6         -6.6504   -3.6910   -1.9560 H         1 <0>         0.0812
     38 H7         -6.8420   -6.0306   -2.7420 H         1 <0>         0.0773
     39 H8         -8.4294   -5.4056   -2.2331 H         1 <0>         0.0735
     40 H9         -8.0055   -7.7045   -1.3529 H         1 <0>         0.0699
     41 H10        -8.1842   -6.5137   -0.0414 H         1 <0>         0.0603
     42 H11        -5.5492   -7.5537   -1.1818 H         1 <0>         0.0773
     43 H12        -6.2473   -7.9760    0.4010 H         1 <0>         0.0739
     44 H13        -4.5168   -6.2047    0.6189 H         1 <0>         0.0821
     45 H14        -6.1230   -5.6045    1.0965 H         1 <0>         0.0404
     46 H15        -0.3222    0.0674    2.4752 H         1 <0>         0.1518
     47 H16        -0.4044    1.7434    4.2749 H         1 <0>         0.1541
     48 H17        -4.4970    2.5364    3.3629 H         1 <0>         0.1567
     49 H18        -1.3594    2.0419   -0.2579 H         1 <0>         0.1214
     50 H19         0.5862    3.5277   -0.4859 H         1 <0>         0.1332
     51 H20         3.1902    0.1370   -0.4797 H         1 <0>         0.1387
     52 H21         1.2526   -1.3586   -0.2475 H         1 <0>         0.1370
     53 H22         2.3125    4.4672    0.2224 H         1 <0>         0.0575
     54 H23         3.7568    4.6922   -0.7933 H         1 <0>         0.1034
     55 H24         2.1796    4.3619   -1.5494 H         1 <0>         0.0580
@<TRIPOS>BOND
     1    1    2 1
     2    1   32 1
     3    1   33 1
     4    1   34 1
     5    2    6 1
     6    2    3 2
     7    3    4 1
     8    3   24 1
     9    4    5 1
    10    4   16 1
    11    5    6 2
    12    6    7 1
    13    7    8 2
    14    7    9 am
    15    9   10 1
    16    9   35 1
    17   10   15 1
    18   10   11 1
    19   11   12 1
    20   11   36 1
    21   11   37 1
    22   12   13 1
    23   12   38 1
    24   12   39 1
    25   13   14 1
    26   13   40 1
    27   13   41 1
    28   14   15 1
    29   14   42 1
    30   14   43 1
    31   15   44 1
    32   15   45 1
    33   16   21 ar
    34   16   17 ar
    35   17   18 ar
    36   17   46 1
    37   18   19 ar
    38   18   47 1
    39   19   20 ar
    40   19   23 1
    41   20   21 ar
    42   20   48 1
    43   21   22 1
    44   24   29 ar
    45   24   25 ar
    46   25   26 ar
    47   25   49 1
    48   26   27 ar
    49   26   50 1
    50   27   28 ar
    51   27   30 1
    52   28   29 ar
    53   28   51 1
    54   29   52 1
    55   30   31 1
    56   31   53 1
    57   31   54 1
    58   31   55 1
@<TRIPOS>MOLECULE
ZINC27642247
   57    58     0     0     0
SMALL
USER_CHARGES
5-(1,1-dimethylheptyl)-2-[(1S,3R)-3-hydroxycyclohexyl]phenol
@<TRIPOS>ATOM
      1 C1          2.6992   15.5634    0.0533 C.3       1 <0>        -0.1556
      2 C2          2.7155   14.0335    0.0460 C.3       1 <0>        -0.1267
      3 C3          1.2786   13.5081    0.0572 C.3       1 <0>        -0.1210
      4 C4          1.2949   11.9782    0.0499 C.3       1 <0>        -0.1214
      5 C5         -0.1420   11.4529    0.0611 C.3       1 <0>        -0.1245
      6 C6         -0.1257    9.9230    0.0538 C.3       1 <0>        -0.1108
      7 C7         -1.5627    9.3976    0.0650 C.3       1 <0>        -0.0245
      8 C8         -2.3012    9.9057   -1.1749 C.3       1 <0>        -0.1413
      9 C9         -2.2774    9.8940    1.3235 C.3       1 <0>        -0.1413
     10 C10        -1.5466    7.8907    0.0578 C.ar      1 <0>        -0.0304
     11 C11        -0.3414    7.2127    0.0431 C.ar      1 <0>        -0.1621
     12 C12        -0.3234    5.8304    0.0365 C.ar      1 <0>        -0.0731
     13 C13        -1.5100    5.1227    0.0440 C.ar      1 <0>        -0.1228
     14 C14        -2.7202    5.8005    0.0534 C.ar      1 <0>         0.1601
     15 C15        -2.7357    7.1879    0.0663 C.ar      1 <0>        -0.2085
     16 O1         -3.8889    5.1068    0.0551 O.3       1 <0>        -0.5089
     17 C16        -1.4896    3.6159    0.0357 C.3       1 <0>        -0.0363
     18 H1         -2.5269    3.2499    0.0436 H         1 <0>         0.0856
     19 C17        -0.7734    3.1225   -1.2231 C.3       1 <0>        -0.1122
     20 C18        -0.7527    1.5927   -1.2315 C.3       1 <0>        -0.1171
     21 C19        -0.0127    1.0858    0.0080 C.3       1 <0>        -0.1125
     22 C20        -0.7288    1.5792    1.2668 C.3       1 <0>         0.1161
     23 H2         -1.7460    1.1660    1.3348 H         1 <0>         0.0491
     24 C21        -0.7496    3.1091    1.2752 C.3       1 <0>        -0.1375
     25 O2         -0.0377    1.1059    2.4245 O.3       1 <0>        -0.6028
     26 H3          3.7323   15.9411    0.0452 H         1 <0>         0.0537
     27 H4          2.1853   15.9203    0.9581 H         1 <0>         0.0536
     28 H5          2.1683   15.9287   -0.8382 H         1 <0>         0.0536
     29 H6          3.2294   13.6766   -0.8588 H         1 <0>         0.0605
     30 H7          3.2465   13.6682    0.9374 H         1 <0>         0.0605
     31 H8          0.7648   13.8650    0.9620 H         1 <0>         0.0606
     32 H9          0.7476   13.8734   -0.8342 H         1 <0>         0.0606
     33 H10         1.8088   11.6213   -0.8549 H         1 <0>         0.0606
     34 H11         1.8259   11.6129    0.9413 H         1 <0>         0.0606
     35 H12        -0.6558   11.8098    0.9659 H         1 <0>         0.0652
     36 H13        -0.6729   11.8182   -0.8303 H         1 <0>         0.0652
     37 H14         0.3882    9.5661   -0.8510 H         1 <0>         0.0661
     38 H15         0.4053    9.5577    0.9452 H         1 <0>         0.0660
     39 H16        -3.3343    9.5280   -1.1668 H         1 <0>         0.0545
     40 H17        -1.7873    9.5488   -2.0796 H         1 <0>         0.0566
     41 H18        -2.3129   11.0056   -1.1696 H         1 <0>         0.0634
     42 H19        -3.3105    9.5163    1.3316 H         1 <0>         0.0545
     43 H20        -2.2891   10.9939    1.3288 H         1 <0>         0.0634
     44 H21        -1.7464    9.5287    2.2149 H         1 <0>         0.0565
     45 H22         0.5872    7.7640    0.0365 H         1 <0>         0.1260
     46 H23         0.6192    5.3032    0.0250 H         1 <0>         0.1245
     47 H24        -3.6766    7.7179    0.0781 H         1 <0>         0.1231
     48 H25        -4.8481    5.6452    0.0626 H         1 <0>         0.4306
     49 H26        -1.3054    3.4869   -2.1143 H         1 <0>         0.0648
     50 H27         0.2586    3.5032   -1.2309 H         1 <0>         0.0645
     51 H28        -1.7847    1.2120   -1.2237 H         1 <0>         0.0648
     52 H29        -0.2379    1.2379   -2.1365 H         1 <0>         0.0706
     53 H30         0.0022   -0.0141    0.0019 H         1 <0>         0.0682
     54 H31         1.0193    1.4665    0.0002 H         1 <0>         0.0695
     55 H32         0.2824    3.4899    1.2674 H         1 <0>         0.0708
     56 H33        -1.2644    3.4638    2.1802 H         1 <0>         0.0624
     57 H34        -0.4076    1.3612    3.4285 H         1 <0>         0.4051
@<TRIPOS>BOND
     1    1    2 1
     2    1   26 1
     3    1   27 1
     4    1   28 1
     5    2    3 1
     6    2   29 1
     7    2   30 1
     8    3    4 1
     9    3   31 1
    10    3   32 1
    11    4    5 1
    12    4   33 1
    13    4   34 1
    14    5    6 1
    15    5   35 1
    16    5   36 1
    17    6    7 1
    18    6   37 1
    19    6   38 1
    20    7    8 1
    21    7    9 1
    22    7   10 1
    23    8   39 1
    24    8   40 1
    25    8   41 1
    26    9   42 1
    27    9   43 1
    28    9   44 1
    29   10   15 ar
    30   10   11 ar
    31   11   12 ar
    32   11   45 1
    33   12   13 ar
    34   12   46 1
    35   13   14 ar
    36   13   17 1
    37   14   15 ar
    38   14   16 1
    39   15   47 1
    40   16   48 1
    41   17   18 1
    42   17   24 1
    43   17   19 1
    44   19   20 1
    45   19   49 1
    46   19   50 1
    47   20   21 1
    48   20   51 1
    49   20   52 1
    50   21   22 1
    51   21   53 1
    52   21   54 1
    53   22   23 1
    54   22   24 1
    55   22   25 1
    56   24   55 1
    57   24   56 1
    58   25   57 1
@<TRIPOS>MOLECULE
ZINC36294576
   64    63     0     0     0
SMALL
USER_CHARGES

@<TRIPOS>ATOM
      1 C1         -0.0187    1.5258    0.0104 C.3       1 <0>        -0.1543
      2 C2          0.0021   -0.0041    0.0020 C.3       1 <0>        -0.1262
      3 C3          0.7182   -0.4975   -1.2568 C.3       1 <0>        -0.1213
      4 C4          0.7390   -2.0273   -1.2652 C.3       1 <0>        -0.1212
      5 C5          1.4551   -2.5207   -2.5240 C.3       1 <0>        -0.1206
      6 C6          1.4758   -4.0506   -2.5324 C.3       1 <0>        -0.1207
      7 C7          2.1920   -4.5440   -3.7912 C.3       1 <0>        -0.1205
      8 C8          2.2127   -6.0738   -3.7996 C.3       1 <0>        -0.1207
      9 C9          2.9289   -6.5673   -5.0584 C.3       1 <0>        -0.1204
     10 C10         2.9496   -8.0971   -5.0668 C.3       1 <0>        -0.1208
     11 C11         3.6658   -8.5905   -6.3257 C.3       1 <0>        -0.1203
     12 C12         3.6865  -10.1203   -6.3341 C.3       1 <0>        -0.1211
     13 C13         4.4026  -10.6138   -7.5929 C.3       1 <0>        -0.1199
     14 C14         4.4234  -12.1436   -7.6013 C.3       1 <0>        -0.1207
     15 C15         5.1395  -12.6370   -8.8601 C.3       1 <0>        -0.1201
     16 C16         5.1603  -14.1669   -8.8685 C.3       1 <0>        -0.1050
     17 C17         5.8764  -14.6603  -10.1273 C.3       1 <0>        -0.1404
     18 C18         5.8969  -16.1671  -10.1356 C.2       1 <0>         0.5101
     19 O1          5.3887  -16.7855   -9.2244 O.2       1 <0>        -0.5411
     20 N1          6.4799  -16.8275  -11.1556 N.am      1 <0>        -0.7287
     21 C19         6.4997  -18.2924  -11.1636 C.3       1 <0>         0.1176
     22 C20         7.2159  -18.7858  -12.4224 C.3       1 <0>         0.0628
     23 O2          8.5880  -18.3894  -12.3762 O.3       1 <0>        -0.5723
     24 H1          1.0039    1.9031    0.0027 H         1 <0>         0.0533
     25 H2         -0.5459    1.8868   -0.8726 H         1 <0>         0.0533
     26 H3         -0.5289    1.8773    0.9072 H         1 <0>         0.0534
     27 H4          0.5293   -0.3651    0.8851 H         1 <0>         0.0603
     28 H5         -1.0205   -0.3814    0.0098 H         1 <0>         0.0602
     29 H6          0.1910   -0.1364   -2.1398 H         1 <0>         0.0605
     30 H7          1.7408   -0.1202   -1.2645 H         1 <0>         0.0605
     31 H8          1.2661   -2.3884   -0.3821 H         1 <0>         0.0605
     32 H9         -0.2836   -2.4046   -1.2575 H         1 <0>         0.0605
     33 H10         0.9279   -2.1597   -3.4071 H         1 <0>         0.0604
     34 H11         2.4777   -2.1435   -2.5317 H         1 <0>         0.0604
     35 H12         2.0030   -4.4117   -1.6494 H         1 <0>         0.0604
     36 H13         0.4533   -4.4279   -2.5247 H         1 <0>         0.0604
     37 H14         1.6648   -4.1829   -4.6743 H         1 <0>         0.0602
     38 H15         3.2146   -4.1667   -3.7990 H         1 <0>         0.0603
     39 H16         2.7399   -6.4349   -2.9166 H         1 <0>         0.0604
     40 H17         1.1901   -6.4511   -3.7919 H         1 <0>         0.0603
     41 H18         2.4017   -6.2062   -5.9415 H         1 <0>         0.0602
     42 H19         3.9515   -6.1900   -5.0662 H         1 <0>         0.0602
     43 H20         3.4768   -8.4582   -4.1838 H         1 <0>         0.0604
     44 H21         1.9270   -8.4744   -5.0591 H         1 <0>         0.0604
     45 H22         3.1386   -8.2294   -7.2087 H         1 <0>         0.0601
     46 H23         4.6884   -8.2132   -6.3334 H         1 <0>         0.0602
     47 H24         4.2137  -10.4814   -5.4510 H         1 <0>         0.0607
     48 H25         2.6639  -10.4976   -6.3263 H         1 <0>         0.0606
     49 H26         3.8755  -10.2527   -8.4759 H         1 <0>         0.0603
     50 H27         5.4252  -10.2365   -7.6006 H         1 <0>         0.0604
     51 H28         4.9506  -12.5047   -6.7182 H         1 <0>         0.0621
     52 H29         3.4008  -12.5209   -7.5935 H         1 <0>         0.0620
     53 H30         4.6123  -12.2759   -9.7431 H         1 <0>         0.0618
     54 H31         6.1621  -12.2597   -8.8678 H         1 <0>         0.0620
     55 H32         5.6875  -14.5279   -7.9854 H         1 <0>         0.0695
     56 H33         4.1377  -14.5441   -8.8608 H         1 <0>         0.0693
     57 H34         5.3492  -14.2992  -11.0104 H         1 <0>         0.0929
     58 H35         6.8990  -14.2830  -10.1350 H         1 <0>         0.0936
     59 H36         6.8863  -16.3330  -11.8844 H         1 <0>         0.4035
     60 H37         7.0269  -18.6535  -10.2806 H         1 <0>         0.0751
     61 H38         5.4771  -18.6697  -11.1559 H         1 <0>         0.0823
     62 H39         7.1533  -19.8728  -12.4736 H         1 <0>         0.0647
     63 H40         6.7420  -18.3527  -13.3034 H         1 <0>         0.0540
     64 H41         9.1043  -18.6691  -13.1445 H         1 <0>         0.3841
@<TRIPOS>BOND
     1    1    2 1
     2    1   24 1
     3    1   25 1
     4    1   26 1
     5    2    3 1
     6    2   27 1
     7    2   28 1
     8    3    4 1
     9    3   29 1
    10    3   30 1
    11    4    5 1
    12    4   31 1
    13    4   32 1
    14    5    6 1
    15    5   33 1
    16    5   34 1
    17    6    7 1
    18    6   35 1
    19    6   36 1
    20    7    8 1
    21    7   37 1
    22    7   38 1
    23    8    9 1
    24    8   39 1
    25    8   40 1
    26    9   10 1
    27    9   41 1
    28    9   42 1
    29   10   11 1
    30   10   43 1
    31   10   44 1
    32   11   12 1
    33   11   45 1
    34   11   46 1
    35   12   13 1
    36   12   47 1
    37   12   48 1
    38   13   14 1
    39   13   49 1
    40   13   50 1
    41   14   15 1
    42   14   51 1
    43   14   52 1
    44   15   16 1
    45   15   53 1
    46   15   54 1
    47   16   17 1
    48   16   55 1
    49   16   56 1
    50   17   18 1
    51   17   57 1
    52   17   58 1
    53   18   19 2
    54   18   20 am
    55   20   21 1
    56   20   59 1
    57   21   22 1
    58   21   60 1
    59   21   61 1
    60   22   23 1
    61   22   62 1
    62   22   63 1
    63   23   64 1
@<TRIPOS>MOLECULE
ZINC08214635
   88    88     0     0     0
SMALL
USER_CHARGES

@<TRIPOS>ATOM
      1 C1         -0.0187    1.5258    0.0104 C.3       1 <0>        -0.1544
      2 C2          0.0021   -0.0041    0.0020 C.3       1 <0>        -0.1261
      3 C3          0.7421   -0.5109    1.2415 C.3       1 <0>        -0.1213
      4 C4          0.7628   -2.0407    1.2331 C.3       1 <0>        -0.1211
      5 C5          1.5028   -2.5476    2.4727 C.3       1 <0>        -0.1207
      6 C6          1.5236   -4.0774    2.4642 C.3       1 <0>        -0.1205
      7 C7          2.2636   -4.5842    3.7038 C.3       1 <0>        -0.1205
      8 C8          2.2843   -6.1141    3.6954 C.3       1 <0>        -0.1201
      9 C9          3.0243   -6.6209    4.9349 C.3       1 <0>        -0.1193
     10 C10         3.0450   -8.1508    4.9265 C.3       1 <0>        -0.1194
     11 C11         3.7850   -8.6576    6.1660 C.3       1 <0>        -0.1168
     12 C12         3.8058  -10.1874    6.1576 C.3       1 <0>         0.0940
     13 H1          4.2361  -10.5398    5.2201 H         1 <0>         0.0875
     14 C13         4.6512  -10.6925    7.3285 C.3       1 <0>        -0.1574
     15 C14         4.7753  -12.2153    7.2485 C.3       1 <0>         0.0556
     16 H2          5.0062  -12.5666    6.2429 H         1 <0>         0.1361
     17 C15         5.6887  -12.8107    8.3277 C.3       1 <0>        -0.1706
     18 H3          6.4145  -12.1160    8.7504 H         1 <0>         0.1148
     19 C16         4.3489  -12.8371    9.0268 C.2       1 <0>         0.4711
     20 O1          4.0091  -12.8049   10.1859 O.2       1 <0>        -0.4341
     21 O2          3.6781  -12.9098    7.8576 O.3       1 <0>        -0.3020
     22 C17         6.2714  -14.1854    7.9938 C.3       1 <0>        -0.0893
     23 C18         7.2541  -14.6027    9.0897 C.3       1 <0>        -0.1208
     24 C19         7.8368  -15.9774    8.7559 C.3       1 <0>        -0.1201
     25 C20         8.8195  -16.3947    9.8518 C.3       1 <0>        -0.1209
     26 C21         9.4022  -17.7694    9.5179 C.3       1 <0>        -0.1259
     27 C22        10.3849  -18.1866   10.6139 C.3       1 <0>        -0.1542
     28 O3          2.4714  -10.6826    6.2851 O.3       1 <0>        -0.3440
     29 C23         2.2014  -11.8629    5.7056 C.2       1 <0>         0.4567
     30 O4          3.0693  -12.4559    5.1098 O.2       1 <0>        -0.4778
     31 C24         0.8158  -12.4483    5.7980 C.3       1 <0>         0.1602
     32 H4          0.0777  -11.6545    5.6837 H         1 <0>         0.1156
     33 C25         0.6358  -13.1196    7.1610 C.3       1 <0>        -0.1217
     34 C26        -0.8084  -13.6043    7.3040 C.3       1 <0>        -0.0910
     35 C27        -0.9574  -14.3844    8.6117 C.3       1 <0>        -0.1468
     36 C28        -1.7516  -12.3997    7.3184 C.3       1 <0>        -0.1519
     37 N1          0.6335  -13.4414    4.7366 N.am      1 <0>        -0.7301
     38 C29         1.4394  -14.5200    4.6772 C.2       1 <0>         0.4919
     39 O5          2.3155  -14.6685    5.5026 O.2       1 <0>        -0.5112
     40 H5          1.0039    1.9031    0.0027 H         1 <0>         0.0533
     41 H6         -0.5459    1.8868   -0.8726 H         1 <0>         0.0535
     42 H7         -0.5289    1.8773    0.9072 H         1 <0>         0.0534
     43 H8         -1.0205   -0.3814    0.0098 H         1 <0>         0.0602
     44 H9          0.5123   -0.3556   -0.8948 H         1 <0>         0.0602
     45 H10         1.7647   -0.1336    1.2338 H         1 <0>         0.0605
     46 H11         0.2319   -0.1594    2.1383 H         1 <0>         0.0606
     47 H12        -0.2598   -2.4180    1.2409 H         1 <0>         0.0605
     48 H13         1.2730   -2.3923    0.3363 H         1 <0>         0.0604
     49 H14         2.5254   -2.1703    2.4649 H         1 <0>         0.0604
     50 H15         0.9926   -2.1961    3.3695 H         1 <0>         0.0606
     51 H16         0.5010   -4.4547    2.4720 H         1 <0>         0.0604
     52 H17         2.0337   -4.4289    1.5675 H         1 <0>         0.0602
     53 H18         3.2861   -4.2070    3.6960 H         1 <0>         0.0605
     54 H19         1.7534   -4.2327    4.6006 H         1 <0>         0.0609
     55 H20         1.2617   -6.4914    3.7031 H         1 <0>         0.0608
     56 H21         2.7945   -6.4656    2.7986 H         1 <0>         0.0602
     57 H22         4.0469   -6.2436    4.9271 H         1 <0>         0.0617
     58 H23         2.5141   -6.2694    5.8317 H         1 <0>         0.0629
     59 H24         2.0224   -8.5280    4.9342 H         1 <0>         0.0667
     60 H25         3.5552   -8.5023    4.0297 H         1 <0>         0.0607
     61 H26         4.8076   -8.2803    6.1583 H         1 <0>         0.0846
     62 H27         3.2748   -8.3061    7.0628 H         1 <0>         0.0771
     63 H28         5.6436  -10.2441    7.2801 H         1 <0>         0.1069
     64 H29         4.1729  -10.4157    8.2680 H         1 <0>         0.0834
     65 H30         5.4652  -14.9163    7.9311 H         1 <0>         0.0763
     66 H31         6.7927  -14.1366    7.0377 H         1 <0>         0.0834
     67 H32         8.0603  -13.8718    9.1524 H         1 <0>         0.0664
     68 H33         6.7328  -14.6515   10.0458 H         1 <0>         0.0650
     69 H34         7.0306  -16.7083    8.6932 H         1 <0>         0.0629
     70 H35         8.3581  -15.9286    7.7998 H         1 <0>         0.0634
     71 H36         9.6257  -15.6638    9.9145 H         1 <0>         0.0614
     72 H37         8.2982  -16.4435   10.8079 H         1 <0>         0.0615
     73 H38         8.5960  -18.5003    9.4553 H         1 <0>         0.0607
     74 H39         9.9235  -17.7206    8.5619 H         1 <0>         0.0606
     75 H40         9.8636  -18.2354   11.5699 H         1 <0>         0.0535
     76 H41        10.8000  -19.1660   10.3760 H         1 <0>         0.0535
     77 H42        11.1911  -17.4557   10.6765 H         1 <0>         0.0533
     78 H43         1.3137  -13.9695    7.2398 H         1 <0>         0.0982
     79 H44         0.8584  -12.4028    7.9514 H         1 <0>         0.0771
     80 H45        -1.0591  -14.2520    6.4640 H         1 <0>         0.0707
     81 H46        -0.7067  -13.7367    9.4518 H         1 <0>         0.0555
     82 H47        -1.9863  -14.7297    8.7136 H         1 <0>         0.0555
     83 H48        -0.2855  -15.2426    8.6015 H         1 <0>         0.0543
     84 H49        -1.5008  -11.7520    8.1584 H         1 <0>         0.0573
     85 H50        -1.6454  -11.8439    6.3868 H         1 <0>         0.0527
     86 H51        -2.7804  -12.7450    7.4203 H         1 <0>         0.0562
     87 H52        -0.0673  -13.3226    4.0765 H         1 <0>         0.4072
     88 H53         1.3049  -15.2522    3.8947 H         1 <0>         0.1291
@<TRIPOS>BOND
     1    1    2 1
     2    1   40 1
     3    1   41 1
     4    1   42 1
     5    2    3 1
     6    2   43 1
     7    2   44 1
     8    3    4 1
     9    3   45 1
    10    3   46 1
    11    4    5 1
    12    4   47 1
    13    4   48 1
    14    5    6 1
    15    5   49 1
    16    5   50 1
    17    6    7 1
    18    6   51 1
    19    6   52 1
    20    7    8 1
    21    7   53 1
    22    7   54 1
    23    8    9 1
    24    8   55 1
    25    8   56 1
    26    9   10 1
    27    9   57 1
    28    9   58 1
    29   10   11 1
    30   10   59 1
    31   10   60 1
    32   11   12 1
    33   11   61 1
    34   11   62 1
    35   12   13 1
    36   12   14 1
    37   12   28 1
    38   14   15 1
    39   14   63 1
    40   14   64 1
    41   15   16 1
    42   15   21 1
    43   15   17 1
    44   17   18 1
    45   17   19 1
    46   17   22 1
    47   19   20 2
    48   19   21 1
    49   22   23 1
    50   22   65 1
    51   22   66 1
    52   23   24 1
    53   23   67 1
    54   23   68 1
    55   24   25 1
    56   24   69 1
    57   24   70 1
    58   25   26 1
    59   25   71 1
    60   25   72 1
    61   26   27 1
    62   26   73 1
    63   26   74 1
    64   27   75 1
    65   27   76 1
    66   27   77 1
    67   28   29 1
    68   29   30 2
    69   29   31 1
    70   31   32 1
    71   31   33 1
    72   31   37 1
    73   33   34 1
    74   33   78 1
    75   33   79 1
    76   34   35 1
    77   34   36 1
    78   34   80 1
    79   35   81 1
    80   35   82 1
    81   35   83 1
    82   36   84 1
    83   36   85 1
    84   36   86 1
    85   37   38 am
    86   37   87 1
    87   38   39 2
    88   38   88 1
@<TRIPOS>MOLECULE
ZINC13672830
   50    53     0     0     0
SMALL
USER_CHARGES
(2-iodophenyl)-[1-[[(2S)-1-methyl-2-piperidyl]methyl]indol-3-yl]methanone
@<TRIPOS>ATOM
      1 C1          0.0674    1.8083    1.7103 C.3       1 <0>        -0.0525
      2 C2          0.2500   -0.0391    0.1565 C.3       1 <0>         0.0001
      3 C3          0.6130   -0.4097   -1.2832 C.3       1 <0>        -0.1485
      4 C4          2.0976   -0.1202   -1.5208 C.3       1 <0>        -0.1350
      5 C5          2.3740    1.3578   -1.2316 C.3       1 <0>        -0.1469
      6 C6          1.9600    1.6772    0.2067 C.3       1 <0>         0.0108
      7 H1          2.5437    1.0676    0.8965 H         1 <0>         0.1440
      8 C7          2.2158    3.1581    0.4938 C.3       1 <0>         0.0889
      9 N1          3.6491    3.4378    0.3764 N.pl3     1 <0>        -0.4681
     10 C8          4.5332    3.3801    1.3999 C.2       1 <0>         0.1184
     11 C9          5.7831    3.6974    0.9486 C.2       1 <0>        -0.2208
     12 C10         5.6476    3.9762   -0.4932 C.ar      1 <0>        -0.0577
     13 C11         4.2886    3.7915   -0.7943 C.ar      1 <0>         0.0832
     14 C12         3.8478    3.9795   -2.0998 C.ar      1 <0>        -0.1328
     15 C13         4.7438    4.3401   -3.0830 C.ar      1 <0>        -0.0880
     16 C14         6.0863    4.5191   -2.7845 C.ar      1 <0>        -0.1274
     17 C15         6.5410    4.3454   -1.4950 C.ar      1 <0>        -0.0614
     18 C16         7.0167    3.7509    1.7420 C.2       1 <0>         0.4608
     19 O1          8.0747    4.0203    1.2044 O.2       1 <0>        -0.4239
     20 C17         6.9739    3.4776    3.1943 C.ar      1 <0>        -0.1153
     21 C18         7.4673    2.2714    3.6959 C.ar      1 <0>        -0.0821
     22 C19         7.4248    2.0230    5.0517 C.ar      1 <0>        -0.0983
     23 C20         6.8951    2.9661    5.9154 C.ar      1 <0>        -0.0979
     24 C21         6.4049    4.1633    5.4260 C.ar      1 <0>        -0.0852
     25 C22         6.4451    4.4270    4.0715 C.ar      1 <0>        -0.0824
     26 I1          5.7088    6.2440    3.3330 I         1 <0>        -0.0251
     27 H2          0.6420    1.2912    2.4787 H         1 <0>         0.1261
     28 H3          0.2045    2.8844    1.8166 H         1 <0>         0.1225
     29 H4         -0.9892    1.5640    1.8207 H         1 <0>         0.1288
     30 H5         -0.8097   -0.2306    0.3247 H         1 <0>         0.1327
     31 H6          0.8418   -0.6405    0.8466 H         1 <0>         0.1305
     32 H7          0.0118    0.1817   -1.9738 H         1 <0>         0.0888
     33 H8          0.4183   -1.4697   -1.4462 H         1 <0>         0.1141
     34 H9          2.3506   -0.3420   -2.5576 H         1 <0>         0.0972
     35 H10         2.7004   -0.7402   -0.8572 H         1 <0>         0.0814
     36 H11         3.4375    1.5606   -1.3578 H         1 <0>         0.1172
     37 H12         1.8006    1.9770   -1.9214 H         1 <0>         0.0905
     38 H13         1.6667    3.7675   -0.2239 H         1 <0>         0.1127
     39 H14         1.8808    3.3955    1.5035 H         1 <0>         0.1154
     40 H15         4.2876    3.1224    2.4195 H         1 <0>         0.1769
     41 H16         2.8045    3.8427   -2.3430 H         1 <0>         0.1183
     42 H17         4.3971    4.4851   -4.0955 H         1 <0>         0.1325
     43 H18         6.7774    4.8024   -3.5646 H         1 <0>         0.1327
     44 H19         7.5872    4.4836   -1.2652 H         1 <0>         0.1365
     45 H20         7.8809    1.5345    3.0234 H         1 <0>         0.1359
     46 H21         7.8062    1.0904    5.4407 H         1 <0>         0.1385
     47 H22         6.8647    2.7663    6.9763 H         1 <0>         0.1385
     48 H23         5.9933    4.8950    6.1054 H         1 <0>         0.1370
     49 N2          0.5161    1.4003    0.3630 N.4       1 <0>        -0.3902
     50 H24        -0.0042    1.9393   -0.3391 H         1 <0>         0.4285
@<TRIPOS>BOND
     1    1   27 1
     2    1   28 1
     3    1   29 1
     4    1   49 1
     5    2    3 1
     6    2   30 1
     7    2   31 1
     8    2   49 1
     9    3    4 1
    10    3   32 1
    11    3   33 1
    12    4    5 1
    13    4   34 1
    14    4   35 1
    15    5    6 1
    16    5   36 1
    17    5   37 1
    18    6    7 1
    19    6    8 1
    20    6   49 1
    21    8    9 1
    22    8   38 1
    23    8   39 1
    24    9   13 1
    25    9   10 1
    26   10   11 2
    27   10   40 1
    28   11   12 1
    29   11   18 1
    30   12   17 ar
    31   12   13 ar
    32   13   14 ar
    33   14   15 ar
    34   14   41 1
    35   15   16 ar
    36   15   42 1
    37   16   17 ar
    38   16   43 1
    39   17   44 1
    40   18   19 2
    41   18   20 1
    42   20   25 ar
    43   20   21 ar
    44   21   22 ar
    45   21   45 1
    46   22   23 ar
    47   22   46 1
    48   23   24 ar
    49   23   47 1
    50   24   25 ar
    51   24   48 1
    52   25   26 1
    53   49   50 1
@<TRIPOS>MOLECULE
ZINC72119779
   51    54     0     0     0
SMALL
USER_CHARGES

@<TRIPOS>ATOM
      1 C1         -0.0052    1.5418   -0.0523 C.3       1 <0>        -0.1545
      2 C2          0.0122    0.0119   -0.0526 C.3       1 <0>        -0.1247
      3 C3          0.7324   -0.4897   -1.3058 C.3       1 <0>        -0.1174
      4 C4          0.7499   -2.0196   -1.3060 C.3       1 <0>        -0.1387
      5 C5          1.4701   -2.5213   -2.5592 C.3       1 <0>         0.1027
      6 N1          1.4868   -3.9862   -2.5595 N.pl3     1 <0>        -0.4633
      7 C6          2.5040   -4.7476   -2.0895 C.2       1 <0>         0.1134
      8 C7          2.1988   -6.0685   -2.2390 C.2       1 <0>        -0.2326
      9 C8          0.8633   -6.1209   -2.8618 C.ar      1 <0>        -0.0599
     10 C9          0.4663   -4.7849   -3.0329 C.ar      1 <0>         0.0882
     11 C10        -0.7727   -4.5091   -3.6015 C.ar      1 <0>        -0.1244
     12 C11        -1.5978   -5.5433   -3.9869 C.ar      1 <0>        -0.0975
     13 C12        -1.2057   -6.8625   -3.8137 C.ar      1 <0>        -0.1374
     14 C13         0.0215   -7.1561   -3.2598 C.ar      1 <0>        -0.0654
     15 C14         3.0357   -7.2131   -1.8556 C.2       1 <0>         0.5927
     16 O1          2.6395   -8.3476   -2.0470 O.2       1 <0>        -0.5174
     17 N2          4.2424   -7.0068   -1.2920 N.am      1 <0>        -0.6700
     18 C15         4.9965   -8.0909   -0.8415 C.ar      1 <0>         0.1534
     19 C16         4.9604   -9.2919   -1.5171 C.ar      1 <0>        -0.1205
     20 C17         5.7082  -10.3793   -1.0759 C.ar      1 <0>        -0.0935
     21 C18         6.4946  -10.2885    0.0321 C.ar      1 <0>        -0.1239
     22 C19         6.5599   -9.0819    0.7492 C.ar      1 <0>        -0.0367
     23 C20         5.8076   -7.9660    0.3065 C.ar      1 <0>        -0.0635
     24 C21         5.8779   -6.7599    1.0211 C.ar      1 <0>        -0.1097
     25 C22         6.6708   -6.6755    2.1247 C.ar      1 <0>        -0.1146
     26 C23         7.4163   -7.7705    2.5572 C.ar      1 <0>        -0.1166
     27 C24         7.3627   -8.9594    1.8967 C.ar      1 <0>        -0.1027
     28 H1          1.0182    1.9168   -0.0578 H         1 <0>         0.0544
     29 H2         -0.5279    1.8994   -0.9395 H         1 <0>         0.0546
     30 H3         -0.5183    1.8992    0.8405 H         1 <0>         0.0557
     31 H4          0.5349   -0.3456    0.8346 H         1 <0>         0.0621
     32 H5         -1.0112   -0.3631   -0.0471 H         1 <0>         0.0625
     33 H6          0.2097   -0.1322   -2.1929 H         1 <0>         0.0663
     34 H7          1.7559   -0.1147   -1.3113 H         1 <0>         0.0661
     35 H8          1.2726   -2.3772   -0.4189 H         1 <0>         0.0708
     36 H9         -0.2736   -2.3946   -1.3005 H         1 <0>         0.0722
     37 H10         0.9474   -2.1637   -3.4464 H         1 <0>         0.0924
     38 H11         2.4936   -2.1462   -2.5647 H         1 <0>         0.0952
     39 H12         3.4191   -4.3661   -1.6612 H         1 <0>         0.1740
     40 H13        -1.0879   -3.4855   -3.7405 H         1 <0>         0.1206
     41 H14        -2.5592   -5.3247   -4.4277 H         1 <0>         0.1280
     42 H15        -1.8625   -7.6632   -4.1200 H         1 <0>         0.1267
     43 H16         0.3239   -8.1840   -3.1245 H         1 <0>         0.1334
     44 H17         4.5867   -6.1047   -1.1995 H         1 <0>         0.4058
     45 H18         4.3443   -9.3902   -2.3987 H         1 <0>         0.1426
     46 H19         5.6640  -11.3106   -1.6209 H         1 <0>         0.1275
     47 H20         7.0674  -11.1435    0.3597 H         1 <0>         0.1282
     48 H21         5.3061   -5.9029    0.6968 H         1 <0>         0.1194
     49 H22         6.7231   -5.7463    2.6726 H         1 <0>         0.1232
     50 H23         8.0379   -7.6774    3.4355 H         1 <0>         0.1240
     51 H24         7.9450   -9.8000    2.2440 H         1 <0>         0.1293
@<TRIPOS>BOND
     1    1    2 1
     2    1   28 1
     3    1   29 1
     4    1   30 1
     5    2    3 1
     6    2   31 1
     7    2   32 1
     8    3    4 1
     9    3   33 1
    10    3   34 1
    11    4    5 1
    12    4   35 1
    13    4   36 1
    14    5    6 1
    15    5   37 1
    16    5   38 1
    17    6   10 1
    18    6    7 1
    19    7    8 2
    20    7   39 1
    21    8    9 1
    22    8   15 1
    23    9   14 ar
    24    9   10 ar
    25   10   11 ar
    26   11   12 ar
    27   11   40 1
    28   12   13 ar
    29   12   41 1
    30   13   14 ar
    31   13   42 1
    32   14   43 1
    33   15   16 2
    34   15   17 am
    35   17   18 1
    36   17   44 1
    37   18   23 ar
    38   18   19 ar
    39   19   20 ar
    40   19   45 1
    41   20   21 ar
    42   20   46 1
    43   21   22 ar
    44   21   47 1
    45   22   27 ar
    46   22   23 ar
    47   23   24 ar
    48   24   25 ar
    49   24   48 1
    50   25   26 ar
    51   25   49 1
    52   26   27 ar
    53   26   50 1
    54   27   51 1
@<TRIPOS>MOLECULE
ZINC28456868
   50    52     0     0     0
SMALL
USER_CHARGES
2-(3-methoxyphenyl)-1-(1-pentylindol-3-yl)ethanone
@<TRIPOS>ATOM
      1 C1         -7.4418    6.5542   11.6748 C.3       1 <0>        -0.1559
      2 C2         -6.5305    5.5762   10.9305 C.3       1 <0>        -0.1254
      3 C3         -7.3842    4.6077   10.1095 C.3       1 <0>        -0.1181
      4 C4         -6.4729    3.6296    9.3653 C.3       1 <0>        -0.1392
      5 C5         -7.3266    2.6611    8.5443 C.3       1 <0>         0.0976
      6 N1         -6.4540    1.7246    7.8316 N.pl3     1 <0>        -0.4565
      7 C6         -6.0348    1.8839    6.5618 C.2       1 <0>         0.1343
      8 C7         -5.2305    0.8232    6.2032 C.2       1 <0>        -0.2727
      9 C8         -5.1687   -0.0631    7.3821 C.ar      1 <0>        -0.0580
     10 C9         -5.9497    0.5578    8.3695 C.ar      1 <0>         0.0781
     11 C10        -6.0818   -0.0486    9.6144 C.ar      1 <0>        -0.1210
     12 C11        -5.4446   -1.2438    9.8685 C.ar      1 <0>        -0.1023
     13 C12        -4.6694   -1.8528    8.8930 C.ar      1 <0>        -0.1344
     14 C13        -4.5268   -1.2676    7.6532 C.ar      1 <0>        -0.0706
     15 C14        -4.5958    0.6212    4.9522 C.2       1 <0>         0.4251
     16 O1         -3.9108   -0.3647    4.7713 O.2       1 <0>        -0.4573
     17 C15        -4.7711    1.6302    3.8467 C.3       1 <0>        -0.1302
     18 C16        -3.9993    1.1835    2.6318 C.ar      1 <0>        -0.0314
     19 C17        -4.6076    0.3821    1.6830 C.ar      1 <0>        -0.1452
     20 C18        -3.9025   -0.0290    0.5673 C.ar      1 <0>        -0.0780
     21 C19        -2.5875    0.3597    0.3978 C.ar      1 <0>        -0.2095
     22 C20        -1.9749    1.1630    1.3482 C.ar      1 <0>         0.1283
     23 C21        -2.6830    1.5696    2.4700 C.ar      1 <0>        -0.1402
     24 O2         -0.6816    1.5467    1.1837 O.3       1 <0>        -0.3183
     25 C22        -0.0127    1.0858    0.0080 C.3       1 <0>         0.0240
     26 H1         -6.8280    7.2505   12.2651 H         1 <0>         0.0560
     27 H2         -8.1097    5.9945   12.3462 H         1 <0>         0.0548
     28 H3         -8.0429    7.1206   10.9483 H         1 <0>         0.0549
     29 H4         -5.8626    6.1359   10.2591 H         1 <0>         0.0628
     30 H5         -5.9294    5.0097   11.6570 H         1 <0>         0.0627
     31 H6         -8.0521    4.0481   10.7809 H         1 <0>         0.0664
     32 H7         -7.9852    5.1741    9.3829 H         1 <0>         0.0668
     33 H8         -5.8050    4.1892    8.6940 H         1 <0>         0.0722
     34 H9         -5.8719    3.0632   10.0919 H         1 <0>         0.0725
     35 H10        -7.9945    2.1015    9.2157 H         1 <0>         0.0934
     36 H11        -7.9277    3.2275    7.8178 H         1 <0>         0.0978
     37 H12        -6.2902    2.7155    5.9218 H         1 <0>         0.1818
     38 H13        -6.6837    0.4167   10.3810 H         1 <0>         0.1198
     39 H14        -5.5501   -1.7109   10.8365 H         1 <0>         0.1274
     40 H15        -4.1759   -2.7896    9.1055 H         1 <0>         0.1261
     41 H16        -3.9230   -1.7435    6.8947 H         1 <0>         0.1320
     42 H17        -5.8381    1.7142    3.5928 H         1 <0>         0.1074
     43 H18        -4.3954    2.6087    4.1804 H         1 <0>         0.1064
     44 H19        -5.6354    0.0773    1.8138 H         1 <0>         0.1216
     45 H20        -4.3798   -0.6547   -0.1723 H         1 <0>         0.1249
     46 H21        -2.0369    0.0379   -0.4739 H         1 <0>         0.1269
     47 H22        -2.2068    2.1911    3.2139 H         1 <0>         0.1275
     48 H23         1.0193    1.4666    0.0002 H         1 <0>         0.1017
     49 H24        -0.5447    1.4501   -0.8832 H         1 <0>         0.0561
     50 H25         0.0022   -0.0141    0.0020 H         1 <0>         0.0565
@<TRIPOS>BOND
     1    1    2 1
     2    1   26 1
     3    1   27 1
     4    1   28 1
     5    2    3 1
     6    2   29 1
     7    2   30 1
     8    3    4 1
     9    3   31 1
    10    3   32 1
    11    4    5 1
    12    4   33 1
    13    4   34 1
    14    5    6 1
    15    5   35 1
    16    5   36 1
    17    6   10 1
    18    6    7 1
    19    7    8 2
    20    7   37 1
    21    8    9 1
    22    8   15 1
    23    9   14 ar
    24    9   10 ar
    25   10   11 ar
    26   11   12 ar
    27   11   38 1
    28   12   13 ar
    29   12   39 1
    30   13   14 ar
    31   13   40 1
    32   14   41 1
    33   15   16 2
    34   15   17 1
    35   17   18 1
    36   17   42 1
    37   17   43 1
    38   18   23 ar
    39   18   19 ar
    40   19   20 ar
    41   19   44 1
    42   20   21 ar
    43   20   45 1
    44   21   22 ar
    45   21   46 1
    46   22   23 ar
    47   22   24 1
    48   23   47 1
    49   24   25 1
    50   25   48 1
    51   25   49 1
    52   25   50 1
@<TRIPOS>MOLECULE
ZINC13816329
   63    62     0     0     0
SMALL
USER_CHARGES

@<TRIPOS>ATOM
      1 C1         -2.2312    2.9666    0.4945 C.3       1 <0>        -0.1548
      2 C2         -2.1773    1.4868    0.1097 C.3       1 <0>        -0.1258
      3 C3         -3.4636    0.7944    0.5647 C.3       1 <0>        -0.1217
      4 C4         -3.4097   -0.6855    0.1800 C.3       1 <0>        -0.1143
      5 C5         -4.6960   -1.3779    0.6349 C.3       1 <0>        -0.1037
      6 C6         -4.6429   -2.8355    0.2560 C.2       1 <0>        -0.1531
      7 C7         -4.8635   -3.7561    1.1614 C.2       1 <0>        -0.1580
      8 C8         -5.3306   -3.3617    2.5389 C.3       1 <0>        -0.0841
      9 C9         -6.5867   -4.1212    2.8800 C.2       1 <0>        -0.1456
     10 C10        -6.6608   -4.7947    4.0011 C.2       1 <0>        -0.1578
     11 C11        -5.5599   -4.6791    5.0237 C.3       1 <0>        -0.0829
     12 C12        -6.1510   -4.3020    6.3577 C.2       1 <0>        -0.1453
     13 C13        -5.8856   -5.0225    7.4190 C.2       1 <0>        -0.1587
     14 C14        -4.8547   -6.1194    7.3465 C.3       1 <0>        -0.0825
     15 C15        -3.8385   -5.9270    8.4425 C.2       1 <0>        -0.1412
     16 C16        -3.5758   -6.9066    9.2716 C.2       1 <0>        -0.1679
     17 C17        -4.1634   -8.2737    9.0331 C.3       1 <0>        -0.0996
     18 C18        -3.0466   -9.3192    9.0518 C.3       1 <0>        -0.1075
     19 C19        -3.6432  -10.7071    8.8097 C.3       1 <0>        -0.1124
     20 C20        -2.5431  -11.7370    8.8281 C.2       1 <0>         0.4675
     21 O1         -1.3993  -11.3959    9.0157 O.2       1 <0>        -0.4819
     22 O2         -2.8340  -13.0332    8.6362 O.3       1 <0>        -0.3743
     23 C21        -1.7421  -13.9546    8.6665 C.3       1 <0>         0.0254
     24 C22        -2.2648  -15.3729    8.4302 C.3       1 <0>         0.0028
     25 N1         -2.8184  -15.4710    7.0730 N.4       1 <0>        -0.6384
     26 H1         -1.3148    3.4599    0.1703 H         1 <0>         0.0542
     27 H2         -3.0875    3.4368    0.0110 H         1 <0>         0.0540
     28 H3         -2.3296    3.0574    1.5762 H         1 <0>         0.0533
     29 H4         -2.0789    1.3959   -0.9720 H         1 <0>         0.0609
     30 H5         -1.3210    1.0166    0.5932 H         1 <0>         0.0601
     31 H6         -3.5620    0.8852    1.6464 H         1 <0>         0.0608
     32 H7         -4.3199    1.2645    0.0812 H         1 <0>         0.0620
     33 H8         -3.3113   -0.7763   -0.9018 H         1 <0>         0.0622
     34 H9         -2.5534   -1.1557    0.6635 H         1 <0>         0.0614
     35 H10        -4.7944   -1.2871    1.7167 H         1 <0>         0.0754
     36 H11        -5.5523   -0.9077    0.1514 H         1 <0>         0.0703
     37 H12        -4.4230   -3.1211   -0.7621 H         1 <0>         0.1095
     38 H13        -4.7107   -4.7978    0.9208 H         1 <0>         0.1074
     39 H14        -4.5545   -3.5973    3.2670 H         1 <0>         0.0818
     40 H15        -5.5360   -2.2914    2.5602 H         1 <0>         0.0856
     41 H16        -7.4259   -4.1101    2.2002 H         1 <0>         0.1108
     42 H17        -7.5108   -5.4329    4.1925 H         1 <0>         0.1094
     43 H18        -5.0443   -5.6354    5.1121 H         1 <0>         0.0807
     44 H19        -4.8518   -3.9121    4.7102 H         1 <0>         0.0848
     45 H20        -6.7935   -3.4376    6.4387 H         1 <0>         0.1119
     46 H21        -6.4054   -4.8305    8.3460 H         1 <0>         0.1108
     47 H22        -5.3434   -7.0860    7.4698 H         1 <0>         0.0809
     48 H23        -4.3556   -6.0855    6.3781 H         1 <0>         0.0840
     49 H24        -3.3267   -4.9814    8.5444 H         1 <0>         0.1124
     50 H25        -2.9381   -6.7345   10.1261 H         1 <0>         0.1122
     51 H26        -4.8864   -8.5002    9.8168 H         1 <0>         0.0741
     52 H27        -4.6612   -8.2911    8.0635 H         1 <0>         0.0796
     53 H28        -2.3236   -9.0927    8.2682 H         1 <0>         0.0755
     54 H29        -2.5488   -9.3018   10.0214 H         1 <0>         0.0762
     55 H30        -4.3661  -10.9337    9.5933 H         1 <0>         0.1136
     56 H31        -4.1409  -10.7245    7.8401 H         1 <0>         0.1107
     57 H32        -1.0268  -13.6961    7.8857 H         1 <0>         0.0939
     58 H33        -1.2520  -13.9052    9.6389 H         1 <0>         0.1155
     59 H34        -1.4469  -16.0848    8.5413 H         1 <0>         0.1550
     60 H35        -3.0444  -15.5988    9.1578 H         1 <0>         0.1463
     61 H36        -3.1631  -16.4064    6.9172 H         1 <0>         0.4414
     62 H37        -3.5755  -14.8120    6.9702 H         1 <0>         0.4408
     63 H38        -2.0967  -15.2619    6.3995 H         1 <0>         0.4358
@<TRIPOS>BOND
     1    1    2 1
     2    1   26 1
     3    1   27 1
     4    1   28 1
     5    2    3 1
     6    2   29 1
     7    2   30 1
     8    3    4 1
     9    3   31 1
    10    3   32 1
    11    4    5 1
    12    4   33 1
    13    4   34 1
    14    5    6 1
    15    5   35 1
    16    5   36 1
    17    6    7 2
    18    6   37 1
    19    7    8 1
    20    7   38 1
    21    8    9 1
    22    8   39 1
    23    8   40 1
    24    9   10 2
    25    9   41 1
    26   10   11 1
    27   10   42 1
    28   11   12 1
    29   11   43 1
    30   11   44 1
    31   12   13 2
    32   12   45 1
    33   13   14 1
    34   13   46 1
    35   14   15 1
    36   14   47 1
    37   14   48 1
    38   15   16 2
    39   15   49 1
    40   16   17 1
    41   16   50 1
    42   17   18 1
    43   17   51 1
    44   17   52 1
    45   18   19 1
    46   18   53 1
    47   18   54 1
    48   19   20 1
    49   19   55 1
    50   19   56 1
    51   20   21 2
    52   20   22 1
    53   22   23 1
    54   23   24 1
    55   23   57 1
    56   23   58 1
    57   24   25 1
    58   24   59 1
    59   24   60 1
    60   25   61 1
    61   25   62 1
    62   25   63 1
@<TRIPOS>MOLECULE
ZINC28462048
   49    51     0     0     0
SMALL
USER_CHARGES
1-(1-pentylindol-3-yl)-2-(p-tolyl)ethanone
@<TRIPOS>ATOM
      1 C1          0.0111    1.0724    2.5063 C.3       1 <0>        -0.1559
      2 C2         -0.7288    1.5792    1.2668 C.3       1 <0>        -0.1253
      3 C3         -0.0127    1.0858    0.0080 C.3       1 <0>        -0.1181
      4 C4         -0.7527    1.5927   -1.2315 C.3       1 <0>        -0.1392
      5 C5         -0.0366    1.0992   -2.4903 C.3       1 <0>         0.0976
      6 N1         -0.7451    1.5845   -3.6772 N.pl3     1 <0>        -0.4566
      7 C6         -1.6762    0.8842   -4.3527 C.2       1 <0>         0.1340
      8 C7         -2.1394    1.6329   -5.4136 C.2       1 <0>        -0.2729
      9 C8         -1.4068    2.9135   -5.3643 C.ar      1 <0>        -0.0583
     10 C9         -0.5541    2.8244   -4.2528 C.ar      1 <0>         0.0781
     11 C10         0.2721    3.8990   -3.9405 C.ar      1 <0>        -0.1210
     12 C11         0.2444    5.0367   -4.7177 C.ar      1 <0>        -0.1023
     13 C12        -0.6015    5.1238   -5.8132 C.ar      1 <0>        -0.1344
     14 C13        -1.4217    4.0662   -6.1435 C.ar      1 <0>        -0.0708
     15 C14        -3.1214    1.2500   -6.3611 C.2       1 <0>         0.4242
     16 O1         -3.4369    2.0135   -7.2506 O.2       1 <0>        -0.4582
     17 C15        -3.7739   -0.1050   -6.2643 C.3       1 <0>        -0.1289
     18 C16        -4.7730   -0.2624   -7.3815 C.ar      1 <0>        -0.0760
     19 C17        -6.0873    0.1218   -7.1925 C.ar      1 <0>        -0.1043
     20 C18        -7.0028   -0.0184   -8.2188 C.ar      1 <0>        -0.1195
     21 C19        -6.6061   -0.5518   -9.4308 C.ar      1 <0>        -0.0873
     22 C20        -5.2928   -0.9404   -9.6182 C.ar      1 <0>        -0.1189
     23 C21        -4.3763   -0.7961   -8.5934 C.ar      1 <0>        -0.1045
     24 C22        -7.6051   -0.7091  -10.5480 C.3       1 <0>        -0.1178
     25 H1         -0.5038    1.4272    3.4113 H         1 <0>         0.0560
     26 H2          1.0431    1.4531    2.4985 H         1 <0>         0.0549
     27 H3          0.0260   -0.0275    2.5003 H         1 <0>         0.0549
     28 H4         -1.7608    1.1985    1.2746 H         1 <0>         0.0626
     29 H5         -0.7437    2.6791    1.2728 H         1 <0>         0.0627
     30 H6          1.0193    1.4665    0.0002 H         1 <0>         0.0665
     31 H7          0.0022   -0.0141    0.0019 H         1 <0>         0.0668
     32 H8         -1.7847    1.2120   -1.2236 H         1 <0>         0.0720
     33 H9         -0.7676    2.6926   -1.2255 H         1 <0>         0.0725
     34 H10         0.9954    1.4799   -2.4981 H         1 <0>         0.0935
     35 H11        -0.0217   -0.0007   -2.4963 H         1 <0>         0.0977
     36 H12        -2.0090   -0.1121   -4.1017 H         1 <0>         0.1814
     37 H13         0.9351    3.8416   -3.0898 H         1 <0>         0.1199
     38 H14         0.8880    5.8684   -4.4716 H         1 <0>         0.1275
     39 H15        -0.6131    6.0213   -6.4137 H         1 <0>         0.1262
     40 H16        -2.0810    4.1365   -6.9960 H         1 <0>         0.1318
     41 H17        -3.0060   -0.8884   -6.3460 H         1 <0>         0.1035
     42 H18        -4.2887   -0.1958   -5.2965 H         1 <0>         0.1033
     43 H19        -6.3982    0.5347   -6.2442 H         1 <0>         0.1187
     44 H20        -8.0288    0.2855   -8.0725 H         1 <0>         0.1208
     45 H21        -4.9828   -1.3571  -10.5651 H         1 <0>         0.1208
     46 H22        -3.3504   -1.1001   -8.7397 H         1 <0>         0.1188
     47 H23        -7.1075   -1.1470  -11.4259 H         1 <0>         0.0648
     48 H24        -8.0167    0.2759  -10.8132 H         1 <0>         0.0696
     49 H25        -8.4203   -1.3711  -10.2204 H         1 <0>         0.0691
@<TRIPOS>BOND
     1    1    2 1
     2    1   25 1
     3    1   26 1
     4    1   27 1
     5    2    3 1
     6    2   28 1
     7    2   29 1
     8    3    4 1
     9    3   30 1
    10    3   31 1
    11    4    5 1
    12    4   32 1
    13    4   33 1
    14    5    6 1
    15    5   34 1
    16    5   35 1
    17    6   10 1
    18    6    7 1
    19    7    8 2
    20    7   36 1
    21    8    9 1
    22    8   15 1
    23    9   14 ar
    24    9   10 ar
    25   10   11 ar
    26   11   12 ar
    27   11   37 1
    28   12   13 ar
    29   12   38 1
    30   13   14 ar
    31   13   39 1
    32   14   40 1
    33   15   16 2
    34   15   17 1
    35   17   18 1
    36   17   41 1
    37   17   42 1
    38   18   23 ar
    39   18   19 ar
    40   19   20 ar
    41   19   43 1
    42   20   21 ar
    43   20   44 1
    44   21   22 ar
    45   21   24 1
    46   22   23 ar
    47   22   45 1
    48   23   46 1
    49   24   47 1
    50   24   48 1
    51   24   49 1
@<TRIPOS>MOLECULE
ZINC25783468
   58    63     0     0     0
SMALL
USER_CHARGES

@<TRIPOS>ATOM
      1 C1         -0.0374    1.5268   -0.0073 C.3       1 <0>        -0.1044
      2 C2         -0.0077    0.0201   -0.0011 C.2       1 <0>         0.1547
      3 C3          0.0066   -0.7741   -1.1268 C.2       1 <0>        -0.2554
      4 C4          0.0350   -2.1719   -0.6642 C.ar      1 <0>        -0.0233
      5 C5          0.0587   -3.4480   -1.2264 C.ar      1 <0>        -0.1048
      6 C6          0.0811   -4.5535   -0.3988 C.ar      1 <0>        -0.0978
      7 C7          0.0810   -4.4382    0.9903 C.ar      1 <0>        -0.1296
      8 C8          0.0586   -3.1921    1.5629 C.ar      1 <0>         0.1205
      9 C9          0.0360   -2.0798    0.7175 C.ar      1 <0>        -0.0026
     10 N1          0.0145   -0.7420    1.0985 N.pl3     1 <0>        -0.4650
     11 C10         0.0177   -0.4438    2.5386 C.3       1 <0>         0.1137
     12 H1         -0.6023    0.4308    2.7355 H         1 <0>         0.1113
     13 C11        -0.5557   -1.6636    3.2747 C.3       1 <0>         0.0655
     14 O1          0.0567   -2.8934    2.8886 O.3       1 <0>        -0.3019
     15 C12         1.4494   -0.1797    3.0092 C.3       1 <0>         0.0483
     16 N2          1.4330    0.2340    4.4187 N.3       1 <0>        -0.5319
     17 C13         0.7735    1.5383    4.5774 C.3       1 <0>         0.0086
     18 C14         0.7254    1.9023    6.0636 C.3       1 <0>         0.0640
     19 O2          2.0539    1.8993    6.5933 O.3       1 <0>        -0.3830
     20 C15         2.7255    0.6441    6.4561 C.3       1 <0>         0.0635
     21 C16         2.7939    0.2674    4.9738 C.3       1 <0>         0.0203
     22 C17        -0.0050   -0.3146   -2.5213 C.2       1 <0>         0.4865
     23 O3         -1.0583   -0.2315   -3.1261 O.2       1 <0>        -0.4401
     24 C18         1.2594    0.0462   -3.1892 C.ar      1 <0>        -0.1579
     25 C19         2.4789   -0.1528   -2.5542 C.ar      1 <0>        -0.0402
     26 C20         3.6674    0.1881   -3.1851 C.ar      1 <0>        -0.1396
     27 C21         3.6882    0.7244   -4.4362 C.ar      1 <0>        -0.0651
     28 C22         2.4927    0.9533   -5.1376 C.ar      1 <0>        -0.0674
     29 C23         1.2562    0.6149   -4.5351 C.ar      1 <0>        -0.0124
     30 C24         0.0629    0.8364   -5.2330 C.ar      1 <0>        -0.1198
     31 C25         0.1048    1.3695   -6.4869 C.ar      1 <0>        -0.1084
     32 C26         1.3194    1.6976   -7.0848 C.ar      1 <0>        -0.1179
     33 C27         2.4977    1.5071   -6.4296 C.ar      1 <0>        -0.1043
     34 H2          0.9829    1.9103   -0.0155 H         1 <0>         0.0860
     35 H3         -0.5640    1.8761   -0.8954 H         1 <0>         0.0890
     36 H4         -0.5525    1.8837    0.8845 H         1 <0>         0.0740
     37 H5          0.0591   -3.5706   -2.2994 H         1 <0>         0.1262
     38 H6          0.0990   -5.5383   -0.8419 H         1 <0>         0.1327
     39 H7          0.0979   -5.3223    1.6103 H         1 <0>         0.1377
     40 H8         -0.4207   -1.5222    4.3470 H         1 <0>         0.1380
     41 H9         -1.6228   -1.7318    3.0632 H         1 <0>         0.0655
     42 H10         2.0400   -1.0898    2.9045 H         1 <0>         0.0918
     43 H11         1.8909    0.6116    2.4034 H         1 <0>         0.0479
     44 H12         1.3351    2.2985    4.0344 H         1 <0>         0.0484
     45 H13        -0.2411    1.4834    4.1830 H         1 <0>         0.0852
     46 H14         0.2888    2.8940    6.1815 H         1 <0>         0.1007
     47 H15         0.1189    1.1710    6.5980 H         1 <0>         0.0624
     48 H16         3.7355    0.7260    6.8578 H         1 <0>         0.1018
     49 H17         2.1772   -0.1237    7.0019 H         1 <0>         0.0632
     50 H18         3.2541   -0.7151    4.8688 H         1 <0>         0.0909
     51 H19         3.3878    1.0073    4.4372 H         1 <0>         0.0468
     52 H20         2.5024   -0.5762   -1.5610 H         1 <0>         0.1312
     53 H21         4.6016    0.0237   -2.6688 H         1 <0>         0.1284
     54 H22         4.6333    0.9767   -4.8940 H         1 <0>         0.1308
     55 H23        -0.8854    0.5860   -4.7808 H         1 <0>         0.1584
     56 H24        -0.8164    1.5396   -7.0244 H         1 <0>         0.1255
     57 H25         1.3260    2.1188   -8.0792 H         1 <0>         0.1246
     58 H26         3.4318    1.7666   -6.9055 H         1 <0>         0.1291
@<TRIPOS>BOND
     1    1    2 1
     2    1   34 1
     3    1   35 1
     4    1   36 1
     5    2   10 1
     6    2    3 2
     7    3    4 1
     8    3   22 1
     9    4    9 ar
    10    4    5 ar
    11    5    6 ar
    12    5   37 1
    13    6    7 ar
    14    6   38 1
    15    7    8 ar
    16    7   39 1
    17    8   14 1
    18    8    9 ar
    19    9   10 1
    20   10   11 1
    21   11   12 1
    22   11   13 1
    23   11   15 1
    24   13   14 1
    25   13   40 1
    26   13   41 1
    27   15   16 1
    28   15   42 1
    29   15   43 1
    30   16   21 1
    31   16   17 1
    32   17   18 1
    33   17   44 1
    34   17   45 1
    35   18   19 1
    36   18   46 1
    37   18   47 1
    38   19   20 1
    39   20   21 1
    40   20   48 1
    41   20   49 1
    42   21   50 1
    43   21   51 1
    44   22   23 2
    45   22   24 1
    46   24   29 ar
    47   24   25 ar
    48   25   26 ar
    49   25   52 1
    50   26   27 ar
    51   26   53 1
    52   27   28 ar
    53   27   54 1
    54   28   33 ar
    55   28   29 ar
    56   29   30 ar
    57   30   31 ar
    58   30   55 1
    59   31   32 ar
    60   31   56 1
    61   32   33 ar
    62   32   57 1
    63   33   58 1
@<TRIPOS>MOLECULE
ZINC28465020
   50    52     0     0     0
SMALL
USER_CHARGES
2-(2-methoxyphenyl)-1-(1-pentylindol-3-yl)ethanone
@<TRIPOS>ATOM
      1 C1         -0.0366    1.0992   -2.4903 C.3       1 <0>        -0.1558
      2 C2         -0.7527    1.5927   -1.2315 C.3       1 <0>        -0.1253
      3 C3         -0.0127    1.0858    0.0080 C.3       1 <0>        -0.1181
      4 C4         -0.7288    1.5792    1.2668 C.3       1 <0>        -0.1391
      5 C5          0.0111    1.0724    2.5063 C.3       1 <0>         0.0979
      6 N1         -0.6746    1.5449    3.7117 N.pl3     1 <0>        -0.4574
      7 C6         -0.3428    2.6568    4.3951 C.2       1 <0>         0.1331
      8 C7         -1.1890    2.8078    5.4729 C.2       1 <0>        -0.2696
      9 C8         -2.1227    1.6654    5.4259 C.ar      1 <0>        -0.0582
     10 C9         -1.7529    0.9145    4.2990 C.ar      1 <0>         0.0784
     11 C10        -2.4652   -0.2384    3.9851 C.ar      1 <0>        -0.1215
     12 C11        -3.5236   -0.6299    4.7762 C.ar      1 <0>        -0.1028
     13 C12        -3.8891    0.1153    5.8872 C.ar      1 <0>        -0.1355
     14 C13        -3.1902    1.2562    6.2191 C.ar      1 <0>        -0.0701
     15 C14        -1.1667    3.8499    6.4331 C.2       1 <0>         0.4281
     16 O1         -1.9765    3.8594    7.3376 O.2       1 <0>        -0.4603
     17 C15        -0.1379    4.9464    6.3314 C.3       1 <0>        -0.1199
     18 C16        -0.3292    5.9214    7.4644 C.ar      1 <0>        -0.1021
     19 C17        -1.0786    7.0662    7.2724 C.ar      1 <0>        -0.0733
     20 C18        -1.2584    7.9586    8.3128 C.ar      1 <0>        -0.1557
     21 C19        -0.6803    7.7135    9.5449 C.ar      1 <0>        -0.0813
     22 C20         0.0742    6.5731    9.7404 C.ar      1 <0>        -0.2077
     23 C21         0.2518    5.6732    8.6993 C.ar      1 <0>         0.1396
     24 O2          0.9940    4.5507    8.8891 O.3       1 <0>        -0.3146
     25 C22         1.5620    4.3602   10.1865 C.3       1 <0>         0.0244
     26 H1         -0.5686    1.4636   -3.3815 H         1 <0>         0.0559
     27 H2         -0.0218   -0.0007   -2.4963 H         1 <0>         0.0548
     28 H3          0.9954    1.4799   -2.4981 H         1 <0>         0.0549
     29 H4         -0.7675    2.6926   -1.2255 H         1 <0>         0.0627
     30 H5         -1.7847    1.2121   -1.2237 H         1 <0>         0.0626
     31 H6          0.0022   -0.0141    0.0019 H         1 <0>         0.0663
     32 H7          1.0193    1.4665    0.0002 H         1 <0>         0.0668
     33 H8         -0.7437    2.6791    1.2728 H         1 <0>         0.0721
     34 H9         -1.7608    1.1985    1.2746 H         1 <0>         0.0724
     35 H10         0.0260   -0.0275    2.5003 H         1 <0>         0.0930
     36 H11         1.0431    1.4531    2.4985 H         1 <0>         0.0975
     37 H12         0.4632    3.3281    4.1378 H         1 <0>         0.1811
     38 H13        -2.1888   -0.8263    3.1224 H         1 <0>         0.1195
     39 H14        -4.0734   -1.5259    4.5288 H         1 <0>         0.1270
     40 H15        -4.7206   -0.2030    6.4985 H         1 <0>         0.1256
     41 H16        -3.4773    1.8360    7.0839 H         1 <0>         0.1314
     42 H17         0.8701    4.5099    6.3895 H         1 <0>         0.1063
     43 H18        -0.2553    5.4715    5.3720 H         1 <0>         0.1020
     44 H19        -1.5277    7.2619    6.3099 H         1 <0>         0.1268
     45 H20        -1.8479    8.8508    8.1619 H         1 <0>         0.1237
     46 H21        -0.8185    8.4144   10.3548 H         1 <0>         0.1238
     47 H22         0.5257    6.3823   10.7027 H         1 <0>         0.1271
     48 H23         2.1334    3.4204   10.2022 H         1 <0>         0.1009
     49 H24         0.7578    4.3130   10.9355 H         1 <0>         0.0565
     50 H25         2.2320    5.2006   10.4204 H         1 <0>         0.0559
@<TRIPOS>BOND
     1    1    2 1
     2    1   26 1
     3    1   27 1
     4    1   28 1
     5    2    3 1
     6    2   29 1
     7    2   30 1
     8    3    4 1
     9    3   31 1
    10    3   32 1
    11    4    5 1
    12    4   33 1
    13    4   34 1
    14    5    6 1
    15    5   35 1
    16    5   36 1
    17    6   10 1
    18    6    7 1
    19    7    8 2
    20    7   37 1
    21    8    9 1
    22    8   15 1
    23    9   14 ar
    24    9   10 ar
    25   10   11 ar
    26   11   12 ar
    27   11   38 1
    28   12   13 ar
    29   12   39 1
    30   13   14 ar
    31   13   40 1
    32   14   41 1
    33   15   16 2
    34   15   17 1
    35   17   18 1
    36   17   42 1
    37   17   43 1
    38   18   23 ar
    39   18   19 ar
    40   19   20 ar
    41   19   44 1
    42   20   21 ar
    43   20   45 1
    44   21   22 ar
    45   21   46 1
    46   22   23 ar
    47   22   47 1
    48   23   24 1
    49   24   25 1
    50   25   48 1
    51   25   49 1
    52   25   50 1
@<TRIPOS>MOLECULE
ZINC28461030
   46    48     0     0     0
SMALL
USER_CHARGES
2-(4-chlorophenyl)-1-(1-pentylindol-3-yl)ethanone
@<TRIPOS>ATOM
      1 C1          0.0111    1.0724    2.5063 C.3       1 <0>        -0.1560
      2 C2         -0.7288    1.5792    1.2668 C.3       1 <0>        -0.1253
      3 C3         -0.0127    1.0858    0.0080 C.3       1 <0>        -0.1182
      4 C4         -0.7527    1.5927   -1.2315 C.3       1 <0>        -0.1392
      5 C5         -0.0366    1.0992   -2.4903 C.3       1 <0>         0.0973
      6 N1         -0.7451    1.5845   -3.6772 N.pl3     1 <0>        -0.4560
      7 C6         -1.6762    0.8842   -4.3527 C.2       1 <0>         0.1351
      8 C7         -2.1394    1.6329   -5.4136 C.2       1 <0>        -0.2742
      9 C8         -1.4068    2.9135   -5.3643 C.ar      1 <0>        -0.0579
     10 C9         -0.5541    2.8244   -4.2528 C.ar      1 <0>         0.0779
     11 C10         0.2721    3.8990   -3.9405 C.ar      1 <0>        -0.1207
     12 C11         0.2444    5.0367   -4.7177 C.ar      1 <0>        -0.1020
     13 C12        -0.6015    5.1238   -5.8132 C.ar      1 <0>        -0.1337
     14 C13        -1.4217    4.0662   -6.1435 C.ar      1 <0>        -0.0711
     15 C14        -3.1214    1.2500   -6.3611 C.2       1 <0>         0.4249
     16 O1         -3.4369    2.0135   -7.2506 O.2       1 <0>        -0.4582
     17 C15        -3.7739   -0.1050   -6.2643 C.3       1 <0>        -0.1312
     18 C16        -4.7730   -0.2624   -7.3815 C.ar      1 <0>        -0.0652
     19 C17        -6.0873    0.1220   -7.1922 C.ar      1 <0>        -0.0960
     20 C18        -7.0028   -0.0169   -8.2184 C.ar      1 <0>        -0.1080
     21 C19        -6.6061   -0.5511   -9.4314 C.ar      1 <0>        -0.0355
     22 C20        -5.2919   -0.9408   -9.6183 C.ar      1 <0>        -0.1080
     23 C21        -4.3760   -0.7962   -8.5933 C.ar      1 <0>        -0.0959
     24 Cl1        -7.7569   -0.7318  -10.7185 Cl        1 <0>        -0.0717
     25 H1         -0.5038    1.4272    3.4113 H         1 <0>         0.0561
     26 H2          1.0431    1.4531    2.4985 H         1 <0>         0.0549
     27 H3          0.0260   -0.0275    2.5003 H         1 <0>         0.0549
     28 H4         -1.7608    1.1985    1.2746 H         1 <0>         0.0627
     29 H5         -0.7437    2.6791    1.2728 H         1 <0>         0.0627
     30 H6          1.0193    1.4665    0.0002 H         1 <0>         0.0666
     31 H7          0.0022   -0.0141    0.0019 H         1 <0>         0.0669
     32 H8         -1.7847    1.2120   -1.2236 H         1 <0>         0.0721
     33 H9         -0.7676    2.6926   -1.2255 H         1 <0>         0.0726
     34 H10         0.9954    1.4799   -2.4981 H         1 <0>         0.0937
     35 H11        -0.0217   -0.0007   -2.4963 H         1 <0>         0.0980
     36 H12        -2.0090   -0.1121   -4.1017 H         1 <0>         0.1816
     37 H13         0.9351    3.8416   -3.0898 H         1 <0>         0.1201
     38 H14         0.8880    5.8684   -4.4716 H         1 <0>         0.1277
     39 H15        -0.6131    6.0213   -6.4137 H         1 <0>         0.1264
     40 H16        -2.0810    4.1365   -6.9960 H         1 <0>         0.1320
     41 H17        -3.0060   -0.8884   -6.3460 H         1 <0>         0.1071
     42 H18        -4.2887   -0.1958   -5.2965 H         1 <0>         0.1069
     43 H19        -6.3979    0.5349   -6.2438 H         1 <0>         0.1297
     44 H20        -8.0286    0.2875   -8.0718 H         1 <0>         0.1333
     45 H21        -4.9815   -1.3575  -10.5651 H         1 <0>         0.1333
     46 H22        -3.3500   -1.1000   -8.7393 H         1 <0>         0.1297
@<TRIPOS>BOND
     1    1    2 1
     2    1   25 1
     3    1   26 1
     4    1   27 1
     5    2    3 1
     6    2   28 1
     7    2   29 1
     8    3    4 1
     9    3   30 1
    10    3   31 1
    11    4    5 1
    12    4   32 1
    13    4   33 1
    14    5    6 1
    15    5   34 1
    16    5   35 1
    17    6   10 1
    18    6    7 1
    19    7    8 2
    20    7   36 1
    21    8    9 1
    22    8   15 1
    23    9   14 ar
    24    9   10 ar
    25   10   11 ar
    26   11   12 ar
    27   11   37 1
    28   12   13 ar
    29   12   38 1
    30   13   14 ar
    31   13   39 1
    32   14   40 1
    33   15   16 2
    34   15   17 1
    35   17   18 1
    36   17   41 1
    37   17   42 1
    38   18   23 ar
    39   18   19 ar
    40   19   20 ar
    41   19   43 1
    42   20   21 ar
    43   20   44 1
    44   21   22 ar
    45   21   24 1
    46   22   23 ar
    47   22   45 1
    48   23   46 1
@<TRIPOS>MOLECULE
ZINC28463001
   46    48     0     0     0
SMALL
USER_CHARGES
2-(3-chlorophenyl)-1-(1-pentylindol-3-yl)ethanone
@<TRIPOS>ATOM
      1 C1         -0.0366    1.0992   -2.4903 C.3       1 <0>        -0.1559
      2 C2         -0.7527    1.5927   -1.2315 C.3       1 <0>        -0.1254
      3 C3         -0.0127    1.0858    0.0080 C.3       1 <0>        -0.1181
      4 C4         -0.7288    1.5792    1.2668 C.3       1 <0>        -0.1393
      5 C5          0.0111    1.0724    2.5063 C.3       1 <0>         0.0973
      6 N1         -0.6746    1.5449    3.7117 N.pl3     1 <0>        -0.4559
      7 C6         -0.3428    2.6568    4.3951 C.2       1 <0>         0.1351
      8 C7         -1.1885    2.8073    5.4733 C.2       1 <0>        -0.2740
      9 C8         -2.1219    1.6646    5.4267 C.ar      1 <0>        -0.0577
     10 C9         -1.7529    0.9145    4.2990 C.ar      1 <0>         0.0779
     11 C10        -2.4650   -0.2384    3.9852 C.ar      1 <0>        -0.1207
     12 C11        -3.5228   -0.6305    4.7768 C.ar      1 <0>        -0.1021
     13 C12        -3.8878    0.1143    5.8883 C.ar      1 <0>        -0.1337
     14 C13        -3.1890    1.2552    6.2202 C.ar      1 <0>        -0.0710
     15 C14        -1.1663    3.8496    6.4335 C.2       1 <0>         0.4249
     16 O1         -1.9761    3.8590    7.3379 O.2       1 <0>        -0.4579
     17 C15        -0.1375    4.9460    6.3318 C.3       1 <0>        -0.1304
     18 C16        -0.3289    5.9211    7.4647 C.ar      1 <0>        -0.0573
     19 C17         0.3336    5.7274    8.6628 C.ar      1 <0>        -0.1041
     20 C18         0.1593    6.6218    9.7020 C.ar      1 <0>        -0.1043
     21 C19        -0.6780    7.7104    9.5443 C.ar      1 <0>        -0.1123
     22 C20        -1.3413    7.9046    8.3461 C.ar      1 <0>        -0.0315
     23 C21        -1.1620    7.0119    7.3041 C.ar      1 <0>        -0.0999
     24 Cl1        -2.3924    9.2718    8.1470 Cl        1 <0>        -0.0709
     25 H1         -0.5686    1.4636   -3.3815 H         1 <0>         0.0561
     26 H2         -0.0218   -0.0007   -2.4963 H         1 <0>         0.0549
     27 H3          0.9954    1.4799   -2.4981 H         1 <0>         0.0549
     28 H4         -0.7675    2.6926   -1.2255 H         1 <0>         0.0627
     29 H5         -1.7847    1.2121   -1.2237 H         1 <0>         0.0627
     30 H6          0.0022   -0.0141    0.0019 H         1 <0>         0.0665
     31 H7          1.0193    1.4665    0.0002 H         1 <0>         0.0668
     32 H8         -0.7437    2.6791    1.2728 H         1 <0>         0.0721
     33 H9         -1.7608    1.1985    1.2746 H         1 <0>         0.0726
     34 H10         0.0260   -0.0275    2.5003 H         1 <0>         0.0938
     35 H11         1.0431    1.4531    2.4985 H         1 <0>         0.0980
     36 H12         0.4628    3.3285    4.1375 H         1 <0>         0.1817
     37 H13        -2.1891   -0.8261    3.1221 H         1 <0>         0.1201
     38 H14        -4.0726   -1.5266    4.5295 H         1 <0>         0.1277
     39 H15        -4.7189   -0.2045    6.5000 H         1 <0>         0.1264
     40 H16        -3.4758    1.8348    7.0853 H         1 <0>         0.1320
     41 H17         0.8705    4.5095    6.3901 H         1 <0>         0.1085
     42 H18        -0.2548    5.4710    5.3723 H         1 <0>         0.1071
     43 H19         0.9878    4.8770    8.7865 H         1 <0>         0.1268
     44 H20         0.6775    6.4703   10.6374 H         1 <0>         0.1327
     45 H21        -0.8138    8.4094   10.3563 H         1 <0>         0.1328
     46 H22        -1.6761    7.1654    6.3668 H         1 <0>         0.1305
@<TRIPOS>BOND
     1    1    2 1
     2    1   25 1
     3    1   26 1
     4    1   27 1
     5    2    3 1
     6    2   28 1
     7    2   29 1
     8    3    4 1
     9    3   30 1
    10    3   31 1
    11    4    5 1
    12    4   32 1
    13    4   33 1
    14    5    6 1
    15    5   34 1
    16    5   35 1
    17    6   10 1
    18    6    7 1
    19    7    8 2
    20    7   36 1
    21    8    9 1
    22    8   15 1
    23    9   14 ar
    24    9   10 ar
    25   10   11 ar
    26   11   12 ar
    27   11   37 1
    28   12   13 ar
    29   12   38 1
    30   13   14 ar
    31   13   39 1
    32   14   40 1
    33   15   16 2
    34   15   17 1
    35   17   18 1
    36   17   41 1
    37   17   42 1
    38   18   23 ar
    39   18   19 ar
    40   19   20 ar
    41   19   43 1
    42   20   21 ar
    43   20   44 1
    44   21   22 ar
    45   21   45 1
    46   22   23 ar
    47   22   24 1
    48   23   46 1
@<TRIPOS>MOLECULE
ZINC28459373
   50    52     0     0     0
SMALL
USER_CHARGES
2-(4-methoxyphenyl)-1-(1-pentylindol-3-yl)ethanone
@<TRIPOS>ATOM
      1 C1          0.0111    1.0724    2.5063 C.3       1 <0>        -0.1559
      2 C2         -0.7288    1.5792    1.2668 C.3       1 <0>        -0.1253
      3 C3         -0.0127    1.0858    0.0080 C.3       1 <0>        -0.1182
      4 C4         -0.7527    1.5927   -1.2315 C.3       1 <0>        -0.1392
      5 C5         -0.0366    1.0992   -2.4903 C.3       1 <0>         0.0976
      6 N1         -0.7451    1.5845   -3.6772 N.pl3     1 <0>        -0.4568
      7 C6         -1.6762    0.8842   -4.3527 C.2       1 <0>         0.1338
      8 C7         -2.1394    1.6329   -5.4136 C.2       1 <0>        -0.2728
      9 C8         -1.4068    2.9135   -5.3643 C.ar      1 <0>        -0.0585
     10 C9         -0.5541    2.8244   -4.2528 C.ar      1 <0>         0.0781
     11 C10         0.2721    3.8990   -3.9405 C.ar      1 <0>        -0.1212
     12 C11         0.2444    5.0367   -4.7177 C.ar      1 <0>        -0.1023
     13 C12        -0.6015    5.1238   -5.8132 C.ar      1 <0>        -0.1346
     14 C13        -1.4217    4.0662   -6.1435 C.ar      1 <0>        -0.0707
     15 C14        -3.1214    1.2500   -6.3611 C.2       1 <0>         0.4231
     16 O1         -3.4369    2.0135   -7.2506 O.2       1 <0>        -0.4583
     17 C15        -3.7739   -0.1050   -6.2643 C.3       1 <0>        -0.1243
     18 C16        -4.7730   -0.2624   -7.3815 C.ar      1 <0>        -0.1077
     19 C17        -6.0873    0.1223   -7.1912 C.ar      1 <0>        -0.0679
     20 C18        -7.0038   -0.0157   -8.2156 C.ar      1 <0>        -0.2057
     21 C19        -6.6070   -0.5512   -9.4324 C.ar      1 <0>         0.1255
     22 C20        -5.2889   -0.9417   -9.6189 C.ar      1 <0>        -0.1495
     23 C21        -4.3750   -0.7964   -8.5932 C.ar      1 <0>        -0.0681
     24 O2         -7.5079   -0.6927  -10.4400 O.3       1 <0>        -0.3184
     25 C22        -8.8472   -0.2695  -10.1770 C.3       1 <0>         0.0237
     26 H1         -0.5038    1.4272    3.4113 H         1 <0>         0.0560
     27 H2          1.0431    1.4531    2.4985 H         1 <0>         0.0549
     28 H3          0.0260   -0.0275    2.5003 H         1 <0>         0.0549
     29 H4         -1.7608    1.1985    1.2746 H         1 <0>         0.0626
     30 H5         -0.7437    2.6791    1.2728 H         1 <0>         0.0627
     31 H6          1.0193    1.4665    0.0002 H         1 <0>         0.0665
     32 H7          0.0022   -0.0141    0.0019 H         1 <0>         0.0668
     33 H8         -1.7847    1.2120   -1.2236 H         1 <0>         0.0720
     34 H9         -0.7676    2.6926   -1.2255 H         1 <0>         0.0725
     35 H10         0.9954    1.4799   -2.4981 H         1 <0>         0.0934
     36 H11        -0.0217   -0.0007   -2.4963 H         1 <0>         0.0978
     37 H12        -2.0090   -0.1121   -4.1017 H         1 <0>         0.1815
     38 H13         0.9351    3.8416   -3.0898 H         1 <0>         0.1198
     39 H14         0.8880    5.8684   -4.4716 H         1 <0>         0.1274
     40 H15        -0.6131    6.0213   -6.4137 H         1 <0>         0.1260
     41 H16        -2.0810    4.1365   -6.9960 H         1 <0>         0.1319
     42 H17        -3.0060   -0.8884   -6.3460 H         1 <0>         0.1035
     43 H18        -4.2887   -0.1958   -5.2965 H         1 <0>         0.1026
     44 H19        -6.3967    0.5351   -6.2424 H         1 <0>         0.1220
     45 H20        -8.0294    0.2890   -8.0680 H         1 <0>         0.1273
     46 H21        -4.9776   -1.3592  -10.5650 H         1 <0>         0.1303
     47 H22        -3.3487   -1.0999   -8.7380 H         1 <0>         0.1268
     48 H23        -9.4672   -0.4386  -11.0698 H         1 <0>         0.1018
     49 H24        -8.8507    0.8014   -9.9257 H         1 <0>         0.0566
     50 H25        -9.2547   -0.8455   -9.3331 H         1 <0>         0.0561
@<TRIPOS>BOND
     1    1    2 1
     2    1   26 1
     3    1   27 1
     4    1   28 1
     5    2    3 1
     6    2   29 1
     7    2   30 1
     8    3    4 1
     9    3   31 1
    10    3   32 1
    11    4    5 1
    12    4   33 1
    13    4   34 1
    14    5    6 1
    15    5   35 1
    16    5   36 1
    17    6   10 1
    18    6    7 1
    19    7    8 2
    20    7   37 1
    21    8    9 1
    22    8   15 1
    23    9   14 ar
    24    9   10 ar
    25   10   11 ar
    26   11   12 ar
    27   11   38 1
    28   12   13 ar
    29   12   39 1
    30   13   14 ar
    31   13   40 1
    32   14   41 1
    33   15   16 2
    34   15   17 1
    35   17   18 1
    36   17   42 1
    37   17   43 1
    38   18   23 ar
    39   18   19 ar
    40   19   20 ar
    41   19   44 1
    42   20   21 ar
    43   20   45 1
    44   21   22 ar
    45   21   24 1
    46   22   23 ar
    47   22   46 1
    48   23   47 1
    49   24   25 1
    50   25   48 1
    51   25   49 1
    52   25   50 1
@<TRIPOS>MOLECULE
ZINC28457100
   46    48     0     0     0
SMALL
USER_CHARGES
2-(2-chlorophenyl)-1-(1-pentylindol-3-yl)ethanone
@<TRIPOS>ATOM
      1 C1         -0.0366    1.0992   -2.4903 C.3       1 <0>        -0.1559
      2 C2         -0.7527    1.5927   -1.2315 C.3       1 <0>        -0.1252
      3 C3         -0.0127    1.0858    0.0080 C.3       1 <0>        -0.1182
      4 C4         -0.7288    1.5792    1.2668 C.3       1 <0>        -0.1390
      5 C5          0.0111    1.0724    2.5063 C.3       1 <0>         0.0974
      6 N1         -0.6746    1.5449    3.7117 N.pl3     1 <0>        -0.4561
      7 C6         -0.3428    2.6568    4.3951 C.2       1 <0>         0.1340
      8 C7         -1.1890    2.8078    5.4729 C.2       1 <0>        -0.2713
      9 C8         -2.1227    1.6654    5.4259 C.ar      1 <0>        -0.0572
     10 C9         -1.7529    0.9145    4.2990 C.ar      1 <0>         0.0783
     11 C10        -2.4652   -0.2384    3.9851 C.ar      1 <0>        -0.1210
     12 C11        -3.5236   -0.6299    4.7762 C.ar      1 <0>        -0.1022
     13 C12        -3.8891    0.1153    5.8872 C.ar      1 <0>        -0.1343
     14 C13        -3.1902    1.2562    6.2191 C.ar      1 <0>        -0.0704
     15 C14        -1.1667    3.8499    6.4331 C.2       1 <0>         0.4285
     16 O1         -1.9765    3.8594    7.3376 O.2       1 <0>        -0.4565
     17 C15        -0.1379    4.9464    6.3314 C.3       1 <0>        -0.1355
     18 C16        -0.3292    5.9214    7.4644 C.ar      1 <0>        -0.0609
     19 C17        -1.0791    7.0666    7.2718 C.ar      1 <0>        -0.0990
     20 C18        -1.2582    7.9588    8.3122 C.ar      1 <0>        -0.1132
     21 C19        -0.6795    7.7113    9.5433 C.ar      1 <0>        -0.1086
     22 C20         0.0747    6.5694    9.7355 C.ar      1 <0>        -0.1094
     23 C21         0.2504    5.6734    8.6958 C.ar      1 <0>        -0.0228
     24 Cl1         1.1982    4.2391    8.9364 Cl        1 <0>        -0.0688
     25 H1         -0.5686    1.4636   -3.3815 H         1 <0>         0.0560
     26 H2         -0.0218   -0.0007   -2.4963 H         1 <0>         0.0549
     27 H3          0.9954    1.4799   -2.4981 H         1 <0>         0.0549
     28 H4         -0.7675    2.6926   -1.2255 H         1 <0>         0.0626
     29 H5         -1.7847    1.2121   -1.2237 H         1 <0>         0.0627
     30 H6          0.0022   -0.0141    0.0019 H         1 <0>         0.0665
     31 H7          1.0193    1.4665    0.0002 H         1 <0>         0.0668
     32 H8         -0.7437    2.6791    1.2728 H         1 <0>         0.0720
     33 H9         -1.7608    1.1985    1.2746 H         1 <0>         0.0726
     34 H10         0.0260   -0.0275    2.5003 H         1 <0>         0.0936
     35 H11         1.0431    1.4531    2.4985 H         1 <0>         0.0977
     36 H12         0.4632    3.3281    4.1378 H         1 <0>         0.1809
     37 H13        -2.1888   -0.8263    3.1224 H         1 <0>         0.1199
     38 H14        -4.0734   -1.5259    4.5288 H         1 <0>         0.1274
     39 H15        -4.7206   -0.2030    6.4985 H         1 <0>         0.1261
     40 H16        -3.4773    1.8360    7.0839 H         1 <0>         0.1319
     41 H17         0.8701    4.5099    6.3895 H         1 <0>         0.1089
     42 H18        -0.2553    5.4715    5.3720 H         1 <0>         0.1081
     43 H19        -1.5279    7.2625    6.3092 H         1 <0>         0.1298
     44 H20        -1.8469    8.8517    8.1622 H         1 <0>         0.1293
     45 H21        -0.8167    8.4107   10.3547 H         1 <0>         0.1317
     46 H22         0.5272    6.3766   10.6970 H         1 <0>         0.1331
@<TRIPOS>BOND
     1    1    2 1
     2    1   25 1
     3    1   26 1
     4    1   27 1
     5    2    3 1
     6    2   28 1
     7    2   29 1
     8    3    4 1
     9    3   30 1
    10    3   31 1
    11    4    5 1
    12    4   32 1
    13    4   33 1
    14    5    6 1
    15    5   34 1
    16    5   35 1
    17    6   10 1
    18    6    7 1
    19    7    8 2
    20    7   36 1
    21    8    9 1
    22    8   15 1
    23    9   14 ar
    24    9   10 ar
    25   10   11 ar
    26   11   12 ar
    27   11   37 1
    28   12   13 ar
    29   12   38 1
    30   13   14 ar
    31   13   39 1
    32   14   40 1
    33   15   16 2
    34   15   17 1
    35   17   18 1
    36   17   41 1
    37   17   42 1
    38   18   23 ar
    39   18   19 ar
    40   19   20 ar
    41   19   43 1
    42   20   21 ar
    43   20   44 1
    44   21   22 ar
    45   21   45 1
    46   22   23 ar
    47   22   46 1
    48   23   24 1
@<TRIPOS>MOLECULE
ZINC34947163
   53    56     0     0     0
SMALL
USER_CHARGES

@<TRIPOS>ATOM
      1 C1         -0.4824    1.4840    0.0278 C.3       1 <0>        -0.1539
      2 C2         -0.4243   -0.0448    0.0134 C.3       1 <0>        -0.1242
      3 C3          0.4238   -0.5340    1.1891 C.3       1 <0>        -0.1163
      4 C4          0.4818   -2.0629    1.1747 C.3       1 <0>        -0.1355
      5 C5          1.3299   -2.5521    2.3504 C.3       1 <0>         0.0929
      6 N1          1.3855   -4.0160    2.3366 N.pl3     1 <0>        -0.4188
      7 C6          0.6304   -4.8326    3.0982 C.2       1 <0>         0.0845
      8 C7          0.9706   -6.1368    2.8015 C.2       1 <0>        -0.2536
      9 C8          1.9836   -6.0839    1.8088 C.2       1 <0>        -0.1046
     10 C9          2.2112   -4.7727    1.5413 C.2       1 <0>         0.0301
     11 C10         3.1867   -4.2472    0.5617 C.ar      1 <0>        -0.0519
     12 C11         4.0826   -3.2444    0.9337 C.ar      1 <0>        -0.0856
     13 C12         4.9902   -2.7583    0.0154 C.ar      1 <0>        -0.1261
     14 C13         5.0143   -3.2624   -1.2731 C.ar      1 <0>        -0.0858
     15 C14         4.1299   -4.2564   -1.6503 C.ar      1 <0>        -0.1507
     16 C15         3.2191   -4.7568   -0.7389 C.ar      1 <0>         0.1189
     17 F1          2.3590   -5.7317   -1.1061 F         1 <0>        -0.1280
     18 C16         0.3931   -7.3515    3.4009 C.2       1 <0>         0.4781
     19 O1         -0.5345   -7.2620    4.1834 O.2       1 <0>        -0.4570
     20 C17         0.9388   -8.6761    3.0530 C.ar      1 <0>        -0.1263
     21 C18         1.7538   -9.3639    3.9439 C.ar      1 <0>        -0.0768
     22 C19         2.2660  -10.6108    3.6136 C.ar      1 <0>        -0.1189
     23 C20         1.9955  -11.2050    2.4189 C.ar      1 <0>        -0.0914
     24 C21         1.1793  -10.5672    1.4698 C.ar      1 <0>        -0.0538
     25 C22         0.6290   -9.2961    1.7665 C.ar      1 <0>        -0.0225
     26 C23        -0.1895   -8.6598    0.8258 C.ar      1 <0>        -0.1032
     27 C24        -0.4528   -9.2735   -0.3627 C.ar      1 <0>        -0.1074
     28 C25         0.0812  -10.5263   -0.6549 C.ar      1 <0>        -0.1156
     29 C26         0.8917  -11.1674    0.2317 C.ar      1 <0>        -0.1033
     30 H1          0.5267    1.8868   -0.0597 H         1 <0>         0.0543
     31 H2         -1.0866    1.8326   -0.8098 H         1 <0>         0.0555
     32 H3         -0.9287    1.8219    0.9631 H         1 <0>         0.0545
     33 H4         -1.4334   -0.4476    0.1008 H         1 <0>         0.0623
     34 H5          0.0219   -0.3826   -0.9219 H         1 <0>         0.0619
     35 H6          1.4328   -0.1313    1.1016 H         1 <0>         0.0660
     36 H7         -0.0225   -0.1962    2.1244 H         1 <0>         0.0664
     37 H8         -0.5272   -2.4656    1.2621 H         1 <0>         0.0722
     38 H9          0.9281   -2.4007    0.2394 H         1 <0>         0.0713
     39 H10         2.3390   -2.1494    2.2629 H         1 <0>         0.0945
     40 H11         0.8837   -2.2143    3.2857 H         1 <0>         0.0985
     41 H12        -0.1126   -4.5201    3.8170 H         1 <0>         0.1795
     42 H13         2.4770   -6.9277    1.3495 H         1 <0>         0.1447
     43 H14         4.0654   -2.8492    1.9387 H         1 <0>         0.1297
     44 H15         5.6836   -1.9818    0.3029 H         1 <0>         0.1329
     45 H16         5.7269   -2.8775   -1.9875 H         1 <0>         0.1355
     46 H17         4.1537   -4.6453   -2.6575 H         1 <0>         0.1396
     47 H18         1.9909   -8.9243    4.9014 H         1 <0>         0.1279
     48 H19         2.8972  -11.1239    4.3240 H         1 <0>         0.1281
     49 H20         2.4128  -12.1764    2.1984 H         1 <0>         0.1290
     50 H21        -0.6103   -7.6886    1.0406 H         1 <0>         0.1239
     51 H22        -1.0845   -8.7816   -1.0876 H         1 <0>         0.1244
     52 H23        -0.1429  -10.9918   -1.6033 H         1 <0>         0.1247
     53 H24         1.2992  -12.1382   -0.0088 H         1 <0>         0.1293
@<TRIPOS>BOND
     1    1    2 1
     2    1   30 1
     3    1   31 1
     4    1   32 1
     5    2    3 1
     6    2   33 1
     7    2   34 1
     8    3    4 1
     9    3   35 1
    10    3   36 1
    11    4    5 1
    12    4   37 1
    13    4   38 1
    14    5    6 1
    15    5   39 1
    16    5   40 1
    17    6   10 1
    18    6    7 1
    19    7    8 2
    20    7   41 1
    21    8    9 1
    22    8   18 1
    23    9   10 2
    24    9   42 1
    25   10   11 1
    26   11   16 ar
    27   11   12 ar
    28   12   13 ar
    29   12   43 1
    30   13   14 ar
    31   13   44 1
    32   14   15 ar
    33   14   45 1
    34   15   16 ar
    35   15   46 1
    36   16   17 1
    37   18   19 2
    38   18   20 1
    39   20   25 ar
    40   20   21 ar
    41   21   22 ar
    42   21   47 1
    43   22   23 ar
    44   22   48 1
    45   23   24 ar
    46   23   49 1
    47   24   29 ar
    48   24   25 ar
    49   25   26 ar
    50   26   27 ar
    51   26   50 1
    52   27   28 ar
    53   27   51 1
    54   28   29 ar
    55   28   52 1
    56   29   53 1
@<TRIPOS>MOLECULE
ZINC38151177
   72    71     0     0     0
SMALL
USER_CHARGES

@<TRIPOS>ATOM
      1 C1         -0.0187    1.5258    0.0104 C.3       1 <0>        -0.1543
      2 C2          0.0021   -0.0041    0.0020 C.3       1 <0>        -0.1261
      3 C3         -1.4333   -0.5336    0.0129 C.3       1 <0>        -0.1213
      4 C4         -1.4126   -2.0635    0.0045 C.3       1 <0>        -0.1212
      5 C5         -2.8479   -2.5931    0.0153 C.3       1 <0>        -0.1207
      6 C6         -2.8272   -4.1229    0.0069 C.3       1 <0>        -0.1206
      7 C7         -4.2626   -4.6525    0.0178 C.3       1 <0>        -0.1206
      8 C8         -4.2418   -6.1823    0.0094 C.3       1 <0>        -0.1206
      9 C9         -5.6772   -6.7119    0.0202 C.3       1 <0>        -0.1206
     10 C10        -5.6565   -8.2417    0.0118 C.3       1 <0>        -0.1206
     11 C11        -7.0918   -8.7713    0.0227 C.3       1 <0>        -0.1207
     12 C12        -7.0711  -10.3012    0.0143 C.3       1 <0>        -0.1206
     13 C13        -8.5065  -10.8307    0.0251 C.3       1 <0>        -0.1207
     14 C14        -8.4857  -12.3606    0.0167 C.3       1 <0>        -0.1208
     15 C15        -9.9211  -12.8902    0.0276 C.3       1 <0>        -0.1199
     16 C16        -9.9004  -14.4200    0.0191 C.3       1 <0>        -0.1199
     17 C17       -11.3358  -14.9496    0.0300 C.3       1 <0>        -0.1271
     18 C18       -11.3150  -16.4794    0.0216 C.3       1 <0>         0.1170
     19 N1        -12.6894  -16.9865    0.0320 N.pl3     1 <0>        -1.1282
     20 S1        -12.9903  -18.5707   -0.3448 S.o2      1 <0>         2.7908
     21 O1        -14.3935  -18.7581   -0.2211 O.2       1 <0>        -0.9781
     22 O2        -12.2890  -18.8417   -1.5506 O.2       1 <0>        -0.9779
     23 N2        -12.2836  -19.4967    0.8321 N.pl3     1 <0>        -1.1285
     24 C19       -12.7697  -19.4236    2.2122 C.3       1 <0>         0.1165
     25 C20       -12.2277  -20.6130    3.0075 C.3       1 <0>        -0.1313
     26 C21       -12.7354  -20.5367    4.4488 C.3       1 <0>        -0.1534
     27 H1          1.0039    1.9031    0.0027 H         1 <0>         0.0535
     28 H2         -0.5459    1.8868   -0.8726 H         1 <0>         0.0533
     29 H3         -0.5289    1.8773    0.9072 H         1 <0>         0.0533
     30 H4          0.5123   -0.3556   -0.8948 H         1 <0>         0.0603
     31 H5          0.5293   -0.3651    0.8851 H         1 <0>         0.0602
     32 H6         -1.9435   -0.1821    0.9097 H         1 <0>         0.0605
     33 H7         -1.9605   -0.1726   -0.8702 H         1 <0>         0.0605
     34 H8         -0.9024   -2.4150   -0.8923 H         1 <0>         0.0605
     35 H9         -0.8854   -2.4246    0.8875 H         1 <0>         0.0605
     36 H10        -3.3581   -2.2415    0.9121 H         1 <0>         0.0604
     37 H11        -3.3751   -2.2320   -0.8677 H         1 <0>         0.0604
     38 H12        -2.3170   -4.4744   -0.8899 H         1 <0>         0.0604
     39 H13        -2.3000   -4.4840    0.8900 H         1 <0>         0.0603
     40 H14        -4.7728   -4.3010    0.9146 H         1 <0>         0.0603
     41 H15        -4.7898   -4.2914   -0.8653 H         1 <0>         0.0604
     42 H16        -3.7316   -6.5338   -0.8874 H         1 <0>         0.0604
     43 H17        -3.7146   -6.5434    0.8924 H         1 <0>         0.0603
     44 H18        -6.1874   -6.3604    0.9170 H         1 <0>         0.0602
     45 H19        -6.2044   -6.3508   -0.8628 H         1 <0>         0.0603
     46 H20        -5.1463   -8.5933   -0.8850 H         1 <0>         0.0604
     47 H21        -5.1293   -8.6028    0.8949 H         1 <0>         0.0602
     48 H22        -7.6020   -8.4198    0.9195 H         1 <0>         0.0602
     49 H23        -7.6190   -8.4102   -0.8604 H         1 <0>         0.0604
     50 H24        -6.5609  -10.6527   -0.8825 H         1 <0>         0.0606
     51 H25        -6.5439  -10.6622    0.8973 H         1 <0>         0.0603
     52 H26        -9.0167  -10.4792    0.9219 H         1 <0>         0.0604
     53 H27        -9.0337  -10.4697   -0.8579 H         1 <0>         0.0607
     54 H28        -7.9755  -12.7121   -0.8801 H         1 <0>         0.0616
     55 H29        -7.9586  -12.7217    0.8998 H         1 <0>         0.0610
     56 H30       -10.4313  -12.5386    0.9244 H         1 <0>         0.0618
     57 H31       -10.4483  -12.5291   -0.8555 H         1 <0>         0.0624
     58 H32        -9.3902  -14.7715   -0.8776 H         1 <0>         0.0664
     59 H33        -9.3732  -14.7811    0.9022 H         1 <0>         0.0650
     60 H34       -11.8459  -14.5981    0.9268 H         1 <0>         0.0700
     61 H35       -11.8629  -14.5885   -0.8531 H         1 <0>         0.0721
     62 H36       -10.8048  -16.8309   -0.8752 H         1 <0>         0.0789
     63 H37       -10.7878  -16.8405    0.9047 H         1 <0>         0.0643
     64 H38       -13.4232  -16.3943    0.2596 H         1 <0>         0.4173
     65 H39       -11.5477  -20.0876    0.6078 H         1 <0>         0.4173
     66 H40       -12.4279  -18.4950    2.6691 H         1 <0>         0.0645
     67 H41       -13.8594  -19.4506    2.2155 H         1 <0>         0.0789
     68 H42       -12.5696  -21.5417    2.5506 H         1 <0>         0.0716
     69 H43       -11.1380  -20.5861    3.0042 H         1 <0>         0.0695
     70 H44       -12.3493  -21.3840    5.0154 H         1 <0>         0.0611
     71 H45       -12.3936  -19.6080    4.9057 H         1 <0>         0.0575
     72 H46       -13.8251  -20.5636    4.4521 H         1 <0>         0.0590
@<TRIPOS>BOND
     1    1    2 1
     2    1   27 1
     3    1   28 1
     4    1   29 1
     5    2    3 1
     6    2   30 1
     7    2   31 1
     8    3    4 1
     9    3   32 1
    10    3   33 1
    11    4    5 1
    12    4   34 1
    13    4   35 1
    14    5    6 1
    15    5   36 1
    16    5   37 1
    17    6    7 1
    18    6   38 1
    19    6   39 1
    20    7    8 1
    21    7   40 1
    22    7   41 1
    23    8    9 1
    24    8   42 1
    25    8   43 1
    26    9   10 1
    27    9   44 1
    28    9   45 1
    29   10   11 1
    30   10   46 1
    31   10   47 1
    32   11   12 1
    33   11   48 1
    34   11   49 1
    35   12   13 1
    36   12   50 1
    37   12   51 1
    38   13   14 1
    39   13   52 1
    40   13   53 1
    41   14   15 1
    42   14   54 1
    43   14   55 1
    44   15   16 1
    45   15   56 1
    46   15   57 1
    47   16   17 1
    48   16   58 1
    49   16   59 1
    50   17   18 1
    51   17   60 1
    52   17   61 1
    53   18   19 1
    54   18   62 1
    55   18   63 1
    56   19   20 1
    57   19   64 1
    58   20   21 2
    59   20   22 2
    60   20   23 1
    61   23   24 1
    62   23   65 1
    63   24   25 1
    64   24   66 1
    65   24   67 1
    66   25   26 1
    67   25   68 1
    68   25   69 1
    69   26   70 1
    70   26   71 1
    71   26   72 1
@<TRIPOS>MOLECULE
ZINC36294609
   53    56     0     0     0
SMALL
USER_CHARGES

@<TRIPOS>ATOM
      1 C1         -0.2058    1.5154   -0.1258 C.3       1 <0>        -0.1541
      2 C2         -0.1621   -0.0139   -0.1407 C.3       1 <0>        -0.1241
      3 C3          0.5679   -0.5154    1.1069 C.3       1 <0>        -0.1165
      4 C4          0.6116   -2.0447    1.0921 C.3       1 <0>        -0.1367
      5 C5          1.3416   -2.5462    2.3396 C.3       1 <0>         0.0872
      6 N1          1.3834   -4.0105    2.3254 N.pl3     1 <0>        -0.4193
      7 C6          0.6281   -4.8199    3.0940 C.2       1 <0>         0.0870
      8 C7          0.9528   -6.1273    2.7935 C.2       1 <0>        -0.2536
      9 C8          1.9562   -6.0839    1.7910 C.2       1 <0>        -0.1091
     10 C9          2.1944   -4.7749    1.5223 C.2       1 <0>         0.0311
     11 C10         3.1656   -4.2585    0.5334 C.ar      1 <0>         0.0180
     12 C11         3.8418   -3.0617    0.7746 C.ar      1 <0>        -0.1357
     13 C12         4.7466   -2.5843   -0.1509 C.ar      1 <0>        -0.0818
     14 C13         4.9849   -3.2885   -1.3175 C.ar      1 <0>        -0.1545
     15 C14         4.3174   -4.4773   -1.5641 C.ar      1 <0>         0.1089
     16 C15         3.4133   -4.9687   -0.6413 C.ar      1 <0>        -0.1385
     17 F1          4.5545   -5.1598   -2.7057 F         1 <0>        -0.1355
     18 C16         0.3694   -7.3366    3.3983 C.2       1 <0>         0.4776
     19 O1         -0.5487   -7.2383    4.1910 O.2       1 <0>        -0.4560
     20 C17         0.8976   -8.6664    3.0435 C.ar      1 <0>        -0.1273
     21 C18         1.7084   -9.3669    3.9283 C.ar      1 <0>        -0.0755
     22 C19         2.2043  -10.6187    3.5915 C.ar      1 <0>        -0.1185
     23 C20         1.9212  -11.2056    2.3961 C.ar      1 <0>        -0.0910
     24 C21         1.1084  -10.5548    1.4529 C.ar      1 <0>        -0.0538
     25 C22         0.5747   -9.2783    1.7563 C.ar      1 <0>        -0.0229
     26 C23        -0.2405   -8.6292    0.8216 C.ar      1 <0>        -0.1060
     27 C24        -0.5165   -9.2356   -0.3678 C.ar      1 <0>        -0.1081
     28 C25         0.0012  -10.4937   -0.6666 C.ar      1 <0>        -0.1164
     29 C26         0.8080  -11.1474    0.2142 C.ar      1 <0>        -0.1021
     30 H1          0.8111    1.9079   -0.1175 H         1 <0>         0.0544
     31 H2         -0.7259    1.8727   -1.0146 H         1 <0>         0.0555
     32 H3         -0.7336    1.8552    0.7652 H         1 <0>         0.0544
     33 H4         -1.1790   -0.4063   -0.1490 H         1 <0>         0.0622
     34 H5          0.3658   -0.3537   -1.0317 H         1 <0>         0.0623
     35 H6          1.5848   -0.1229    1.1152 H         1 <0>         0.0662
     36 H7          0.0400   -0.1756    1.9980 H         1 <0>         0.0663
     37 H8         -0.4053   -2.4371    1.0837 H         1 <0>         0.0724
     38 H9          1.1395   -2.3845    0.2010 H         1 <0>         0.0744
     39 H10         2.3585   -2.1537    2.3479 H         1 <0>         0.0984
     40 H11         0.8137   -2.2064    3.2307 H         1 <0>         0.0994
     41 H12        -0.1045   -4.5004    3.8204 H         1 <0>         0.1800
     42 H13         2.4368   -6.9323    1.3267 H         1 <0>         0.1468
     43 H14         3.6568   -2.5100    1.6844 H         1 <0>         0.1305
     44 H15         5.2700   -1.6582    0.0357 H         1 <0>         0.1362
     45 H16         5.6937   -2.9099   -2.0391 H         1 <0>         0.1377
     46 H17         2.8966   -5.8978   -0.8314 H         1 <0>         0.1403
     47 H18         1.9551   -8.9334    4.8862 H         1 <0>         0.1282
     48 H19         2.8325  -11.1416    4.2974 H         1 <0>         0.1285
     49 H20         2.3260  -12.1811    2.1705 H         1 <0>         0.1294
     50 H21        -0.6487   -7.6538    1.0415 H         1 <0>         0.1245
     51 H22        -1.1455   -8.7337   -1.0881 H         1 <0>         0.1247
     52 H23        -0.2324  -10.9531   -1.6157 H         1 <0>         0.1250
     53 H24         1.2028  -12.1222   -0.0315 H         1 <0>         0.1296
@<TRIPOS>BOND
     1    1    2 1
     2    1   30 1
     3    1   31 1
     4    1   32 1
     5    2    3 1
     6    2   33 1
     7    2   34 1
     8    3    4 1
     9    3   35 1
    10    3   36 1
    11    4    5 1
    12    4   37 1
    13    4   38 1
    14    5    6 1
    15    5   39 1
    16    5   40 1
    17    6   10 1
    18    6    7 1
    19    7    8 2
    20    7   41 1
    21    8    9 1
    22    8   18 1
    23    9   10 2
    24    9   42 1
    25   10   11 1
    26   11   16 ar
    27   11   12 ar
    28   12   13 ar
    29   12   43 1
    30   13   14 ar
    31   13   44 1
    32   14   15 ar
    33   14   45 1
    34   15   16 ar
    35   15   17 1
    36   16   46 1
    37   18   19 2
    38   18   20 1
    39   20   25 ar
    40   20   21 ar
    41   21   22 ar
    42   21   47 1
    43   22   23 ar
    44   22   48 1
    45   23   24 ar
    46   23   49 1
    47   24   29 ar
    48   24   25 ar
    49   25   26 ar
    50   26   27 ar
    51   26   50 1
    52   27   28 ar
    53   27   51 1
    54   28   29 ar
    55   28   52 1
    56   29   53 1
@<TRIPOS>MOLECULE
ZINC28701758
   61    63     0     0     0
SMALL
USER_CHARGES
N-[(1S,2S)-3-(4-chlorophenyl)-2-(3-cyanophenyl)-1-methyl-propyl]-2-methyl-2-[[5-(trifluoromethyl)-2-pyridyl]oxy]propanamide
@<TRIPOS>ATOM
      1 C1         -2.3215    5.2144   -1.0734 C.3       1 <0>        -0.1663
      2 C2         -0.8948    5.7507   -1.2064 C.3       1 <0>         0.1560
      3 H1         -0.9015    6.8442   -1.3253 H         1 <0>         0.0952
      4 C3         -0.0815    5.3476    0.0252 C.3       1 <0>        -0.0487
      5 H2         -0.0977    4.2540    0.1425 H         1 <0>         0.0934
      6 C4          1.3608    5.8324   -0.1350 C.3       1 <0>        -0.0756
      7 C5          2.1905    5.3305    1.0186 C.ar      1 <0>        -0.0775
      8 C6          2.3118    6.0926    2.1655 C.ar      1 <0>        -0.0955
      9 C7          3.0680    5.6303    3.2260 C.ar      1 <0>        -0.1072
     10 C8          3.7129    4.4096    3.1352 C.ar      1 <0>        -0.0366
     11 C9          3.5957    3.6499    1.9849 C.ar      1 <0>        -0.1088
     12 C10         2.8346    4.1107    0.9272 C.ar      1 <0>        -0.1046
     13 Cl1         4.6682    3.8312    4.4643 Cl        1 <0>        -0.0703
     14 C11        -0.6881    5.9734    1.2546 C.ar      1 <0>        -0.0715
     15 C12        -0.8278    7.3480    1.3322 C.ar      1 <0>        -0.0863
     16 C13        -1.3880    7.9305    2.4550 C.ar      1 <0>        -0.1138
     17 C14        -1.8027    7.1440    3.5100 C.ar      1 <0>        -0.0707
     18 C15        -1.6652    5.7565    3.4382 C.ar      1 <0>        -0.0222
     19 C16        -1.1033    5.1748    2.2997 C.ar      1 <0>        -0.0603
     20 C17        -2.0989    4.9335    4.5268 C.1       1 <0>         0.2481
     21 N1         -2.4430    4.2806    5.3905 N.1       1 <0>        -0.4097
     22 N2         -0.2722    5.1895   -2.4079 N.am      1 <0>        -0.7315
     23 C18        -0.4667    5.7773   -3.6050 C.2       1 <0>         0.5326
     24 O1         -1.1573    6.7708   -3.6876 O.2       1 <0>        -0.5176
     25 C19         0.1738    5.1999   -4.8409 C.3       1 <0>         0.1101
     26 C20         1.6946    5.1971   -4.6734 C.3       1 <0>        -0.1836
     27 C21        -0.3191    3.7664   -5.0486 C.3       1 <0>        -0.1838
     28 O2         -0.1790    5.9939   -5.9755 O.3       1 <0>        -0.2683
     29 C22         0.3195    5.6074   -7.1767 C.ar      1 <0>         0.3586
     30 C23         0.0073    6.3360   -8.3176 C.ar      1 <0>        -0.1875
     31 C24         0.5270    5.9347   -9.5358 C.ar      1 <0>         0.0130
     32 C25         1.3353    4.8065   -9.5715 C.ar      1 <0>        -0.2798
     33 C26         1.5989    4.1272   -8.3990 C.ar      1 <0>         0.1914
     34 N3          1.0934    4.5377   -7.2512 N.ar      1 <0>        -0.5303
     35 C27         1.9190    4.3289  -10.8761 C.3       1 <0>         0.5202
     36 F1          2.6907    3.1840  -10.6503 F         1 <0>        -0.1753
     37 F2          0.8838    4.0252  -11.7668 F         1 <0>        -0.1746
     38 F3          2.7244    5.3339  -11.4224 F         1 <0>        -0.1746
     39 H3         -2.9062    5.5042   -1.9589 H         1 <0>         0.0635
     40 H4         -2.7890    5.6358   -0.1713 H         1 <0>         0.0708
     41 H5         -2.2950    4.1176   -0.9944 H         1 <0>         0.0602
     42 H6          1.7743    5.4475   -1.0789 H         1 <0>         0.0835
     43 H7          1.3786    6.9322   -0.1484 H         1 <0>         0.0818
     44 H8          1.8119    7.0475    2.2346 H         1 <0>         0.1299
     45 H9          3.1591    6.2238    4.1237 H         1 <0>         0.1317
     46 H10         4.0986    2.6968    1.9135 H         1 <0>         0.1324
     47 H11         2.7428    3.5176    0.0293 H         1 <0>         0.1307
     48 H12        -0.5017    7.9687    0.5107 H         1 <0>         0.1309
     49 H13        -1.4975    9.0037    2.5075 H         1 <0>         0.1356
     50 H14        -2.2368    7.6002    4.3874 H         1 <0>         0.1330
     51 H15        -0.9944    4.1021    2.2375 H         1 <0>         0.1307
     52 H16         0.3541    4.2883   -2.3330 H         1 <0>         0.4194
     53 H17         2.1620    4.7756   -5.5755 H         1 <0>         0.1043
     54 H18         1.9661    4.5859   -3.8001 H         1 <0>         0.0762
     55 H19         2.0489    6.2277   -4.5242 H         1 <0>         0.0656
     56 H20         0.1485    3.3450   -5.9507 H         1 <0>         0.1042
     57 H21        -1.4125    3.7685   -5.1691 H         1 <0>         0.0651
     58 H22        -0.0476    3.1552   -4.1753 H         1 <0>         0.0765
     59 H23        -0.6286    7.2066   -8.2541 H         1 <0>         0.1569
     60 H24         0.3054    6.4842  -10.4388 H         1 <0>         0.1547
     61 H25         2.2270    3.2490   -8.4213 H         1 <0>         0.1762
@<TRIPOS>BOND
     1    1    2 1
     2    1   39 1
     3    1   40 1
     4    1   41 1
     5    2    3 1
     6    2    4 1
     7    2   22 1
     8    4    5 1
     9    4    6 1
    10    4   14 1
    11    6    7 1
    12    6   42 1
    13    6   43 1
    14    7   12 ar
    15    7    8 ar
    16    8    9 ar
    17    8   44 1
    18    9   10 ar
    19    9   45 1
    20   10   11 ar
    21   10   13 1
    22   11   12 ar
    23   11   46 1
    24   12   47 1
    25   14   19 ar
    26   14   15 ar
    27   15   16 ar
    28   15   48 1
    29   16   17 ar
    30   16   49 1
    31   17   18 ar
    32   17   50 1
    33   18   19 ar
    34   18   20 1
    35   19   51 1
    36   20   21 3
    37   22   23 am
    38   22   52 1
    39   23   24 2
    40   23   25 1
    41   25   26 1
    42   25   27 1
    43   25   28 1
    44   26   53 1
    45   26   54 1
    46   26   55 1
    47   27   56 1
    48   27   57 1
    49   27   58 1
    50   28   29 1
    51   29   34 ar
    52   29   30 ar
    53   30   31 ar
    54   30   59 1
    55   31   32 ar
    56   31   60 1
    57   32   33 ar
    58   32   35 1
    59   33   34 ar
    60   33   61 1
    61   35   36 1
    62   35   37 1
    63   35   38 1
@<TRIPOS>MOLECULE
ZINC28710494
   52    55     0     0     0
SMALL
USER_CHARGES
1-naphthyl-(4-pentoxy-1-naphthyl)methanone
@<TRIPOS>ATOM
      1 C1          3.2997   16.2947   -0.2986 C.3       1 <0>        -0.1561
      2 C2          1.8680   15.7611   -0.2177 C.3       1 <0>        -0.1247
      3 C3          1.8939   14.2313   -0.2048 C.3       1 <0>        -0.1185
      4 C4          0.4623   13.6977   -0.1239 C.3       1 <0>        -0.1207
      5 C5          0.4881   12.1680   -0.1109 C.3       1 <0>         0.0538
      6 O1         -0.8490   11.6696   -0.0354 O.3       1 <0>        -0.3049
      7 C6         -1.0035   10.3234   -0.0146 C.ar      1 <0>         0.1742
      8 C7          0.1066    9.5051   -0.0653 C.ar      1 <0>        -0.2336
      9 C8         -0.0066    8.1267   -0.0426 C.ar      1 <0>        -0.0235
     10 C9         -1.2574    7.5177    0.0246 C.ar      1 <0>        -0.1880
     11 C10        -2.4512    8.3611    0.0805 C.ar      1 <0>         0.0127
     12 C11        -2.2987    9.7675    0.0592 C.ar      1 <0>        -0.0735
     13 C12        -3.4400   10.5828    0.1129 C.ar      1 <0>        -0.0759
     14 C13        -4.6744   10.0105    0.1848 C.ar      1 <0>        -0.1289
     15 C14        -4.8218    8.6264    0.2057 C.ar      1 <0>        -0.0879
     16 C15        -3.7336    7.8058    0.1548 C.ar      1 <0>        -0.1241
     17 C16        -1.3754    6.0526    0.0450 C.2       1 <0>         0.4584
     18 O2         -1.1182    5.4354    1.0623 O.2       1 <0>        -0.4375
     19 C17        -1.8053    5.3308   -1.1663 C.ar      1 <0>        -0.1644
     20 C18        -2.2122    6.0253   -2.2992 C.ar      1 <0>        -0.0393
     21 C19        -2.6168    5.3430   -3.4380 C.ar      1 <0>        -0.1393
     22 C20        -2.6322    3.9826   -3.4930 C.ar      1 <0>        -0.0625
     23 C21        -2.2340    3.2161   -2.3849 C.ar      1 <0>        -0.0680
     24 C22        -1.8132    3.8698   -1.2009 C.ar      1 <0>        -0.0113
     25 C23        -1.4162    3.1096   -0.0946 C.ar      1 <0>        -0.1210
     26 C24        -1.4441    1.7485   -0.1674 C.ar      1 <0>        -0.1070
     27 C25        -1.8522    1.1025   -1.3319 C.ar      1 <0>        -0.1181
     28 C26        -2.2448    1.8111   -2.4263 C.ar      1 <0>        -0.1033
     29 H1          3.2811   17.3945   -0.3079 H         1 <0>         0.0561
     30 H2          3.7761   15.9282   -1.2199 H         1 <0>         0.0548
     31 H3          3.8712   15.9450    0.5738 H         1 <0>         0.0548
     32 H4          1.3916   16.1276    0.7036 H         1 <0>         0.0639
     33 H5          1.2965   16.1108   -1.0901 H         1 <0>         0.0638
     34 H6          2.3703   13.8649   -1.1261 H         1 <0>         0.0663
     35 H7          2.4654   13.8816    0.6676 H         1 <0>         0.0664
     36 H8         -0.0141   14.0642    0.7974 H         1 <0>         0.0760
     37 H9         -0.1092   14.0474   -0.9963 H         1 <0>         0.0760
     38 H10         0.9645   11.8015   -1.0321 H         1 <0>         0.0682
     39 H11         1.0595   11.8183    0.7615 H         1 <0>         0.0681
     40 H12         1.0882    9.9520   -0.1208 H         1 <0>         0.1347
     41 H13         0.8837    7.5165   -0.0799 H         1 <0>         0.1312
     42 H14        -3.3402   11.6581    0.0978 H         1 <0>         0.1354
     43 H15        -5.5512   10.6397    0.2264 H         1 <0>         0.1285
     44 H16        -5.8110    8.1967    0.2634 H         1 <0>         0.1284
     45 H17        -3.8609    6.7335    0.1721 H         1 <0>         0.1264
     46 H18        -2.2138    7.1052   -2.2933 H         1 <0>         0.1330
     47 H19        -2.9285    5.9069   -4.3047 H         1 <0>         0.1304
     48 H20        -2.9534    3.4878   -4.3976 H         1 <0>         0.1318
     49 H21        -1.0937    3.5984    0.8128 H         1 <0>         0.1580
     50 H22        -1.1414    1.1631    0.6882 H         1 <0>         0.1259
     51 H23        -1.8617    0.0230   -1.3659 H         1 <0>         0.1251
     52 H24        -2.5631    1.2966   -3.3209 H         1 <0>         0.1297
@<TRIPOS>BOND
     1    1    2 1
     2    1   29 1
     3    1   30 1
     4    1   31 1
     5    2    3 1
     6    2   32 1
     7    2   33 1
     8    3    4 1
     9    3   34 1
    10    3   35 1
    11    4    5 1
    12    4   36 1
    13    4   37 1
    14    5    6 1
    15    5   38 1
    16    5   39 1
    17    6    7 1
    18    7   12 ar
    19    7    8 ar
    20    8    9 ar
    21    8   40 1
    22    9   10 ar
    23    9   41 1
    24   10   11 ar
    25   10   17 1
    26   11   16 ar
    27   11   12 ar
    28   12   13 ar
    29   13   14 ar
    30   13   42 1
    31   14   15 ar
    32   14   43 1
    33   15   16 ar
    34   15   44 1
    35   16   45 1
    36   17   18 2
    37   17   19 1
    38   19   24 ar
    39   19   20 ar
    40   20   21 ar
    41   20   46 1
    42   21   22 ar
    43   21   47 1
    44   22   23 ar
    45   22   48 1
    46   23   28 ar
    47   23   24 ar
    48   24   25 ar
    49   25   26 ar
    50   25   49 1
    51   26   27 ar
    52   26   50 1
    53   27   28 ar
    54   27   51 1
    55   28   52 1
@<TRIPOS>MOLECULE
ZINC01721178
   53    55     0     0     0
SMALL
USER_CHARGES

@<TRIPOS>ATOM
      1 C1         -0.0187    1.5258    0.0104 C.3       1 <0>        -0.1543
      2 C2          0.0021   -0.0041    0.0020 C.3       1 <0>        -0.1257
      3 C3          0.7421   -0.5109    1.2415 C.3       1 <0>        -0.1212
      4 C4          0.7628   -2.0407    1.2331 C.3       1 <0>        -0.1135
      5 C5          1.5028   -2.5476    2.4727 C.3       1 <0>        -0.0814
      6 C6          1.5232   -4.0544    2.4644 C.ar      1 <0>        -0.0312
      7 C7          0.4989   -4.7624    3.0640 C.ar      1 <0>        -0.1764
      8 C8          0.5179   -6.1484    3.0523 C.ar      1 <0>         0.1465
      9 C9          1.5640   -6.8286    2.4414 C.ar      1 <0>        -0.1865
     10 C10         2.5924   -6.1183    1.8460 C.ar      1 <0>         0.1582
     11 C11         2.5617   -4.7266    1.8533 C.ar      1 <0>        -0.1585
     12 O1          3.6444   -6.7384    1.2510 O.3       1 <0>        -0.3061
     13 C12         3.5246   -8.1275    0.9375 C.3       1 <0>         0.1192
     14 C13         2.9743   -8.8518    2.1676 C.3       1 <0>        -0.1101
     15 H1          3.6096   -8.6485    3.0296 H         1 <0>         0.0843
     16 C14         1.5548   -8.3320    2.4348 C.3       1 <0>        -0.0316
     17 H2          0.8841   -8.6880    1.6529 H         1 <0>         0.0827
     18 C15         1.0986   -8.8795    3.7877 C.3       1 <0>        -0.0760
     19 C16         1.3184  -10.3662    3.8253 C.2       1 <0>        -0.1194
     20 C17         2.0949  -11.0070    3.0106 C.2       1 <0>        -0.1704
     21 C18         2.9084  -10.3594    1.9182 C.3       1 <0>        -0.0784
     22 C19         0.5895  -11.1610    4.8779 C.3       1 <0>        -0.1221
     23 C20         4.8988   -8.6951    0.5766 C.3       1 <0>        -0.1413
     24 C21         2.5651   -8.3094   -0.2403 C.3       1 <0>        -0.1769
     25 O2         -0.4902   -6.8443    3.6408 O.3       1 <0>        -0.4900
     26 H3          1.0039    1.9031    0.0027 H         1 <0>         0.0537
     27 H4         -0.5459    1.8868   -0.8726 H         1 <0>         0.0535
     28 H5         -0.5289    1.8773    0.9072 H         1 <0>         0.0536
     29 H6         -1.0205   -0.3814    0.0098 H         1 <0>         0.0605
     30 H7          0.5123   -0.3556   -0.8948 H         1 <0>         0.0608
     31 H8          1.7647   -0.1336    1.2338 H         1 <0>         0.0627
     32 H9          0.2319   -0.1594    2.1383 H         1 <0>         0.0624
     33 H10        -0.2598   -2.4180    1.2409 H         1 <0>         0.0634
     34 H11         1.2730   -2.3923    0.3363 H         1 <0>         0.0643
     35 H12         2.5254   -2.1703    2.4649 H         1 <0>         0.0756
     36 H13         0.9926   -2.1961    3.3695 H         1 <0>         0.0756
     37 H14        -0.3149   -4.2366    3.5412 H         1 <0>         0.1290
     38 H15         3.3578   -4.1697    1.3816 H         1 <0>         0.1307
     39 H16         1.6738   -8.4067    4.5838 H         1 <0>         0.0718
     40 H17         0.0391   -8.6650    3.9280 H         1 <0>         0.1010
     41 H18         2.1807  -12.0769    3.1303 H         1 <0>         0.1036
     42 H19         2.4238  -10.5484    0.9603 H         1 <0>         0.0768
     43 H20         3.9182  -10.7695    1.9019 H         1 <0>         0.0792
     44 H21        -0.3743  -11.4855    4.4856 H         1 <0>         0.0658
     45 H22         1.1832  -12.0335    5.1504 H         1 <0>         0.0607
     46 H23         0.4323  -10.5389    5.7590 H         1 <0>         0.0630
     47 H24         5.5759   -8.5726    1.4220 H         1 <0>         0.0671
     48 H25         4.8031   -9.7544    0.3382 H         1 <0>         0.0812
     49 H26         5.2963   -8.1627   -0.2874 H         1 <0>         0.0684
     50 H27         2.9503   -7.7750   -1.1086 H         1 <0>         0.0675
     51 H28         2.4764   -9.3699   -0.4762 H         1 <0>         0.0759
     52 H29         1.5850   -7.9130    0.0249 H         1 <0>         0.0636
     53 H30        -1.2275   -7.0453    3.0484 H         1 <0>         0.3887
@<TRIPOS>BOND
     1    1    2 1
     2    1   26 1
     3    1   27 1
     4    1   28 1
     5    2    3 1
     6    2   29 1
     7    2   30 1
     8    3    4 1
     9    3   31 1
    10    3   32 1
    11    4    5 1
    12    4   33 1
    13    4   34 1
    14    5    6 1
    15    5   35 1
    16    5   36 1
    17    6   11 ar
    18    6    7 ar
    19    7    8 ar
    20    7   37 1
    21    8    9 ar
    22    8   25 1
    23    9   16 1
    24    9   10 ar
    25   10   11 ar
    26   10   12 1
    27   11   38 1
    28   12   13 1
    29   13   14 1
    30   13   23 1
    31   13   24 1
    32   14   15 1
    33   14   21 1
    34   14   16 1
    35   16   17 1
    36   16   18 1
    37   18   19 1
    38   18   39 1
    39   18   40 1
    40   19   20 2
    41   19   22 1
    42   20   21 1
    43   20   41 1
    44   21   42 1
    45   21   43 1
    46   22   44 1
    47   22   45 1
    48   22   46 1
    49   23   47 1
    50   23   48 1
    51   23   49 1
    52   24   50 1
    53   24   51 1
    54   24   52 1
    55   25   53 1
@<TRIPOS>MOLECULE
ZINC13742536
   51    54     0     0     0
SMALL
USER_CHARGES

@<TRIPOS>ATOM
      1 C1         -1.9977   -0.8098   -0.1482 C.3       1 <0>         0.0243
      2 O1         -0.8372   -0.0795   -0.5506 O.3       1 <0>        -0.3126
      3 C2         -0.0308   -0.6635   -1.4728 C.ar      1 <0>         0.1525
      4 C3         -0.3553   -1.9146   -1.9844 C.ar      1 <0>        -0.2177
      5 C4          0.4600   -2.5104   -2.9205 C.ar      1 <0>        -0.0480
      6 C5          1.6152   -1.8555   -3.3562 C.ar      1 <0>        -0.1878
      7 C6          1.9379   -0.5977   -2.8394 C.ar      1 <0>        -0.0264
      8 C7          1.1145   -0.0065   -1.9075 C.ar      1 <0>        -0.1577
      9 C8          2.4925   -2.4909   -4.3595 C.2       1 <0>         0.4692
     10 O2          3.0915   -1.8041   -5.1663 O.2       1 <0>        -0.4581
     11 C9          2.6424   -3.9512   -4.3839 C.2       1 <0>        -0.2497
     12 C10         2.1419   -4.8399   -3.4757 C.2       1 <0>         0.1199
     13 N1          2.4851   -6.1004   -3.8318 N.pl3     1 <0>        -0.4649
     14 C11         3.2286   -6.0876   -4.9944 C.ar      1 <0>         0.0858
     15 C12         3.3578   -4.7486   -5.3973 C.ar      1 <0>        -0.0647
     16 C13         4.0633   -4.4327   -6.5552 C.ar      1 <0>        -0.0688
     17 C14         4.6309   -5.4405   -7.3045 C.ar      1 <0>        -0.1358
     18 C15         4.5016   -6.7637   -6.9097 C.ar      1 <0>        -0.0988
     19 C16         3.8118   -7.0899   -5.7619 C.ar      1 <0>        -0.1228
     20 C17         2.1191   -7.3080   -3.0874 C.3       1 <0>         0.1076
     21 C18         3.2587   -7.6881   -2.1401 C.3       1 <0>         0.0381
     22 N2          2.8917   -8.8990   -1.3936 N.3       1 <0>        -0.5336
     23 C19         1.7645   -8.6375   -0.4869 C.3       1 <0>         0.0104
     24 C20         1.3772   -9.9364    0.2249 C.3       1 <0>         0.0631
     25 O3          2.5179  -10.4546    0.9146 O.3       1 <0>        -0.3837
     26 C21         3.6343  -10.7213    0.0615 C.3       1 <0>         0.0632
     27 C22         4.0445   -9.4303   -0.6519 C.3       1 <0>         0.0185
     28 H1         -2.6306   -0.9935   -1.0164 H         1 <0>         0.0588
     29 H2         -1.6947   -1.7615    0.2885 H         1 <0>         0.0580
     30 H3         -2.5529   -0.2315    0.5904 H         1 <0>         0.1038
     31 H4         -1.2480   -2.4202   -1.6468 H         1 <0>         0.1346
     32 H5          0.2073   -3.4826   -3.3171 H         1 <0>         0.1326
     33 H6          2.8299   -0.0886   -3.1733 H         1 <0>         0.1397
     34 H7          1.3608    0.9674   -1.5110 H         1 <0>         0.1388
     35 H8          1.5602   -4.5770   -2.6046 H         1 <0>         0.1791
     36 H9          4.1650   -3.4030   -6.8648 H         1 <0>         0.1319
     37 H10         5.1786   -5.1987   -8.2034 H         1 <0>         0.1266
     38 H11         4.9505   -7.5456   -7.5044 H         1 <0>         0.1280
     39 H12         3.7160   -8.1236   -5.4642 H         1 <0>         0.1216
     40 H13         1.2143   -7.1184   -2.5098 H         1 <0>         0.0942
     41 H14         1.9395   -8.1251   -3.7861 H         1 <0>         0.1023
     42 H15         4.1635   -7.8776   -2.7177 H         1 <0>         0.0864
     43 H16         3.4383   -6.8710   -1.4413 H         1 <0>         0.0453
     44 H17         2.0570   -7.8910    0.2516 H         1 <0>         0.0472
     45 H18         0.9139   -8.2691   -1.0604 H         1 <0>         0.0873
     46 H19         0.5796   -9.7356    0.9402 H         1 <0>         0.1004
     47 H20         1.0336  -10.6652   -0.5092 H         1 <0>         0.0620
     48 H21         4.4692  -11.0882    0.6586 H         1 <0>         0.1015
     49 H22         3.3564  -11.4730   -0.6774 H         1 <0>         0.0623
     50 H23         4.8582   -9.6408   -1.3460 H         1 <0>         0.0896
     51 H24         4.3734   -8.6966    0.0839 H         1 <0>         0.0466
@<TRIPOS>BOND
     1    1    2 1
     2    1   28 1
     3    1   29 1
     4    1   30 1
     5    2    3 1
     6    3    8 ar
     7    3    4 ar
     8    4    5 ar
     9    4   31 1
    10    5    6 ar
    11    5   32 1
    12    6    7 ar
    13    6    9 1
    14    7    8 ar
    15    7   33 1
    16    8   34 1
    17    9   10 2
    18    9   11 1
    19   11   15 1
    20   11   12 2
    21   12   13 1
    22   12   35 1
    23   13   14 1
    24   13   20 1
    25   14   19 ar
    26   14   15 ar
    27   15   16 ar
    28   16   17 ar
    29   16   36 1
    30   17   18 ar
    31   17   37 1
    32   18   19 ar
    33   18   38 1
    34   19   39 1
    35   20   21 1
    36   20   40 1
    37   20   41 1
    38   21   22 1
    39   21   42 1
    40   21   43 1
    41   22   27 1
    42   22   23 1
    43   23   24 1
    44   23   44 1
    45   23   45 1
    46   24   25 1
    47   24   46 1
    48   24   47 1
    49   25   26 1
    50   26   27 1
    51   26   48 1
    52   26   49 1
    53   27   50 1
    54   27   51 1
@<TRIPOS>MOLECULE
ZINC01721177
   53    55     0     0     0
SMALL
USER_CHARGES

@<TRIPOS>ATOM
      1 C1          0.3631    1.8859    1.0842 C.3       1 <0>        -0.1540
      2 C2          0.2555    0.3737    0.8780 C.3       1 <0>        -0.1261
      3 C3          1.0544   -0.3475    1.9655 C.3       1 <0>        -0.1205
      4 C4          0.9467   -1.8597    1.7593 C.3       1 <0>        -0.1143
      5 C5          1.7456   -2.5808    2.8468 C.3       1 <0>        -0.0803
      6 C6          1.6396   -4.0703    2.6437 C.ar      1 <0>        -0.0324
      7 C7          0.6149   -4.7774    3.2436 C.ar      1 <0>        -0.1789
      8 C8          0.5201   -6.1482    3.0577 C.ar      1 <0>         0.1452
      9 C9          1.4507   -6.8115    2.2696 C.ar      1 <0>        -0.1723
     10 C10         2.4757   -6.1014    1.6649 C.ar      1 <0>         0.1575
     11 C11         2.5625   -4.7256    1.8543 C.ar      1 <0>        -0.1590
     12 O1          3.3985   -6.7095    0.8754 O.3       1 <0>        -0.3052
     13 C12         3.4971   -8.1345    0.9079 C.3       1 <0>         0.1152
     14 C13         2.0675   -8.7055    0.7962 C.3       1 <0>        -0.1077
     15 H1          2.0828   -9.7890    0.6786 H         1 <0>         0.0952
     16 C14         1.3396   -8.2970    2.0822 C.3       1 <0>        -0.0342
     17 H2          1.8328   -8.7850    2.9228 H         1 <0>         0.0792
     18 C15        -0.1040   -8.7657    2.0563 C.3       1 <0>        -0.1137
     19 C16        -0.7522   -8.4619    0.7390 C.2       1 <0>        -0.1073
     20 C17        -0.0939   -8.1414   -0.3274 C.2       1 <0>        -0.1711
     21 C18         1.4030   -8.0263   -0.4075 C.3       1 <0>        -0.0819
     22 C19        -2.2550   -8.5335    0.6525 C.3       1 <0>        -0.1183
     23 C20         4.1324   -8.5807    2.2263 C.3       1 <0>        -0.1768
     24 C21         4.3442   -8.6229   -0.2689 C.3       1 <0>        -0.1402
     25 O2         -0.4862   -6.8442    3.6489 O.3       1 <0>        -0.4801
     26 H3          1.4091    2.1869    1.0266 H         1 <0>         0.0535
     27 H4         -0.2061    2.3997    0.3095 H         1 <0>         0.0535
     28 H5         -0.0371    2.1485    2.0635 H         1 <0>         0.0534
     29 H6         -0.7906    0.0727    0.9357 H         1 <0>         0.0607
     30 H7          0.6557    0.1111   -0.1013 H         1 <0>         0.0609
     31 H8          2.1004   -0.0465    1.9079 H         1 <0>         0.0624
     32 H9          0.6542   -0.0849    2.9448 H         1 <0>         0.0620
     33 H10        -0.0993   -2.1607    1.8170 H         1 <0>         0.0639
     34 H11         1.3469   -2.1222    0.7800 H         1 <0>         0.0643
     35 H12         2.7916   -2.2798    2.7891 H         1 <0>         0.0749
     36 H13         1.3454   -2.3183    3.8261 H         1 <0>         0.0747
     37 H14        -0.1106   -4.2632    3.8565 H         1 <0>         0.1280
     38 H15         3.3592   -4.1681    1.3845 H         1 <0>         0.1298
     39 H16        -0.1330   -9.8417    2.2285 H         1 <0>         0.0666
     40 H17        -0.6567   -8.2633    2.8502 H         1 <0>         0.1335
     41 H18        -0.6566   -7.9579   -1.2308 H         1 <0>         0.0978
     42 H19         1.6692   -6.9693   -0.4131 H         1 <0>         0.0782
     43 H20         1.7663   -8.4899   -1.3247 H         1 <0>         0.0714
     44 H21        -2.6795   -7.5583    0.8911 H         1 <0>         0.0648
     45 H22        -2.5476   -8.8197   -0.3578 H         1 <0>         0.0576
     46 H23        -2.6249   -9.2741    1.3615 H         1 <0>         0.0603
     47 H24         3.5157   -8.2432    3.0593 H         1 <0>         0.0655
     48 H25         4.2048   -9.6681    2.2450 H         1 <0>         0.0738
     49 H26         5.1292   -8.1486    2.3138 H         1 <0>         0.0675
     50 H27         5.3428   -8.1912   -0.2016 H         1 <0>         0.0680
     51 H28         4.4156   -9.7102   -0.2386 H         1 <0>         0.0787
     52 H29         3.8776   -8.3154   -1.2048 H         1 <0>         0.0689
     53 H30        -0.2993   -7.1085    4.5601 H         1 <0>         0.3875
@<TRIPOS>BOND
     1    1    2 1
     2    1   26 1
     3    1   27 1
     4    1   28 1
     5    2    3 1
     6    2   29 1
     7    2   30 1
     8    3    4 1
     9    3   31 1
    10    3   32 1
    11    4    5 1
    12    4   33 1
    13    4   34 1
    14    5    6 1
    15    5   35 1
    16    5   36 1
    17    6   11 ar
    18    6    7 ar
    19    7    8 ar
    20    7   37 1
    21    8    9 ar
    22    8   25 1
    23    9   16 1
    24    9   10 ar
    25   10   11 ar
    26   10   12 1
    27   11   38 1
    28   12   13 1
    29   13   14 1
    30   13   23 1
    31   13   24 1
    32   14   15 1
    33   14   21 1
    34   14   16 1
    35   16   17 1
    36   16   18 1
    37   18   19 1
    38   18   39 1
    39   18   40 1
    40   19   20 2
    41   19   22 1
    42   20   21 1
    43   20   41 1
    44   21   42 1
    45   21   43 1
    46   22   44 1
    47   22   45 1
    48   22   46 1
    49   23   47 1
    50   23   48 1
    51   23   49 1
    52   24   50 1
    53   24   51 1
    54   24   52 1
    55   25   53 1
@<TRIPOS>MOLECULE
ZINC01997139
   51    54     0     0     0
SMALL
USER_CHARGES
1-(2,4-dichlorophenyl)-5-(4-iodophenyl)-4-methyl-N-(1-piperidyl)pyrazole-3-carboxamide
@<TRIPOS>ATOM
      1 C1          2.9450    0.0343   -0.6085 C.3       1 <0>        -0.0852
      2 C2          2.5620    1.4508   -0.2652 C.2       1 <0>        -0.1019
      3 C3          3.4036    2.4925    0.0092 C.2       1 <0>         0.0450
      4 N1          2.6159    3.5783    0.2689 N.pl3     1 <0>        -0.2292
      5 N2          1.3770    3.2560    0.1632 N.2       1 <0>        -0.2341
      6 C4          1.2582    1.9829   -0.1616 C.2       1 <0>        -0.0017
      7 C5         -0.0055    1.2480   -0.3719 C.2       1 <0>         0.6243
      8 O1          0.0188    0.0695   -0.6695 O.2       1 <0>        -0.4951
      9 N3         -1.1857    1.8853   -0.2393 N.am      1 <0>        -0.5719
     10 N4         -2.3544    1.2070   -0.4392 N.3       1 <0>        -0.2922
     11 C6         -3.0841    1.7451   -1.5944 C.3       1 <0>         0.0382
     12 C7         -4.3097    0.8732   -1.8765 C.3       1 <0>        -0.1138
     13 C8         -5.2137    0.8567   -0.6407 C.3       1 <0>        -0.1252
     14 C9         -4.4158    0.3379    0.5587 C.3       1 <0>        -0.1137
     15 C10        -3.1871    1.2253    0.7702 C.3       1 <0>         0.0385
     16 C11         3.0893    4.8541    0.6008 C.ar      1 <0>         0.1379
     17 C12         4.0485    5.0036    1.5939 C.ar      1 <0>        -0.0782
     18 C13         4.5178    6.2618    1.9153 C.ar      1 <0>        -0.0882
     19 C14         4.0250    7.3753    1.2569 C.ar      1 <0>        -0.0129
     20 C15         3.0652    7.2307    0.2709 C.ar      1 <0>        -0.0913
     21 C16         2.5959    5.9732   -0.0590 C.ar      1 <0>        -0.0118
     22 Cl1         1.3919    5.7919   -1.2965 Cl        1 <0>        -0.0233
     23 Cl2         4.6129    8.9559    1.6687 Cl        1 <0>        -0.0382
     24 C17         4.8825    2.4508    0.0274 C.ar      1 <0>        -0.0086
     25 C18         5.5469    1.5119    0.8170 C.ar      1 <0>        -0.0879
     26 C19         6.9260    1.4738    0.8251 C.ar      1 <0>        -0.0802
     27 C20         7.6504    2.3726    0.0614 C.ar      1 <0>        -0.0903
     28 C21         6.9969    3.3100   -0.7195 C.ar      1 <0>        -0.0792
     29 C22         5.6181    3.3539   -0.7405 C.ar      1 <0>        -0.0932
     30 I1          9.7444    2.3134    0.0872 I         1 <0>        -0.0334
     31 H1          3.0596   -0.0595   -1.6884 H         1 <0>         0.0743
     32 H2          3.8867   -0.2160   -0.1201 H         1 <0>         0.0669
     33 H3          2.1656   -0.6461   -0.2654 H         1 <0>         0.0896
     34 H4         -1.2051    2.8256   -0.0018 H         1 <0>         0.3863
     35 H5         -3.4052    2.7641   -1.3786 H         1 <0>         0.0401
     36 H6         -2.4313    1.7474   -2.4673 H         1 <0>         0.0813
     37 H7         -3.9885   -0.1428   -2.1060 H         1 <0>         0.0774
     38 H8         -4.8599    1.2811   -2.7244 H         1 <0>         0.0737
     39 H9         -6.0662    0.2021   -0.8218 H         1 <0>         0.0702
     40 H10        -5.5674    1.8667   -0.4336 H         1 <0>         0.0604
     41 H11        -4.0962   -0.6866    0.3676 H         1 <0>         0.0774
     42 H12        -5.0415    0.3640    1.4508 H         1 <0>         0.0741
     43 H13        -2.6091    0.8501    1.6147 H         1 <0>         0.0821
     44 H14        -3.5079    2.2467    0.9749 H         1 <0>         0.0406
     45 H15         4.4304    4.1359    2.1113 H         1 <0>         0.1509
     46 H16         5.2670    6.3778    2.6845 H         1 <0>         0.1549
     47 H17         2.6821    8.1011   -0.2410 H         1 <0>         0.1576
     48 H18         4.9828    0.8135    1.4173 H         1 <0>         0.1393
     49 H19         7.4415    0.7441    1.4319 H         1 <0>         0.1373
     50 H20         7.5674    4.0088   -1.3133 H         1 <0>         0.1349
     51 H21         5.1093    4.0860   -1.3500 H         1 <0>         0.1279
@<TRIPOS>BOND
     1    1    2 1
     2    1   31 1
     3    1   32 1
     4    1   33 1
     5    2    6 1
     6    2    3 2
     7    3    4 1
     8    3   24 1
     9    4    5 1
    10    4   16 1
    11    5    6 2
    12    6    7 1
    13    7    8 2
    14    7    9 am
    15    9   10 1
    16    9   34 1
    17   10   15 1
    18   10   11 1
    19   11   12 1
    20   11   35 1
    21   11   36 1
    22   12   13 1
    23   12   37 1
    24   12   38 1
    25   13   14 1
    26   13   39 1
    27   13   40 1
    28   14   15 1
    29   14   41 1
    30   14   42 1
    31   15   43 1
    32   15   44 1
    33   16   21 ar
    34   16   17 ar
    35   17   18 ar
    36   17   45 1
    37   18   19 ar
    38   18   46 1
    39   19   20 ar
    40   19   23 1
    41   20   21 ar
    42   20   47 1
    43   21   22 1
    44   24   29 ar
    45   24   25 ar
    46   25   26 ar
    47   25   48 1
    48   26   27 ar
    49   26   49 1
    50   27   28 ar
    51   27   30 1
    52   28   29 ar
    53   28   50 1
    54   29   51 1
