@<TRIPOS>MOLECULE
ZINC01530625
   53    55     0     0     0
SMALL
USER_CHARGES
trimethyl-pentyl-BLAHol
@<TRIPOS>ATOM
      1 C1          1.1312    7.6661    2.8994 C.3       1 <0>        -0.1540
      2 C2          1.1487    6.1362    2.8960 C.3       1 <0>        -0.1262
      3 C3          1.1435    5.6293    1.4524 C.3       1 <0>        -0.1205
      4 C4          1.1610    4.0994    1.4490 C.3       1 <0>        -0.1146
      5 C5          1.1558    3.5925    0.0054 C.3       1 <0>        -0.0805
      6 C6          1.1731    2.0856    0.0021 C.ar      1 <0>        -0.0309
      7 C7         -0.0167    1.3825    0.0096 C.ar      1 <0>        -0.1773
      8 C8          0.0021   -0.0041    0.0020 C.ar      1 <0>         0.1493
      9 C9          1.2101   -0.6850   -0.0134 C.ar      1 <0>        -0.1821
     10 C10         2.4061    0.0193   -0.0126 C.ar      1 <0>         0.1598
     11 C11         2.3764    1.4113   -0.0090 C.ar      1 <0>        -0.1594
     12 O1          3.6146   -0.6005   -0.0010 O.3       1 <0>        -0.3086
     13 C12         3.6845   -2.0092   -0.2471 C.3       1 <0>         0.1227
     14 C13         2.5579   -2.6737    0.5379 C.3       1 <0>        -0.1116
     15 H1          2.6234   -2.3795    1.5854 H         1 <0>         0.0833
     16 C14         1.2282   -2.1827   -0.0438 C.3       1 <0>        -0.0074
     17 H2          1.1717   -2.5044   -1.0837 H         1 <0>         0.0862
     18 C15         0.0991   -2.8232    0.6943 C.2       1 <0>        -0.1575
     19 C16         0.2426   -3.9571    1.3166 C.2       1 <0>        -0.1330
     20 C17         1.5172   -4.7404    1.4011 C.3       1 <0>        -0.0831
     21 C18         2.5770   -4.1958    0.4360 C.3       1 <0>        -0.1091
     22 C19        -0.9695   -4.5278    2.0066 C.3       1 <0>        -0.1201
     23 C20         3.5073   -2.2839   -1.7418 C.3       1 <0>        -0.1757
     24 C21         5.0358   -2.5513    0.2230 C.3       1 <0>        -0.1411
     25 O2         -1.1666   -0.6976    0.0092 O.3       1 <0>        -0.4884
     26 H3          2.0130    8.0407    2.3796 H         1 <0>         0.0535
     27 H4          0.2332    8.0203    2.3932 H         1 <0>         0.0534
     28 H5          1.1349    8.0272    3.9278 H         1 <0>         0.0534
     29 H6          0.2669    5.7616    3.4158 H         1 <0>         0.0608
     30 H7          2.0467    5.7820    3.4022 H         1 <0>         0.0609
     31 H8          2.0253    6.0039    0.9326 H         1 <0>         0.0625
     32 H9          0.2455    5.9835    0.9462 H         1 <0>         0.0622
     33 H10         0.2792    3.7248    1.9688 H         1 <0>         0.0642
     34 H11         2.0590    3.7452    1.9552 H         1 <0>         0.0645
     35 H12         2.0376    3.9671   -0.5144 H         1 <0>         0.0754
     36 H13         0.2578    3.9467   -0.5008 H         1 <0>         0.0752
     37 H14        -0.9583    1.9114    0.0170 H         1 <0>         0.1293
     38 H15         3.3023    1.9672   -0.0154 H         1 <0>         0.1307
     39 H16        -0.8626   -2.3322    0.7121 H         1 <0>         0.1461
     40 H17         1.3121   -5.7820    1.1539 H         1 <0>         0.0732
     41 H18         1.9012   -4.6853    2.4197 H         1 <0>         0.0718
     42 H19         2.3403   -4.5010   -0.5833 H         1 <0>         0.0690
     43 H20         3.5606   -4.5727    0.7164 H         1 <0>         0.0748
     44 H21        -1.0093   -4.1621    3.0327 H         1 <0>         0.0632
     45 H22        -1.8695   -4.2183    1.4753 H         1 <0>         0.0622
     46 H23        -0.9063   -5.6160    2.0110 H         1 <0>         0.0592
     47 H24         4.2972   -1.7810   -2.2998 H         1 <0>         0.0681
     48 H25         3.5615   -3.3574   -1.9228 H         1 <0>         0.0755
     49 H26         2.5371   -1.9090   -2.0676 H         1 <0>         0.0640
     50 H27         5.1499   -2.3661    1.2911 H         1 <0>         0.0669
     51 H28         5.0831   -3.6236    0.0331 H         1 <0>         0.0817
     52 H29         5.8372   -2.0504   -0.3202 H         1 <0>         0.0690
     53 H30        -1.5131   -0.8936   -0.8720 H         1 <0>         0.3891
@<TRIPOS>BOND
     1    1    2 1
     2    1   26 1
     3    1   27 1
     4    1   28 1
     5    2    3 1
     6    2   29 1
     7    2   30 1
     8    3    4 1
     9    3   31 1
    10    3   32 1
    11    4    5 1
    12    4   33 1
    13    4   34 1
    14    5    6 1
    15    5   35 1
    16    5   36 1
    17    6   11 ar
    18    6    7 ar
    19    7    8 ar
    20    7   37 1
    21    8    9 ar
    22    8   25 1
    23    9   16 1
    24    9   10 ar
    25   10   11 ar
    26   10   12 1
    27   11   38 1
    28   12   13 1
    29   13   14 1
    30   13   23 1
    31   13   24 1
    32   14   15 1
    33   14   21 1
    34   14   16 1
    35   16   17 1
    36   16   18 1
    37   18   19 2
    38   18   39 1
    39   19   20 1
    40   19   22 1
    41   20   21 1
    42   20   40 1
    43   20   41 1
    44   21   42 1
    45   21   43 1
    46   22   44 1
    47   22   45 1
    48   22   46 1
    49   23   47 1
    50   23   48 1
    51   23   49 1
    52   24   50 1
    53   24   51 1
    54   24   52 1
    55   25   53 1
@<TRIPOS>MOLECULE
ZINC02034208
   53    55     0     0     0
SMALL
USER_CHARGES
trimethyl-pentyl-BLAHol
@<TRIPOS>ATOM
      1 C1         -6.2917    5.9798   -2.7842 C.3       1 <0>        -0.1543
      2 C2         -4.9343    5.2740   -2.8018 C.3       1 <0>        -0.1256
      3 C3         -4.4687    5.0282   -1.3652 C.3       1 <0>        -0.1212
      4 C4         -3.1113    4.3224   -1.3828 C.3       1 <0>        -0.1133
      5 C5         -2.6457    4.0766    0.0538 C.3       1 <0>        -0.0810
      6 C6         -1.3087    3.3815    0.0365 C.ar      1 <0>        -0.0326
      7 C7         -0.1433    4.1243    0.0313 C.ar      1 <0>        -0.1762
      8 C8          1.0855    3.4838    0.0144 C.ar      1 <0>         0.1477
      9 C9          1.1513    2.0948    0.0023 C.ar      1 <0>        -0.1770
     10 C10        -0.0163    1.3544    0.0095 C.ar      1 <0>         0.1559
     11 C11        -1.2475    2.0028    0.0306 C.ar      1 <0>        -0.1582
     12 O1          0.0021   -0.0041    0.0020 O.3       1 <0>        -0.3024
     13 C12         1.1999   -0.6466   -0.4358 C.3       1 <0>         0.1180
     14 C13         2.3857   -0.0457    0.3242 C.3       1 <0>        -0.1081
     15 H1          3.3021   -0.5622    0.0387 H         1 <0>         0.0902
     16 C14         2.5050    1.4352   -0.0208 C.3       1 <0>         0.0022
     17 H2          2.9091    1.5288   -1.0288 H         1 <0>         0.0820
     18 C15         3.4271    2.1313    0.9346 C.2       1 <0>        -0.1400
     19 C16         3.8162    1.6341    2.0647 C.2       1 <0>        -0.1278
     20 C17         3.4029    0.2828    2.5707 C.3       1 <0>        -0.0829
     21 C18         2.1560   -0.2023    1.8304 C.3       1 <0>        -0.1119
     22 C19         4.7383    2.4611    2.9231 C.3       1 <0>        -0.1183
     23 C20         1.1125   -2.1466   -0.1473 C.3       1 <0>        -0.1416
     24 C21         1.3846   -0.4196   -1.9375 C.3       1 <0>        -0.1765
     25 O2          2.2305    4.2158    0.0100 O.3       1 <0>        -0.4899
     26 H3         -6.1988    6.9332   -2.2642 H         1 <0>         0.0535
     27 H4         -6.6234    6.1549   -3.8076 H         1 <0>         0.0535
     28 H5         -7.0199    5.3540   -2.2683 H         1 <0>         0.0537
     29 H6         -4.2061    5.8998   -3.3177 H         1 <0>         0.0604
     30 H7         -5.0272    4.3206   -3.3218 H         1 <0>         0.0608
     31 H8         -5.1969    4.4024   -0.8493 H         1 <0>         0.0627
     32 H9         -4.3758    5.9816   -0.8452 H         1 <0>         0.0623
     33 H10        -2.3831    4.9482   -1.8987 H         1 <0>         0.0633
     34 H11        -3.2042    3.3690   -1.9028 H         1 <0>         0.0642
     35 H12        -3.3739    3.4508    0.5697 H         1 <0>         0.0754
     36 H13        -2.5528    5.0300    0.5738 H         1 <0>         0.0751
     37 H14        -0.1902    5.2033    0.0401 H         1 <0>         0.1281
     38 H15        -2.1595    1.4243    0.0385 H         1 <0>         0.1306
     39 H16         3.7899    3.1115    0.6625 H         1 <0>         0.1233
     40 H17         4.2126   -0.4281    2.4066 H         1 <0>         0.0716
     41 H18         3.1899    0.3459    3.6378 H         1 <0>         0.0712
     42 H19         1.3004    0.4007    2.1345 H         1 <0>         0.0665
     43 H20         1.9695   -1.2503    2.0649 H         1 <0>         0.0724
     44 H21         4.9458    3.4084    2.4255 H         1 <0>         0.0608
     45 H22         4.2643    2.6525    3.8857 H         1 <0>         0.0623
     46 H23         5.6719    1.9204    3.0789 H         1 <0>         0.0618
     47 H24         0.2597   -2.5696   -0.6782 H         1 <0>         0.0685
     48 H25         2.0276   -2.6349   -0.4822 H         1 <0>         0.0785
     49 H26         0.9879   -2.3039    0.9241 H         1 <0>         0.0706
     50 H27         1.4533    0.6497   -2.1376 H         1 <0>         0.0632
     51 H28         2.2993   -0.9107   -2.2694 H         1 <0>         0.0733
     52 H29         0.5329   -0.8359   -2.4754 H         1 <0>         0.0680
     53 H30         2.5538    4.4350   -0.8746 H         1 <0>         0.3871
@<TRIPOS>BOND
     1    1    2 1
     2    1   26 1
     3    1   27 1
     4    1   28 1
     5    2    3 1
     6    2   29 1
     7    2   30 1
     8    3    4 1
     9    3   31 1
    10    3   32 1
    11    4    5 1
    12    4   33 1
    13    4   34 1
    14    5    6 1
    15    5   35 1
    16    5   36 1
    17    6   11 ar
    18    6    7 ar
    19    7    8 ar
    20    7   37 1
    21    8    9 ar
    22    8   25 1
    23    9   16 1
    24    9   10 ar
    25   10   11 ar
    26   10   12 1
    27   11   38 1
    28   12   13 1
    29   13   14 1
    30   13   23 1
    31   13   24 1
    32   14   15 1
    33   14   21 1
    34   14   16 1
    35   16   17 1
    36   16   18 1
    37   18   19 2
    38   18   39 1
    39   19   20 1
    40   19   22 1
    41   20   21 1
    42   20   40 1
    43   20   41 1
    44   21   42 1
    45   21   43 1
    46   22   44 1
    47   22   45 1
    48   22   46 1
    49   23   47 1
    50   23   48 1
    51   23   49 1
    52   24   50 1
    53   24   51 1
    54   24   52 1
    55   25   53 1
@<TRIPOS>MOLECULE
ZINC05821097
   53    55     0     0     0
SMALL
USER_CHARGES
dimethyl-methylene-pentyl-BLAHol
@<TRIPOS>ATOM
      1 C1          6.0267   -0.9299   -2.9356 C.3       1 <0>        -0.1541
      2 C2          4.6910   -0.1837   -2.9216 C.3       1 <0>        -0.1261
      3 C3          4.2581    0.0598   -1.4745 C.3       1 <0>        -0.1205
      4 C4          2.9224    0.8060   -1.4605 C.3       1 <0>        -0.1145
      5 C5          2.4895    1.0495   -0.0134 C.3       1 <0>        -0.0807
      6 C6          1.1739    1.7845    0.0004 C.ar      1 <0>        -0.0313
      7 C7         -0.0126    1.0758    0.0080 C.ar      1 <0>        -0.1766
      8 C8         -1.2216    1.7540    0.0174 C.ar      1 <0>         0.1463
      9 C9         -1.2437    3.1425    0.0320 C.ar      1 <0>        -0.1882
     10 C10        -0.0546    3.8525    0.0199 C.ar      1 <0>         0.1586
     11 C11         1.1553    3.1640    0.0051 C.ar      1 <0>        -0.1587
     12 O1         -0.0255    5.2104    0.0144 O.3       1 <0>        -0.3068
     13 C12        -1.2218    5.9221    0.3402 C.3       1 <0>         0.1200
     14 C13        -2.3784    5.2930   -0.4378 C.3       1 <0>        -0.1102
     15 H1         -2.1359    5.2802   -1.5004 H         1 <0>         0.0828
     16 C14        -2.5659    3.8571    0.0588 C.3       1 <0>        -0.0291
     17 H2         -2.9344    3.8758    1.0845 H         1 <0>         0.0816
     18 C15        -3.5875    3.1535   -0.8376 C.3       1 <0>        -0.0830
     19 C16        -4.8597    3.9760   -0.8179 C.2       1 <0>        -0.1231
     20 C17        -6.0144    3.4131   -0.5609 C.2       1 <0>        -0.1953
     21 C18        -4.7717    5.4585   -1.1009 C.3       1 <0>        -0.0876
     22 C19        -3.6738    6.0721   -0.2220 C.3       1 <0>        -0.1080
     23 C20        -1.4923    5.8166    1.8424 C.3       1 <0>        -0.1757
     24 C21        -1.0721    7.3922   -0.0563 C.3       1 <0>        -0.1418
     25 O2         -2.3888    1.0579    0.0180 O.3       1 <0>        -0.4888
     26 H3          5.9142   -1.8859   -2.4243 H         1 <0>         0.0534
     27 H4          6.3351   -1.1034   -3.9666 H         1 <0>         0.0535
     28 H5          6.7823   -0.3319   -2.4261 H         1 <0>         0.0535
     29 H6          3.9355   -0.7816   -3.4312 H         1 <0>         0.0608
     30 H7          4.8036    0.7723   -3.4330 H         1 <0>         0.0609
     31 H8          5.0137    0.6578   -0.9649 H         1 <0>         0.0625
     32 H9          4.1456   -0.8962   -0.9631 H         1 <0>         0.0622
     33 H10         2.1668    0.2081   -1.9701 H         1 <0>         0.0641
     34 H11         3.0349    1.7620   -1.9719 H         1 <0>         0.0645
     35 H12         3.2450    1.6474    0.4962 H         1 <0>         0.0753
     36 H13         2.3770    0.0935    0.4980 H         1 <0>         0.0751
     37 H14         0.0021   -0.0041    0.0020 H         1 <0>         0.1290
     38 H15         2.0852    3.7132   -0.0024 H         1 <0>         0.1306
     39 H16        -3.7885    2.1535   -0.4532 H         1 <0>         0.1044
     40 H17        -3.2064    3.0874   -1.8566 H         1 <0>         0.0693
     41 H18        -6.9150    4.0090   -0.5498 H         1 <0>         0.0960
     42 H19        -6.0656    2.3532   -0.3601 H         1 <0>         0.0981
     43 H20        -5.7274    5.9305   -0.8731 H         1 <0>         0.0707
     44 H21        -4.5284    5.6165   -2.1516 H         1 <0>         0.0725
     45 H22        -3.9674    6.0099    0.8259 H         1 <0>         0.0689
     46 H23        -3.5228    7.1158   -0.4978 H         1 <0>         0.0739
     47 H24        -0.6555    6.2458    2.3933 H         1 <0>         0.0670
     48 H25        -2.4050    6.3604    2.0863 H         1 <0>         0.0751
     49 H26        -1.6093    4.7685    2.1178 H         1 <0>         0.0635
     50 H27        -0.8908    7.4626   -1.1288 H         1 <0>         0.0670
     51 H28        -1.9862    7.9308    0.1938 H         1 <0>         0.0819
     52 H29        -0.2328    7.8305    0.4837 H         1 <0>         0.0684
     53 H30        -2.7228    0.8509    0.9015 H         1 <0>         0.3886
@<TRIPOS>BOND
     1    1    2 1
     2    1   26 1
     3    1   27 1
     4    1   28 1
     5    2    3 1
     6    2   29 1
     7    2   30 1
     8    3    4 1
     9    3   31 1
    10    3   32 1
    11    4    5 1
    12    4   33 1
    13    4   34 1
    14    5    6 1
    15    5   35 1
    16    5   36 1
    17    6   11 ar
    18    6    7 ar
    19    7    8 ar
    20    7   37 1
    21    8    9 ar
    22    8   25 1
    23    9   16 1
    24    9   10 ar
    25   10   11 ar
    26   10   12 1
    27   11   38 1
    28   12   13 1
    29   13   14 1
    30   13   23 1
    31   13   24 1
    32   14   15 1
    33   14   22 1
    34   14   16 1
    35   16   17 1
    36   16   18 1
    37   18   19 1
    38   18   39 1
    39   18   40 1
    40   19   20 2
    41   19   21 1
    42   20   41 1
    43   20   42 1
    44   21   22 1
    45   21   43 1
    46   21   44 1
    47   22   45 1
    48   22   46 1
    49   23   47 1
    50   23   48 1
    51   23   49 1
    52   24   50 1
    53   24   51 1
    54   24   52 1
    55   25   53 1
@<TRIPOS>MOLECULE
ZINC08860468
   65    64     0     0     0
SMALL
USER_CHARGES

@<TRIPOS>ATOM
      1 C1          1.4699    3.0103    1.6795 C.3       1 <0>        -0.1543
      2 C2          1.1470    1.5224    1.8304 C.3       1 <0>        -0.1260
      3 C3          2.2011    0.8593    2.7193 C.3       1 <0>        -0.1214
      4 C4          1.8782   -0.6286    2.8702 C.3       1 <0>        -0.1145
      5 C5          2.9323   -1.2916    3.7591 C.3       1 <0>        -0.1025
      6 C6          2.6142   -2.7572    3.9077 C.2       1 <0>        -0.1581
      7 C7          3.5316   -3.6560    3.6493 C.2       1 <0>        -0.1534
      8 C8          4.9477   -3.2268    3.3638 C.3       1 <0>        -0.0836
      9 C9          5.8898   -3.9597    4.2837 C.2       1 <0>        -0.1511
     10 C10         6.9144   -4.6095    3.7897 C.2       1 <0>        -0.1521
     11 C11         7.2468   -4.4906    2.3247 C.3       1 <0>        -0.0839
     12 C12         8.6877   -4.0777    2.1683 C.2       1 <0>        -0.1518
     13 C13         9.4920   -4.7809    1.4103 C.2       1 <0>        -0.1513
     14 C14         8.9417   -5.8950    0.5577 C.3       1 <0>        -0.0835
     15 C15         9.3779   -5.6965   -0.8711 C.2       1 <0>        -0.1524
     16 C16         9.9891   -6.6633   -1.5096 C.2       1 <0>        -0.1565
     17 C17        10.1105   -8.0256   -0.8767 C.3       1 <0>        -0.1019
     18 C18         9.5949   -9.0878   -1.8497 C.3       1 <0>        -0.0980
     19 C19         9.7182  -10.4708   -1.2070 C.3       1 <0>        -0.1414
     20 C20         9.2103  -11.5171   -2.1654 C.2       1 <0>         0.5114
     21 O1          8.7910  -11.1889   -3.2551 O.2       1 <0>        -0.5402
     22 N1          9.2220  -12.8175   -1.8115 N.am      1 <0>        -0.7255
     23 C21         8.7283  -13.8347   -2.7431 C.3       1 <0>         0.1422
     24 H1          8.9753  -13.5429   -3.7639 H         1 <0>         0.0983
     25 C22         7.2101  -13.9614   -2.6021 C.3       1 <0>        -0.1597
     26 C23         9.3842  -15.1797   -2.4243 C.3       1 <0>         0.0666
     27 O2          8.9668  -15.6182   -1.1299 O.3       1 <0>        -0.5706
     28 H2          2.4534    3.1242    1.2236 H         1 <0>         0.0534
     29 H3          0.7189    3.4826    1.0462 H         1 <0>         0.0535
     30 H4          1.4674    3.4840    2.6612 H         1 <0>         0.0534
     31 H5          0.1635    1.4084    2.2863 H         1 <0>         0.0605
     32 H6          1.1495    1.0487    0.8487 H         1 <0>         0.0606
     33 H7          3.1846    0.9733    2.2634 H         1 <0>         0.0610
     34 H8          2.1986    1.3330    3.7010 H         1 <0>         0.0613
     35 H9          0.8947   -0.7425    3.3261 H         1 <0>         0.0616
     36 H10         1.8807   -1.1023    1.8885 H         1 <0>         0.0620
     37 H11         3.9158   -1.1777    3.3032 H         1 <0>         0.0756
     38 H12         2.9298   -0.8179    4.7408 H         1 <0>         0.0688
     39 H13         1.6300   -3.0664    4.2272 H         1 <0>         0.1088
     40 H14         3.2730   -4.7045    3.6409 H         1 <0>         0.1085
     41 H15         5.1962   -3.4599    2.3284 H         1 <0>         0.0830
     42 H16         5.0419   -2.1533    3.5273 H         1 <0>         0.0840
     43 H17         5.7203   -3.9492    5.3503 H         1 <0>         0.1096
     44 H18         7.5209   -5.2304    4.4324 H         1 <0>         0.1098
     45 H19         7.0897   -5.4528    1.8372 H         1 <0>         0.0835
     46 H20         6.6022   -3.7411    1.8655 H         1 <0>         0.0834
     47 H21         9.0572   -3.2020    2.6812 H         1 <0>         0.1097
     48 H22        10.5496   -4.5623    1.3965 H         1 <0>         0.1098
     49 H23         9.3168   -6.8511    0.9226 H         1 <0>         0.0836
     50 H24         7.8529   -5.8882    0.6094 H         1 <0>         0.0830
     51 H25         9.1867   -4.7572   -1.3685 H         1 <0>         0.1092
     52 H26        10.4060   -6.4842   -2.4897 H         1 <0>         0.1103
     53 H27        11.1560   -8.2251   -0.6416 H         1 <0>         0.0704
     54 H28         9.5202   -8.0546    0.0392 H         1 <0>         0.0765
     55 H29         8.5494   -8.8883   -2.0848 H         1 <0>         0.0709
     56 H30        10.1852   -9.0588   -2.7655 H         1 <0>         0.0705
     57 H31        10.7637  -10.6704   -0.9719 H         1 <0>         0.0935
     58 H32         9.1279  -10.4999   -0.2912 H         1 <0>         0.0936
     59 H33         9.5574  -13.0800   -0.9400 H         1 <0>         0.4046
     60 H34         6.7429  -13.0032   -2.8293 H         1 <0>         0.0590
     61 H35         6.8428  -14.7182   -3.2953 H         1 <0>         0.0633
     62 H36         6.9631  -14.2532   -1.5814 H         1 <0>         0.0664
     63 H37         9.0857  -15.9156   -3.1709 H         1 <0>         0.0625
     64 H38        10.4683  -15.0675   -2.4378 H         1 <0>         0.0529
     65 H39         9.3448  -16.4667   -0.8612 H         1 <0>         0.3836
@<TRIPOS>BOND
     1    1    2 1
     2    1   28 1
     3    1   29 1
     4    1   30 1
     5    2    3 1
     6    2   31 1
     7    2   32 1
     8    3    4 1
     9    3   33 1
    10    3   34 1
    11    4    5 1
    12    4   35 1
    13    4   36 1
    14    5    6 1
    15    5   37 1
    16    5   38 1
    17    6    7 2
    18    6   39 1
    19    7    8 1
    20    7   40 1
    21    8    9 1
    22    8   41 1
    23    8   42 1
    24    9   10 2
    25    9   43 1
    26   10   11 1
    27   10   44 1
    28   11   12 1
    29   11   45 1
    30   11   46 1
    31   12   13 2
    32   12   47 1
    33   13   14 1
    34   13   48 1
    35   14   15 1
    36   14   49 1
    37   14   50 1
    38   15   16 2
    39   15   51 1
    40   16   17 1
    41   16   52 1
    42   17   18 1
    43   17   53 1
    44   17   54 1
    45   18   19 1
    46   18   55 1
    47   18   56 1
    48   19   20 1
    49   19   57 1
    50   19   58 1
    51   20   21 2
    52   20   22 am
    53   22   23 1
    54   22   59 1
    55   23   24 1
    56   23   25 1
    57   23   26 1
    58   25   60 1
    59   25   61 1
    60   25   62 1
    61   26   27 1
    62   26   63 1
    63   26   64 1
    64   27   65 1
@<TRIPOS>MOLECULE
ZINC04654969
   65    64     0     0     0
SMALL
USER_CHARGES

@<TRIPOS>ATOM
      1 C1          0.6453    3.0200   -2.1184 C.3       1 <0>        -0.1543
      2 C2          0.9747    1.5406   -1.9090 C.3       1 <0>        -0.1259
      3 C3          1.2342    0.8791   -3.2640 C.3       1 <0>        -0.1214
      4 C4          1.5635   -0.6003   -3.0546 C.3       1 <0>        -0.1145
      5 C5          1.8231   -1.2617   -4.4095 C.3       1 <0>        -0.1025
      6 C6          2.1475   -2.7189   -4.2033 C.2       1 <0>        -0.1581
      7 C7          1.4879   -3.6368   -4.8654 C.2       1 <0>        -0.1535
      8 C8          0.5222   -3.2356   -5.9506 C.3       1 <0>        -0.0836
      9 C9          0.8663   -3.9645   -7.2239 C.2       1 <0>        -0.1510
     10 C10        -0.0571   -4.6399   -7.8620 C.2       1 <0>        -0.1522
     11 C11        -1.4947   -4.5556   -7.4178 C.3       1 <0>        -0.0839
     12 C12        -2.3604   -4.1684   -8.5889 C.2       1 <0>        -0.1512
     13 C13        -3.4010   -4.8991   -8.9041 C.2       1 <0>        -0.1518
     14 C14        -3.8363   -6.0212   -7.9973 C.3       1 <0>        -0.0844
     15 C15        -5.2963   -5.8582   -7.6615 C.2       1 <0>        -0.1497
     16 C16        -6.1304   -6.8470   -7.8682 C.2       1 <0>        -0.1584
     17 C17        -5.6088   -8.1980   -8.2850 C.3       1 <0>        -0.1014
     18 C18        -6.1669   -9.2713   -7.3483 C.3       1 <0>        -0.1031
     19 C19        -5.6374  -10.6430   -7.7715 C.3       1 <0>        -0.1141
     20 C20        -6.1871  -11.7002   -6.8489 C.2       1 <0>         0.4571
     21 O1         -6.9265  -11.3885   -5.9455 O.2       1 <0>        -0.5110
     22 O2         -5.8553  -12.9881   -7.0307 O.3       1 <0>        -0.3285
     23 C21        -6.4129  -13.9366   -6.1189 C.3       1 <0>         0.0878
     24 C22        -6.5853  -15.2827   -6.8253 C.3       1 <0>         0.0835
     25 O3         -5.3019  -15.8045   -7.1758 O.3       1 <0>        -0.5357
     26 C23        -5.4752  -14.1053   -4.9217 C.3       1 <0>         0.0625
     27 O4         -4.2428  -14.6810   -5.3594 O.3       1 <0>        -0.5356
     28 H1          1.4846    3.5132   -2.6087 H         1 <0>         0.0534
     29 H2         -0.2437    3.1095   -2.7426 H         1 <0>         0.0534
     30 H3          0.4604    3.4912   -1.1531 H         1 <0>         0.0535
     31 H4          1.8637    1.4511   -1.2847 H         1 <0>         0.0606
     32 H5          0.1353    1.0474   -1.4187 H         1 <0>         0.0605
     33 H6          0.3451    0.9686   -3.8882 H         1 <0>         0.0610
     34 H7          2.0735    1.3723   -3.7542 H         1 <0>         0.0613
     35 H8          2.4526   -0.6897   -2.4303 H         1 <0>         0.0616
     36 H9          0.7242   -1.0935   -2.5643 H         1 <0>         0.0619
     37 H10         0.9340   -1.1722   -5.0338 H         1 <0>         0.0756
     38 H11         2.6624   -0.7685   -4.8998 H         1 <0>         0.0688
     39 H12         2.9237   -3.0063   -3.5096 H         1 <0>         0.1088
     40 H13         1.6361   -4.6812   -4.6336 H         1 <0>         0.1086
     41 H14        -0.4926   -3.4932   -5.6473 H         1 <0>         0.0828
     42 H15         0.5897   -2.1606   -6.1177 H         1 <0>         0.0840
     43 H16         1.8742   -3.9300   -7.6103 H         1 <0>         0.1097
     44 H17         0.2118   -5.2572   -8.7064 H         1 <0>         0.1101
     45 H18        -1.8140   -5.5248   -7.0346 H         1 <0>         0.0834
     46 H19        -1.5889   -3.8055   -6.6326 H         1 <0>         0.0833
     47 H20        -2.1230   -3.2885   -9.1684 H         1 <0>         0.1099
     48 H21        -3.9470   -4.6972   -9.8138 H         1 <0>         0.1101
     49 H22        -3.6838   -6.9756   -8.5013 H         1 <0>         0.0841
     50 H23        -3.2476   -5.9965   -7.0803 H         1 <0>         0.0834
     51 H24        -5.6550   -4.9261   -7.2504 H         1 <0>         0.1098
     52 H25        -7.1917   -6.6940   -7.7398 H         1 <0>         0.1109
     53 H26        -5.9227   -8.4090   -9.3073 H         1 <0>         0.0734
     54 H27        -4.5201   -8.1995   -8.2316 H         1 <0>         0.0790
     55 H28        -5.8530   -9.0603   -6.3260 H         1 <0>         0.0730
     56 H29        -7.2556   -9.2698   -7.4017 H         1 <0>         0.0731
     57 H30        -5.9513  -10.8540   -8.7938 H         1 <0>         0.1072
     58 H31        -4.5487  -10.6445   -7.7181 H         1 <0>         0.1074
     59 H32        -7.3834  -13.5809   -5.7729 H         1 <0>         0.1075
     60 H33        -7.0916  -15.9807   -6.1586 H         1 <0>         0.0635
     61 H34        -7.1806  -15.1457   -7.7280 H         1 <0>         0.0524
     62 H35        -5.3348  -16.6585   -7.6283 H         1 <0>         0.3714
     63 H36        -5.2818  -13.1316   -4.4716 H         1 <0>         0.0474
     64 H37        -5.9408  -14.7601   -4.1850 H         1 <0>         0.0587
     65 H38        -3.5987  -14.8170   -4.6510 H         1 <0>         0.3703
@<TRIPOS>BOND
     1    1    2 1
     2    1   28 1
     3    1   29 1
     4    1   30 1
     5    2    3 1
     6    2   31 1
     7    2   32 1
     8    3    4 1
     9    3   33 1
    10    3   34 1
    11    4    5 1
    12    4   35 1
    13    4   36 1
    14    5    6 1
    15    5   37 1
    16    5   38 1
    17    6    7 2
    18    6   39 1
    19    7    8 1
    20    7   40 1
    21    8    9 1
    22    8   41 1
    23    8   42 1
    24    9   10 2
    25    9   43 1
    26   10   11 1
    27   10   44 1
    28   11   12 1
    29   11   45 1
    30   11   46 1
    31   12   13 2
    32   12   47 1
    33   13   14 1
    34   13   48 1
    35   14   15 1
    36   14   49 1
    37   14   50 1
    38   15   16 2
    39   15   51 1
    40   16   17 1
    41   16   52 1
    42   17   18 1
    43   17   53 1
    44   17   54 1
    45   18   19 1
    46   18   55 1
    47   18   56 1
    48   19   20 1
    49   19   57 1
    50   19   58 1
    51   20   21 2
    52   20   22 1
    53   22   23 1
    54   23   24 1
    55   23   26 1
    56   23   59 1
    57   24   25 1
    58   24   60 1
    59   24   61 1
    60   25   62 1
    61   26   27 1
    62   26   63 1
    63   26   64 1
    64   27   65 1
@<TRIPOS>MOLECULE
ZINC33848576
   53    57     0     0     0
SMALL
USER_CHARGES

@<TRIPOS>ATOM
      1 C1          2.7182   -2.2000   -4.0738 C.ar      1 <0>        -0.1158
      2 C2          3.9146   -1.5080   -3.9011 C.ar      1 <0>        -0.1066
      3 C3          4.2599   -0.9987   -2.6847 C.ar      1 <0>        -0.1088
      4 C4          3.4009   -1.1725   -1.5929 C.ar      1 <0>        -0.0248
      5 C5          2.1832   -1.8754   -1.7651 C.ar      1 <0>        -0.0540
      6 C6          1.8599   -2.3872   -3.0337 C.ar      1 <0>        -0.1018
      7 C7          1.3237   -2.0472   -0.6672 C.ar      1 <0>        -0.0896
      8 C8          1.6503   -1.5453    0.5555 C.ar      1 <0>        -0.1192
      9 C9          2.8326   -0.8503    0.7697 C.ar      1 <0>        -0.0751
     10 C10         3.7294   -0.6437   -0.2710 C.ar      1 <0>        -0.1341
     11 C11         4.9865    0.0939   -0.0463 C.2       1 <0>         0.4748
     12 O1          4.9701    1.3065    0.0606 O.2       1 <0>        -0.4475
     13 C12         6.2581   -0.6342    0.0486 C.2       1 <0>        -0.2576
     14 C13         6.4263   -1.9897    0.0489 C.2       1 <0>         0.1379
     15 N1          7.7433   -2.2873    0.1511 N.pl3     1 <0>        -0.4633
     16 C14         8.4947   -1.1320    0.2223 C.ar      1 <0>         0.0855
     17 C15         7.6063   -0.0465    0.1560 C.ar      1 <0>        -0.0632
     18 C16         8.0921    1.2574    0.2009 C.ar      1 <0>        -0.0708
     19 C17         9.4485    1.4767    0.3073 C.ar      1 <0>        -0.1345
     20 C18        10.3277    0.4059    0.3696 C.ar      1 <0>        -0.0994
     21 C19         9.8596   -0.8900    0.3343 C.ar      1 <0>        -0.1214
     22 C20         8.2932   -3.6449    0.1823 C.3       1 <0>         0.1072
     23 C21         8.4859   -4.0839    1.6352 C.3       1 <0>         0.0386
     24 N2          9.0372   -5.4451    1.6665 N.3       1 <0>        -0.5335
     25 C22         8.0690   -6.4179    1.1396 C.3       1 <0>         0.0104
     26 C23         8.7045   -7.8108    1.1347 C.3       1 <0>         0.0632
     27 O2          9.1345   -8.1377    2.4589 O.3       1 <0>        -0.3836
     28 C24        10.0786   -7.2113    3.0028 C.3       1 <0>         0.0633
     29 C25         9.4571   -5.8124    3.0266 C.3       1 <0>         0.0187
     30 H1          2.4656   -2.5903   -5.0486 H         1 <0>         0.1259
     31 H2          4.5781   -1.3733   -4.7426 H         1 <0>         0.1256
     32 H3          5.1908   -0.4647   -2.5638 H         1 <0>         0.1255
     33 H4          0.9356   -2.9257   -3.1825 H         1 <0>         0.1303
     34 H5          0.3944   -2.5825   -0.7944 H         1 <0>         0.1301
     35 H6          0.9704   -1.6916    1.3817 H         1 <0>         0.1291
     36 H7          3.0571   -0.4666    1.7539 H         1 <0>         0.1291
     37 H8          5.6290   -2.7148   -0.0215 H         1 <0>         0.1760
     38 H9          7.4094    2.0928    0.1522 H         1 <0>         0.1313
     39 H10         9.8286    2.4870    0.3421 H         1 <0>         0.1266
     40 H11        11.3887    0.5891    0.4529 H         1 <0>         0.1281
     41 H12        10.5529   -1.7167    0.3819 H         1 <0>         0.1219
     42 H13         7.6041   -4.3275   -0.3152 H         1 <0>         0.0948
     43 H14         9.2540   -3.6596   -0.3322 H         1 <0>         0.1025
     44 H15         9.1749   -3.4013    2.1326 H         1 <0>         0.0863
     45 H16         7.5251   -4.0691    2.1497 H         1 <0>         0.0451
     46 H17         7.1805   -6.4254    1.7709 H         1 <0>         0.0473
     47 H18         7.7914   -6.1409    0.1226 H         1 <0>         0.0875
     48 H19         7.9714   -8.5441    0.7987 H         1 <0>         0.1007
     49 H20         9.5617   -7.8174    0.4616 H         1 <0>         0.0620
     50 H21        10.3394   -7.5111    4.0178 H         1 <0>         0.1014
     51 H22        10.9759   -7.2005    2.3840 H         1 <0>         0.0622
     52 H23        10.1928   -5.0934    3.3871 H         1 <0>         0.0894
     53 H24         8.5907   -5.8102    3.6881 H         1 <0>         0.0464
@<TRIPOS>BOND
     1    1    6 ar
     2    1    2 ar
     3    1   30 1
     4    2    3 ar
     5    2   31 1
     6    3    4 ar
     7    3   32 1
     8    4   10 ar
     9    4    5 ar
    10    5    6 ar
    11    5    7 ar
    12    6   33 1
    13    7    8 ar
    14    7   34 1
    15    8    9 ar
    16    8   35 1
    17    9   10 ar
    18    9   36 1
    19   10   11 1
    20   11   12 2
    21   11   13 1
    22   13   17 1
    23   13   14 2
    24   14   15 1
    25   14   37 1
    26   15   16 1
    27   15   22 1
    28   16   21 ar
    29   16   17 ar
    30   17   18 ar
    31   18   19 ar
    32   18   38 1
    33   19   20 ar
    34   19   39 1
    35   20   21 ar
    36   20   40 1
    37   21   41 1
    38   22   23 1
    39   22   42 1
    40   22   43 1
    41   23   24 1
    42   23   44 1
    43   23   45 1
    44   24   29 1
    45   24   25 1
    46   25   26 1
    47   25   46 1
    48   25   47 1
    49   26   27 1
    50   26   48 1
    51   26   49 1
    52   27   28 1
    53   28   29 1
    54   28   50 1
    55   28   51 1
    56   29   52 1
    57   29   53 1
@<TRIPOS>MOLECULE
ZINC30691168
   54    57     0     0     0
SMALL
USER_CHARGES

@<TRIPOS>ATOM
      1 C1         -0.0407    1.5177   -0.0007 C.3       1 <0>        -0.1040
      2 C2         -0.0085    0.0110    0.0001 C.2       1 <0>         0.1343
      3 C3          0.0071   -0.7753   -1.1165 C.2       1 <0>        -0.2466
      4 C4          0.0374   -2.1715   -0.6431 C.ar      1 <0>        -0.0685
      5 C5          0.0631   -3.4090   -1.2813 C.ar      1 <0>        -0.0756
      6 C6          0.0885   -4.5635   -0.5299 C.ar      1 <0>        -0.1356
      7 C7          0.0886   -4.4968    0.8559 C.ar      1 <0>        -0.0990
      8 C8          0.0633   -3.2791    1.5001 C.ar      1 <0>        -0.1235
      9 C9          0.0374   -2.1022    0.7590 C.ar      1 <0>         0.0951
     10 N1          0.0152   -0.7672    1.1079 N.pl3     1 <0>        -0.4676
     11 C10         0.0132   -0.2629    2.4834 C.3       1 <0>         0.1095
     12 C11        -1.4297   -0.1182    2.9714 C.3       1 <0>         0.0379
     13 N2         -1.4317    0.3875    4.3507 N.3       1 <0>        -0.5333
     14 C12        -0.8543   -0.5997    5.2745 C.3       1 <0>         0.0107
     15 C13        -0.8211   -0.0102    6.6871 C.3       1 <0>         0.0634
     16 O1         -2.1439    0.3783    7.0673 O.3       1 <0>        -0.3837
     17 C14        -2.7364    1.3394    6.1895 C.3       1 <0>         0.0635
     18 C15        -2.7890    0.7637    4.7719 C.3       1 <0>         0.0182
     19 C16        -0.0046   -0.3203   -2.5124 C.2       1 <0>         0.4835
     20 O2         -1.0579   -0.2370   -3.1165 O.2       1 <0>        -0.4486
     21 C17         1.2615    0.0361   -3.1832 C.ar      1 <0>        -0.2022
     22 C18         2.4813   -0.1708   -2.5332 C.ar      1 <0>        -0.0198
     23 C19         3.6598    0.1625   -3.1625 C.ar      1 <0>        -0.1673
     24 C20         3.6375    0.7041   -4.4426 C.ar      1 <0>         0.1613
     25 C21         2.4263    0.9119   -5.0924 C.ar      1 <0>        -0.2239
     26 C22         1.2436    0.5759   -4.4723 C.ar      1 <0>        -0.0189
     27 O3          4.8012    1.0313   -5.0594 O.3       1 <0>        -0.3125
     28 C23         4.7058    1.5834   -6.3740 C.3       1 <0>         0.0236
     29 H1          0.9790    1.9028   -0.0075 H         1 <0>         0.0868
     30 H2         -0.5678    1.8693   -0.8876 H         1 <0>         0.0859
     31 H3         -0.5565    1.8706    0.8923 H         1 <0>         0.0775
     32 H4          0.0627   -3.4634   -2.3599 H         1 <0>         0.1217
     33 H5          0.1082   -5.5248   -1.0218 H         1 <0>         0.1259
     34 H6          0.1083   -5.4081    1.4352 H         1 <0>         0.1272
     35 H7          0.0632   -3.2385    2.5794 H         1 <0>         0.1176
     36 H8          0.5462   -0.9623    3.1275 H         1 <0>         0.0913
     37 H9          0.5066    0.7085    2.5150 H         1 <0>         0.1024
     38 H10        -1.9627    0.5812    2.3273 H         1 <0>         0.0844
     39 H11        -1.9231   -1.0896    2.9398 H         1 <0>         0.0455
     40 H12        -1.4653   -1.5023    5.2711 H         1 <0>         0.0471
     41 H13         0.1597   -0.8446    4.9584 H         1 <0>         0.0874
     42 H14        -0.4469   -0.7590    7.3852 H         1 <0>         0.1004
     43 H15        -0.1671    0.8616    6.7024 H         1 <0>         0.0618
     44 H16        -3.7473    1.5668    6.5278 H         1 <0>         0.1010
     45 H17        -2.1381    2.2505    6.1903 H         1 <0>         0.0620
     46 H18        -3.1873    1.5140    4.0889 H         1 <0>         0.0890
     47 H19        -3.4309   -0.1172    4.7604 H         1 <0>         0.0463
     48 H20         2.4995   -0.5912   -1.5386 H         1 <0>         0.1371
     49 H21         4.6028    0.0033   -2.6608 H         1 <0>         0.1369
     50 H22         2.4131    1.3335   -6.0866 H         1 <0>         0.1352
     51 H23         0.3033    0.7335   -4.9795 H         1 <0>         0.1368
     52 H24         4.2157    0.8676   -7.0340 H         1 <0>         0.0594
     53 H25         4.1234    2.5041   -6.3400 H         1 <0>         0.0593
     54 H26         5.7055    1.7995   -6.7507 H         1 <0>         0.1039
@<TRIPOS>BOND
     1    1    2 1
     2    1   29 1
     3    1   30 1
     4    1   31 1
     5    2   10 1
     6    2    3 2
     7    3    4 1
     8    3   19 1
     9    4    9 ar
    10    4    5 ar
    11    5    6 ar
    12    5   32 1
    13    6    7 ar
    14    6   33 1
    15    7    8 ar
    16    7   34 1
    17    8    9 ar
    18    8   35 1
    19    9   10 1
    20   10   11 1
    21   11   12 1
    22   11   36 1
    23   11   37 1
    24   12   13 1
    25   12   38 1
    26   12   39 1
    27   13   18 1
    28   13   14 1
    29   14   15 1
    30   14   40 1
    31   14   41 1
    32   15   16 1
    33   15   42 1
    34   15   43 1
    35   16   17 1
    36   17   18 1
    37   17   44 1
    38   17   45 1
    39   18   46 1
    40   18   47 1
    41   19   20 2
    42   19   21 1
    43   21   26 ar
    44   21   22 ar
    45   22   23 ar
    46   22   48 1
    47   23   24 ar
    48   23   49 1
    49   24   25 ar
    50   24   27 1
    51   25   26 ar
    52   25   50 1
    53   26   51 1
    54   27   28 1
    55   28   52 1
    56   28   53 1
    57   28   54 1
@<TRIPOS>MOLECULE
ZINC04102443
   73    73     0     0     0
SMALL
USER_CHARGES

@<TRIPOS>ATOM
      1 C1          0.6453    3.0200   -2.1184 C.3       1 <0>        -0.1543
      2 C2          0.9747    1.5406   -1.9090 C.3       1 <0>        -0.1260
      3 C3          1.2342    0.8791   -3.2640 C.3       1 <0>        -0.1214
      4 C4          1.5635   -0.6003   -3.0546 C.3       1 <0>        -0.1145
      5 C5          1.8231   -1.2617   -4.4095 C.3       1 <0>        -0.1026
      6 C6          2.1475   -2.7189   -4.2033 C.2       1 <0>        -0.1579
      7 C7          1.4879   -3.6368   -4.8654 C.2       1 <0>        -0.1536
      8 C8          0.5222   -3.2356   -5.9506 C.3       1 <0>        -0.0837
      9 C9          0.8663   -3.9645   -7.2239 C.2       1 <0>        -0.1508
     10 C10        -0.0571   -4.6399   -7.8620 C.2       1 <0>        -0.1524
     11 C11        -1.4947   -4.5556   -7.4178 C.3       1 <0>        -0.0837
     12 C12        -2.3604   -4.1684   -8.5889 C.2       1 <0>        -0.1516
     13 C13        -3.4010   -4.8991   -8.9041 C.2       1 <0>        -0.1517
     14 C14        -3.8363   -6.0212   -7.9973 C.3       1 <0>        -0.0833
     15 C15        -5.2963   -5.8582   -7.6615 C.2       1 <0>        -0.1521
     16 C16        -6.1304   -6.8470   -7.8682 C.2       1 <0>        -0.1570
     17 C17        -5.6088   -8.1980   -8.2850 C.3       1 <0>        -0.1018
     18 C18        -6.1669   -9.2713   -7.3483 C.3       1 <0>        -0.0988
     19 C19        -5.6374  -10.6430   -7.7715 C.3       1 <0>        -0.1414
     20 C20        -6.1871  -11.7002   -6.8489 C.2       1 <0>         0.5113
     21 O1         -6.9293  -11.3874   -5.9421 O.2       1 <0>        -0.5370
     22 N1         -5.8539  -12.9933   -7.0314 N.am      1 <0>        -0.7358
     23 C21        -6.3883  -14.0210   -6.1345 C.3       1 <0>         0.1234
     24 C22        -5.8588  -15.3927   -6.5577 C.3       1 <0>        -0.0911
     25 C23        -6.4085  -16.4499   -5.6351 C.ar      1 <0>        -0.0758
     26 C24        -5.7188  -16.7886   -4.4857 C.ar      1 <0>        -0.1047
     27 C25        -6.2188  -17.7578   -3.6362 C.ar      1 <0>        -0.1272
     28 C26        -7.4141  -18.3917   -3.9355 C.ar      1 <0>         0.0801
     29 C27        -8.1085  -18.0504   -5.0921 C.ar      1 <0>         0.0834
     30 C28        -7.6041  -17.0747   -5.9369 C.ar      1 <0>        -0.1240
     31 O2         -9.2820  -18.6697   -5.3902 O.3       1 <0>        -0.4879
     32 O3         -7.9072  -19.3456   -3.1010 O.3       1 <0>        -0.4883
     33 H1          1.4846    3.5132   -2.6087 H         1 <0>         0.0534
     34 H2         -0.2437    3.1095   -2.7426 H         1 <0>         0.0534
     35 H3          0.4604    3.4912   -1.1531 H         1 <0>         0.0535
     36 H4          1.8637    1.4511   -1.2847 H         1 <0>         0.0605
     37 H5          0.1353    1.0474   -1.4187 H         1 <0>         0.0606
     38 H6          0.3451    0.9686   -3.8882 H         1 <0>         0.0610
     39 H7          2.0735    1.3723   -3.7542 H         1 <0>         0.0613
     40 H8          2.4526   -0.6897   -2.4303 H         1 <0>         0.0616
     41 H9          0.7242   -1.0935   -2.5643 H         1 <0>         0.0620
     42 H10         0.9340   -1.1722   -5.0338 H         1 <0>         0.0756
     43 H11         2.6624   -0.7685   -4.8998 H         1 <0>         0.0688
     44 H12         2.9237   -3.0063   -3.5096 H         1 <0>         0.1089
     45 H13         1.6361   -4.6812   -4.6336 H         1 <0>         0.1085
     46 H14        -0.4926   -3.4932   -5.6473 H         1 <0>         0.0829
     47 H15         0.5897   -2.1606   -6.1177 H         1 <0>         0.0841
     48 H16         1.8742   -3.9300   -7.6103 H         1 <0>         0.1097
     49 H17         0.2118   -5.2572   -8.7064 H         1 <0>         0.1098
     50 H18        -1.8140   -5.5248   -7.0346 H         1 <0>         0.0833
     51 H19        -1.5889   -3.8055   -6.6326 H         1 <0>         0.0834
     52 H20        -2.1230   -3.2885   -9.1684 H         1 <0>         0.1098
     53 H21        -3.9470   -4.6972   -9.8138 H         1 <0>         0.1098
     54 H22        -3.6838   -6.9756   -8.5013 H         1 <0>         0.0835
     55 H23        -3.2476   -5.9965   -7.0803 H         1 <0>         0.0830
     56 H24        -5.6550   -4.9261   -7.2504 H         1 <0>         0.1093
     57 H25        -7.1917   -6.6940   -7.7398 H         1 <0>         0.1103
     58 H26        -5.9227   -8.4090   -9.3073 H         1 <0>         0.0706
     59 H27        -4.5201   -8.1995   -8.2316 H         1 <0>         0.0766
     60 H28        -5.8530   -9.0603   -6.3260 H         1 <0>         0.0710
     61 H29        -7.2556   -9.2698   -7.4017 H         1 <0>         0.0707
     62 H30        -5.9513  -10.8540   -8.7938 H         1 <0>         0.0945
     63 H31        -4.5487  -10.6445   -7.7181 H         1 <0>         0.0941
     64 H32        -5.2603  -13.2435   -7.7566 H         1 <0>         0.4017
     65 H33        -6.0744  -13.8100   -5.1122 H         1 <0>         0.0703
     66 H34        -7.4770  -14.0195   -6.1879 H         1 <0>         0.0693
     67 H35        -6.1727  -15.6037   -7.5800 H         1 <0>         0.0826
     68 H36        -4.7701  -15.3942   -6.5043 H         1 <0>         0.0838
     69 H37        -4.7871  -16.2953   -4.2513 H         1 <0>         0.1315
     70 H38        -5.6778  -18.0211   -2.7393 H         1 <0>         0.1355
     71 H39        -8.1430  -16.8053   -6.8332 H         1 <0>         0.1341
     72 H40       -10.0626  -18.2284   -5.0284 H         1 <0>         0.3889
     73 H41        -8.4910  -19.0012   -2.4114 H         1 <0>         0.3888
@<TRIPOS>BOND
     1    1    2 1
     2    1   33 1
     3    1   34 1
     4    1   35 1
     5    2    3 1
     6    2   36 1
     7    2   37 1
     8    3    4 1
     9    3   38 1
    10    3   39 1
    11    4    5 1
    12    4   40 1
    13    4   41 1
    14    5    6 1
    15    5   42 1
    16    5   43 1
    17    6    7 2
    18    6   44 1
    19    7    8 1
    20    7   45 1
    21    8    9 1
    22    8   46 1
    23    8   47 1
    24    9   10 2
    25    9   48 1
    26   10   11 1
    27   10   49 1
    28   11   12 1
    29   11   50 1
    30   11   51 1
    31   12   13 2
    32   12   52 1
    33   13   14 1
    34   13   53 1
    35   14   15 1
    36   14   54 1
    37   14   55 1
    38   15   16 2
    39   15   56 1
    40   16   17 1
    41   16   57 1
    42   17   18 1
    43   17   58 1
    44   17   59 1
    45   18   19 1
    46   18   60 1
    47   18   61 1
    48   19   20 1
    49   19   62 1
    50   19   63 1
    51   20   21 2
    52   20   22 am
    53   22   23 1
    54   22   64 1
    55   23   24 1
    56   23   65 1
    57   23   66 1
    58   24   25 1
    59   24   67 1
    60   24   68 1
    61   25   30 ar
    62   25   26 ar
    63   26   27 ar
    64   26   69 1
    65   27   28 ar
    66   27   70 1
    67   28   29 ar
    68   28   32 1
    69   29   30 ar
    70   29   31 1
    71   30   71 1
    72   31   72 1
    73   32   73 1
@<TRIPOS>MOLECULE
ZINC03809850
   62    61     0     0     0
SMALL
USER_CHARGES

@<TRIPOS>ATOM
      1 C1         -2.2312    2.9666    0.4945 C.3       1 <0>        -0.1543
      2 C2         -2.1773    1.4868    0.1097 C.3       1 <0>        -0.1260
      3 C3         -3.4636    0.7944    0.5647 C.3       1 <0>        -0.1214
      4 C4         -3.4097   -0.6855    0.1800 C.3       1 <0>        -0.1146
      5 C5         -4.6960   -1.3779    0.6349 C.3       1 <0>        -0.1025
      6 C6         -4.6429   -2.8355    0.2560 C.2       1 <0>        -0.1582
      7 C7         -4.8635   -3.7561    1.1614 C.2       1 <0>        -0.1534
      8 C8         -5.3306   -3.3617    2.5389 C.3       1 <0>        -0.0837
      9 C9         -6.5867   -4.1212    2.8800 C.2       1 <0>        -0.1511
     10 C10        -6.6608   -4.7947    4.0011 C.2       1 <0>        -0.1520
     11 C11        -5.5599   -4.6791    5.0237 C.3       1 <0>        -0.0839
     12 C12        -6.1510   -4.3020    6.3577 C.2       1 <0>        -0.1519
     13 C13        -5.8856   -5.0225    7.4190 C.2       1 <0>        -0.1513
     14 C14        -4.8547   -6.1194    7.3465 C.3       1 <0>        -0.0836
     15 C15        -3.8385   -5.9270    8.4425 C.2       1 <0>        -0.1524
     16 C16        -3.5758   -6.9066    9.2716 C.2       1 <0>        -0.1566
     17 C17        -4.1634   -8.2737    9.0331 C.3       1 <0>        -0.1019
     18 C18        -3.0466   -9.3192    9.0518 C.3       1 <0>        -0.0985
     19 C19        -3.6432  -10.7071    8.8097 C.3       1 <0>        -0.1408
     20 C20        -2.5431  -11.7370    8.8281 C.2       1 <0>         0.5104
     21 O1         -1.3950  -11.3946    9.0165 O.2       1 <0>        -0.5404
     22 N1         -2.8352  -13.0385    8.6354 N.am      1 <0>        -0.7286
     23 C21        -1.7658  -14.0397    8.6533 C.3       1 <0>         0.1176
     24 C22        -2.3624  -15.4276    8.4112 C.3       1 <0>         0.0628
     25 O2         -2.9130  -15.4861    7.0938 O.3       1 <0>        -0.5722
     26 H1         -1.3148    3.4599    0.1703 H         1 <0>         0.0535
     27 H2         -3.0875    3.4368    0.0110 H         1 <0>         0.0534
     28 H3         -2.3296    3.0574    1.5762 H         1 <0>         0.0534
     29 H4         -2.0789    1.3959   -0.9720 H         1 <0>         0.0605
     30 H5         -1.3210    1.0166    0.5932 H         1 <0>         0.0606
     31 H6         -3.5620    0.8852    1.6464 H         1 <0>         0.0610
     32 H7         -4.3199    1.2645    0.0812 H         1 <0>         0.0613
     33 H8         -3.3113   -0.7763   -0.9018 H         1 <0>         0.0616
     34 H9         -2.5534   -1.1557    0.6635 H         1 <0>         0.0621
     35 H10        -4.7944   -1.2871    1.7167 H         1 <0>         0.0756
     36 H11        -5.5523   -0.9077    0.1514 H         1 <0>         0.0687
     37 H12        -4.4230   -3.1211   -0.7621 H         1 <0>         0.1088
     38 H13        -4.7107   -4.7978    0.9208 H         1 <0>         0.1086
     39 H14        -4.5545   -3.5973    3.2670 H         1 <0>         0.0830
     40 H15        -5.5360   -2.2914    2.5602 H         1 <0>         0.0840
     41 H16        -7.4259   -4.1101    2.2002 H         1 <0>         0.1096
     42 H17        -7.5108   -5.4329    4.1925 H         1 <0>         0.1098
     43 H18        -5.0443   -5.6354    5.1121 H         1 <0>         0.0835
     44 H19        -4.8518   -3.9121    4.7102 H         1 <0>         0.0834
     45 H20        -6.7935   -3.4376    6.4387 H         1 <0>         0.1097
     46 H21        -6.4054   -4.8305    8.3460 H         1 <0>         0.1098
     47 H22        -5.3434   -7.0860    7.4698 H         1 <0>         0.0837
     48 H23        -4.3556   -6.0855    6.3781 H         1 <0>         0.0830
     49 H24        -3.3267   -4.9814    8.5444 H         1 <0>         0.1092
     50 H25        -2.9381   -6.7345   10.1261 H         1 <0>         0.1103
     51 H26        -4.8864   -8.5002    9.8168 H         1 <0>         0.0705
     52 H27        -4.6612   -8.2911    8.0635 H         1 <0>         0.0766
     53 H28        -2.3236   -9.0927    8.2682 H         1 <0>         0.0711
     54 H29        -2.5488   -9.3018   10.0214 H         1 <0>         0.0706
     55 H30        -4.3661  -10.9337    9.5933 H         1 <0>         0.0937
     56 H31        -4.1409  -10.7245    7.8401 H         1 <0>         0.0940
     57 H32        -3.7534  -13.3124    8.4848 H         1 <0>         0.4035
     58 H33        -1.0428  -13.8132    7.8697 H         1 <0>         0.0752
     59 H34        -1.2680  -14.0223    9.6229 H         1 <0>         0.0823
     60 H35        -1.5816  -16.1814    8.5125 H         1 <0>         0.0647
     61 H36        -3.1482  -15.6179    9.1422 H         1 <0>         0.0540
     62 H37        -3.3095  -16.3394    6.8708 H         1 <0>         0.3841
@<TRIPOS>BOND
     1    1    2 1
     2    1   26 1
     3    1   27 1
     4    1   28 1
     5    2    3 1
     6    2   29 1
     7    2   30 1
     8    3    4 1
     9    3   31 1
    10    3   32 1
    11    4    5 1
    12    4   33 1
    13    4   34 1
    14    5    6 1
    15    5   35 1
    16    5   36 1
    17    6    7 2
    18    6   37 1
    19    7    8 1
    20    7   38 1
    21    8    9 1
    22    8   39 1
    23    8   40 1
    24    9   10 2
    25    9   41 1
    26   10   11 1
    27   10   42 1
    28   11   12 1
    29   11   43 1
    30   11   44 1
    31   12   13 2
    32   12   45 1
    33   13   14 1
    34   13   46 1
    35   14   15 1
    36   14   47 1
    37   14   48 1
    38   15   16 2
    39   15   49 1
    40   16   17 1
    41   16   50 1
    42   17   18 1
    43   17   51 1
    44   17   52 1
    45   18   19 1
    46   18   53 1
    47   18   54 1
    48   19   20 1
    49   19   55 1
    50   19   56 1
    51   20   21 2
    52   20   22 am
    53   22   23 1
    54   22   57 1
    55   23   24 1
    56   23   58 1
    57   23   59 1
    58   24   25 1
    59   24   60 1
    60   24   61 1
    61   25   62 1
@<TRIPOS>MOLECULE
ZINC13816329
   63    62     0     0     0
SMALL
USER_CHARGES

@<TRIPOS>ATOM
      1 C1         -2.2312    2.9666    0.4945 C.3       1 <0>        -0.1548
      2 C2         -2.1773    1.4868    0.1097 C.3       1 <0>        -0.1258
      3 C3         -3.4636    0.7944    0.5647 C.3       1 <0>        -0.1217
      4 C4         -3.4097   -0.6855    0.1800 C.3       1 <0>        -0.1143
      5 C5         -4.6960   -1.3779    0.6349 C.3       1 <0>        -0.1037
      6 C6         -4.6429   -2.8355    0.2560 C.2       1 <0>        -0.1531
      7 C7         -4.8635   -3.7561    1.1614 C.2       1 <0>        -0.1580
      8 C8         -5.3306   -3.3617    2.5389 C.3       1 <0>        -0.0841
      9 C9         -6.5867   -4.1212    2.8800 C.2       1 <0>        -0.1456
     10 C10        -6.6608   -4.7947    4.0011 C.2       1 <0>        -0.1578
     11 C11        -5.5599   -4.6791    5.0237 C.3       1 <0>        -0.0829
     12 C12        -6.1510   -4.3020    6.3577 C.2       1 <0>        -0.1453
     13 C13        -5.8856   -5.0225    7.4190 C.2       1 <0>        -0.1587
     14 C14        -4.8547   -6.1194    7.3465 C.3       1 <0>        -0.0825
     15 C15        -3.8385   -5.9270    8.4425 C.2       1 <0>        -0.1412
     16 C16        -3.5758   -6.9066    9.2716 C.2       1 <0>        -0.1679
     17 C17        -4.1634   -8.2737    9.0331 C.3       1 <0>        -0.0996
     18 C18        -3.0466   -9.3192    9.0518 C.3       1 <0>        -0.1075
     19 C19        -3.6432  -10.7071    8.8097 C.3       1 <0>        -0.1124
     20 C20        -2.5431  -11.7370    8.8281 C.2       1 <0>         0.4675
     21 O1         -1.3993  -11.3959    9.0157 O.2       1 <0>        -0.4819
     22 O2         -2.8340  -13.0332    8.6362 O.3       1 <0>        -0.3743
     23 C21        -1.7421  -13.9546    8.6665 C.3       1 <0>         0.0254
     24 C22        -2.2648  -15.3729    8.4302 C.3       1 <0>         0.0028
     25 N1         -2.8184  -15.4710    7.0730 N.4       1 <0>        -0.6384
     26 H1         -1.3148    3.4599    0.1703 H         1 <0>         0.0542
     27 H2         -3.0875    3.4368    0.0110 H         1 <0>         0.0540
     28 H3         -2.3296    3.0574    1.5762 H         1 <0>         0.0533
     29 H4         -2.0789    1.3959   -0.9720 H         1 <0>         0.0609
     30 H5         -1.3210    1.0166    0.5932 H         1 <0>         0.0601
     31 H6         -3.5620    0.8852    1.6464 H         1 <0>         0.0608
     32 H7         -4.3199    1.2645    0.0812 H         1 <0>         0.0620
     33 H8         -3.3113   -0.7763   -0.9018 H         1 <0>         0.0622
     34 H9         -2.5534   -1.1557    0.6635 H         1 <0>         0.0614
     35 H10        -4.7944   -1.2871    1.7167 H         1 <0>         0.0754
     36 H11        -5.5523   -0.9077    0.1514 H         1 <0>         0.0703
     37 H12        -4.4230   -3.1211   -0.7621 H         1 <0>         0.1095
     38 H13        -4.7107   -4.7978    0.9208 H         1 <0>         0.1074
     39 H14        -4.5545   -3.5973    3.2670 H         1 <0>         0.0818
     40 H15        -5.5360   -2.2914    2.5602 H         1 <0>         0.0856
     41 H16        -7.4259   -4.1101    2.2002 H         1 <0>         0.1108
     42 H17        -7.5108   -5.4329    4.1925 H         1 <0>         0.1094
     43 H18        -5.0443   -5.6354    5.1121 H         1 <0>         0.0807
     44 H19        -4.8518   -3.9121    4.7102 H         1 <0>         0.0848
     45 H20        -6.7935   -3.4376    6.4387 H         1 <0>         0.1119
     46 H21        -6.4054   -4.8305    8.3460 H         1 <0>         0.1108
     47 H22        -5.3434   -7.0860    7.4698 H         1 <0>         0.0809
     48 H23        -4.3556   -6.0855    6.3781 H         1 <0>         0.0840
     49 H24        -3.3267   -4.9814    8.5444 H         1 <0>         0.1124
     50 H25        -2.9381   -6.7345   10.1261 H         1 <0>         0.1122
     51 H26        -4.8864   -8.5002    9.8168 H         1 <0>         0.0741
     52 H27        -4.6612   -8.2911    8.0635 H         1 <0>         0.0796
     53 H28        -2.3236   -9.0927    8.2682 H         1 <0>         0.0755
     54 H29        -2.5488   -9.3018   10.0214 H         1 <0>         0.0762
     55 H30        -4.3661  -10.9337    9.5933 H         1 <0>         0.1136
     56 H31        -4.1409  -10.7245    7.8401 H         1 <0>         0.1107
     57 H32        -1.0268  -13.6961    7.8857 H         1 <0>         0.0939
     58 H33        -1.2520  -13.9052    9.6389 H         1 <0>         0.1155
     59 H34        -1.4469  -16.0848    8.5413 H         1 <0>         0.1550
     60 H35        -3.0444  -15.5988    9.1578 H         1 <0>         0.1463
     61 H36        -3.1631  -16.4064    6.9172 H         1 <0>         0.4414
     62 H37        -3.5755  -14.8120    6.9702 H         1 <0>         0.4408
     63 H38        -2.0967  -15.2619    6.3995 H         1 <0>         0.4358
@<TRIPOS>BOND
     1    1    2 1
     2    1   26 1
     3    1   27 1
     4    1   28 1
     5    2    3 1
     6    2   29 1
     7    2   30 1
     8    3    4 1
     9    3   31 1
    10    3   32 1
    11    4    5 1
    12    4   33 1
    13    4   34 1
    14    5    6 1
    15    5   35 1
    16    5   36 1
    17    6    7 2
    18    6   37 1
    19    7    8 1
    20    7   38 1
    21    8    9 1
    22    8   39 1
    23    8   40 1
    24    9   10 2
    25    9   41 1
    26   10   11 1
    27   10   42 1
    28   11   12 1
    29   11   43 1
    30   11   44 1
    31   12   13 2
    32   12   45 1
    33   13   14 1
    34   13   46 1
    35   14   15 1
    36   14   47 1
    37   14   48 1
    38   15   16 2
    39   15   49 1
    40   16   17 1
    41   16   50 1
    42   17   18 1
    43   17   51 1
    44   17   52 1
    45   18   19 1
    46   18   53 1
    47   18   54 1
    48   19   20 1
    49   19   55 1
    50   19   56 1
    51   20   21 2
    52   20   22 1
    53   22   23 1
    54   23   24 1
    55   23   57 1
    56   23   58 1
    57   24   25 1
    58   24   59 1
    59   24   60 1
    60   25   61 1
    61   25   62 1
    62   25   63 1
@<TRIPOS>MOLECULE
ZINC25783468
   58    63     0     0     0
SMALL
USER_CHARGES

@<TRIPOS>ATOM
      1 C1         -0.0374    1.5268   -0.0073 C.3       1 <0>        -0.1044
      2 C2         -0.0077    0.0201   -0.0011 C.2       1 <0>         0.1547
      3 C3          0.0066   -0.7741   -1.1268 C.2       1 <0>        -0.2554
      4 C4          0.0350   -2.1719   -0.6642 C.ar      1 <0>        -0.0233
      5 C5          0.0587   -3.4480   -1.2264 C.ar      1 <0>        -0.1048
      6 C6          0.0811   -4.5535   -0.3988 C.ar      1 <0>        -0.0978
      7 C7          0.0810   -4.4382    0.9903 C.ar      1 <0>        -0.1296
      8 C8          0.0586   -3.1921    1.5629 C.ar      1 <0>         0.1205
      9 C9          0.0360   -2.0798    0.7175 C.ar      1 <0>        -0.0026
     10 N1          0.0145   -0.7420    1.0985 N.pl3     1 <0>        -0.4650
     11 C10         0.0177   -0.4438    2.5386 C.3       1 <0>         0.1137
     12 H1         -0.6023    0.4308    2.7355 H         1 <0>         0.1113
     13 C11        -0.5557   -1.6636    3.2747 C.3       1 <0>         0.0655
     14 O1          0.0567   -2.8934    2.8886 O.3       1 <0>        -0.3019
     15 C12         1.4494   -0.1797    3.0092 C.3       1 <0>         0.0483
     16 N2          1.4330    0.2340    4.4187 N.3       1 <0>        -0.5319
     17 C13         0.7735    1.5383    4.5774 C.3       1 <0>         0.0086
     18 C14         0.7254    1.9023    6.0636 C.3       1 <0>         0.0640
     19 O2          2.0539    1.8993    6.5933 O.3       1 <0>        -0.3830
     20 C15         2.7255    0.6441    6.4561 C.3       1 <0>         0.0635
     21 C16         2.7939    0.2674    4.9738 C.3       1 <0>         0.0203
     22 C17        -0.0050   -0.3146   -2.5213 C.2       1 <0>         0.4865
     23 O3         -1.0583   -0.2315   -3.1261 O.2       1 <0>        -0.4401
     24 C18         1.2594    0.0462   -3.1892 C.ar      1 <0>        -0.1579
     25 C19         2.4789   -0.1528   -2.5542 C.ar      1 <0>        -0.0402
     26 C20         3.6674    0.1881   -3.1851 C.ar      1 <0>        -0.1396
     27 C21         3.6882    0.7244   -4.4362 C.ar      1 <0>        -0.0651
     28 C22         2.4927    0.9533   -5.1376 C.ar      1 <0>        -0.0674
     29 C23         1.2562    0.6149   -4.5351 C.ar      1 <0>        -0.0124
     30 C24         0.0629    0.8364   -5.2330 C.ar      1 <0>        -0.1198
     31 C25         0.1048    1.3695   -6.4869 C.ar      1 <0>        -0.1084
     32 C26         1.3194    1.6976   -7.0848 C.ar      1 <0>        -0.1179
     33 C27         2.4977    1.5071   -6.4296 C.ar      1 <0>        -0.1043
     34 H2          0.9829    1.9103   -0.0155 H         1 <0>         0.0860
     35 H3         -0.5640    1.8761   -0.8954 H         1 <0>         0.0890
     36 H4         -0.5525    1.8837    0.8845 H         1 <0>         0.0740
     37 H5          0.0591   -3.5706   -2.2994 H         1 <0>         0.1262
     38 H6          0.0990   -5.5383   -0.8419 H         1 <0>         0.1327
     39 H7          0.0979   -5.3223    1.6103 H         1 <0>         0.1377
     40 H8         -0.4207   -1.5222    4.3470 H         1 <0>         0.1380
     41 H9         -1.6228   -1.7318    3.0632 H         1 <0>         0.0655
     42 H10         2.0400   -1.0898    2.9045 H         1 <0>         0.0918
     43 H11         1.8909    0.6116    2.4034 H         1 <0>         0.0479
     44 H12         1.3351    2.2985    4.0344 H         1 <0>         0.0484
     45 H13        -0.2411    1.4834    4.1830 H         1 <0>         0.0852
     46 H14         0.2888    2.8940    6.1815 H         1 <0>         0.1007
     47 H15         0.1189    1.1710    6.5980 H         1 <0>         0.0624
     48 H16         3.7355    0.7260    6.8578 H         1 <0>         0.1018
     49 H17         2.1772   -0.1237    7.0019 H         1 <0>         0.0632
     50 H18         3.2541   -0.7151    4.8688 H         1 <0>         0.0909
     51 H19         3.3878    1.0073    4.4372 H         1 <0>         0.0468
     52 H20         2.5024   -0.5762   -1.5610 H         1 <0>         0.1312
     53 H21         4.6016    0.0237   -2.6688 H         1 <0>         0.1284
     54 H22         4.6333    0.9767   -4.8940 H         1 <0>         0.1308
     55 H23        -0.8854    0.5860   -4.7808 H         1 <0>         0.1584
     56 H24        -0.8164    1.5396   -7.0244 H         1 <0>         0.1255
     57 H25         1.3260    2.1188   -8.0792 H         1 <0>         0.1246
     58 H26         3.4318    1.7666   -6.9055 H         1 <0>         0.1291
@<TRIPOS>BOND
     1    1    2 1
     2    1   34 1
     3    1   35 1
     4    1   36 1
     5    2   10 1
     6    2    3 2
     7    3    4 1
     8    3   22 1
     9    4    9 ar
    10    4    5 ar
    11    5    6 ar
    12    5   37 1
    13    6    7 ar
    14    6   38 1
    15    7    8 ar
    16    7   39 1
    17    8   14 1
    18    8    9 ar
    19    9   10 1
    20   10   11 1
    21   11   12 1
    22   11   13 1
    23   11   15 1
    24   13   14 1
    25   13   40 1
    26   13   41 1
    27   15   16 1
    28   15   42 1
    29   15   43 1
    30   16   21 1
    31   16   17 1
    32   17   18 1
    33   17   44 1
    34   17   45 1
    35   18   19 1
    36   18   46 1
    37   18   47 1
    38   19   20 1
    39   20   21 1
    40   20   48 1
    41   20   49 1
    42   21   50 1
    43   21   51 1
    44   22   23 2
    45   22   24 1
    46   24   29 ar
    47   24   25 ar
    48   25   26 ar
    49   25   52 1
    50   26   27 ar
    51   26   53 1
    52   27   28 ar
    53   27   54 1
    54   28   33 ar
    55   28   29 ar
    56   29   30 ar
    57   30   31 ar
    58   30   55 1
    59   31   32 ar
    60   31   56 1
    61   32   33 ar
    62   32   57 1
    63   33   58 1
@<TRIPOS>MOLECULE
ZINC01721177
   53    55     0     0     0
SMALL
USER_CHARGES

@<TRIPOS>ATOM
      1 C1          0.3631    1.8859    1.0842 C.3       1 <0>        -0.1540
      2 C2          0.2555    0.3737    0.8780 C.3       1 <0>        -0.1261
      3 C3          1.0544   -0.3475    1.9655 C.3       1 <0>        -0.1205
      4 C4          0.9467   -1.8597    1.7593 C.3       1 <0>        -0.1143
      5 C5          1.7456   -2.5808    2.8468 C.3       1 <0>        -0.0803
      6 C6          1.6396   -4.0703    2.6437 C.ar      1 <0>        -0.0324
      7 C7          0.6149   -4.7774    3.2436 C.ar      1 <0>        -0.1789
      8 C8          0.5201   -6.1482    3.0577 C.ar      1 <0>         0.1452
      9 C9          1.4507   -6.8115    2.2696 C.ar      1 <0>        -0.1723
     10 C10         2.4757   -6.1014    1.6649 C.ar      1 <0>         0.1575
     11 C11         2.5625   -4.7256    1.8543 C.ar      1 <0>        -0.1590
     12 O1          3.3985   -6.7095    0.8754 O.3       1 <0>        -0.3052
     13 C12         3.4971   -8.1345    0.9079 C.3       1 <0>         0.1152
     14 C13         2.0675   -8.7055    0.7962 C.3       1 <0>        -0.1077
     15 H1          2.0828   -9.7890    0.6786 H         1 <0>         0.0952
     16 C14         1.3396   -8.2970    2.0822 C.3       1 <0>        -0.0342
     17 H2          1.8328   -8.7850    2.9228 H         1 <0>         0.0792
     18 C15        -0.1040   -8.7657    2.0563 C.3       1 <0>        -0.1137
     19 C16        -0.7522   -8.4619    0.7390 C.2       1 <0>        -0.1073
     20 C17        -0.0939   -8.1414   -0.3274 C.2       1 <0>        -0.1711
     21 C18         1.4030   -8.0263   -0.4075 C.3       1 <0>        -0.0819
     22 C19        -2.2550   -8.5335    0.6525 C.3       1 <0>        -0.1183
     23 C20         4.1324   -8.5807    2.2263 C.3       1 <0>        -0.1768
     24 C21         4.3442   -8.6229   -0.2689 C.3       1 <0>        -0.1402
     25 O2         -0.4862   -6.8442    3.6489 O.3       1 <0>        -0.4801
     26 H3          1.4091    2.1869    1.0266 H         1 <0>         0.0535
     27 H4         -0.2061    2.3997    0.3095 H         1 <0>         0.0535
     28 H5         -0.0371    2.1485    2.0635 H         1 <0>         0.0534
     29 H6         -0.7906    0.0727    0.9357 H         1 <0>         0.0607
     30 H7          0.6557    0.1111   -0.1013 H         1 <0>         0.0609
     31 H8          2.1004   -0.0465    1.9079 H         1 <0>         0.0624
     32 H9          0.6542   -0.0849    2.9448 H         1 <0>         0.0620
     33 H10        -0.0993   -2.1607    1.8170 H         1 <0>         0.0639
     34 H11         1.3469   -2.1222    0.7800 H         1 <0>         0.0643
     35 H12         2.7916   -2.2798    2.7891 H         1 <0>         0.0749
     36 H13         1.3454   -2.3183    3.8261 H         1 <0>         0.0747
     37 H14        -0.1106   -4.2632    3.8565 H         1 <0>         0.1280
     38 H15         3.3592   -4.1681    1.3845 H         1 <0>         0.1298
     39 H16        -0.1330   -9.8417    2.2285 H         1 <0>         0.0666
     40 H17        -0.6567   -8.2633    2.8502 H         1 <0>         0.1335
     41 H18        -0.6566   -7.9579   -1.2308 H         1 <0>         0.0978
     42 H19         1.6692   -6.9693   -0.4131 H         1 <0>         0.0782
     43 H20         1.7663   -8.4899   -1.3247 H         1 <0>         0.0714
     44 H21        -2.6795   -7.5583    0.8911 H         1 <0>         0.0648
     45 H22        -2.5476   -8.8197   -0.3578 H         1 <0>         0.0576
     46 H23        -2.6249   -9.2741    1.3615 H         1 <0>         0.0603
     47 H24         3.5157   -8.2432    3.0593 H         1 <0>         0.0655
     48 H25         4.2048   -9.6681    2.2450 H         1 <0>         0.0738
     49 H26         5.1292   -8.1486    2.3138 H         1 <0>         0.0675
     50 H27         5.3428   -8.1912   -0.2016 H         1 <0>         0.0680
     51 H28         4.4156   -9.7102   -0.2386 H         1 <0>         0.0787
     52 H29         3.8776   -8.3154   -1.2048 H         1 <0>         0.0689
     53 H30        -0.2993   -7.1085    4.5601 H         1 <0>         0.3875
@<TRIPOS>BOND
     1    1    2 1
     2    1   26 1
     3    1   27 1
     4    1   28 1
     5    2    3 1
     6    2   29 1
     7    2   30 1
     8    3    4 1
     9    3   31 1
    10    3   32 1
    11    4    5 1
    12    4   33 1
    13    4   34 1
    14    5    6 1
    15    5   35 1
    16    5   36 1
    17    6   11 ar
    18    6    7 ar
    19    7    8 ar
    20    7   37 1
    21    8    9 ar
    22    8   25 1
    23    9   16 1
    24    9   10 ar
    25   10   11 ar
    26   10   12 1
    27   11   38 1
    28   12   13 1
    29   13   14 1
    30   13   23 1
    31   13   24 1
    32   14   15 1
    33   14   21 1
    34   14   16 1
    35   16   17 1
    36   16   18 1
    37   18   19 1
    38   18   39 1
    39   18   40 1
    40   19   20 2
    41   19   22 1
    42   20   21 1
    43   20   41 1
    44   21   42 1
    45   21   43 1
    46   22   44 1
    47   22   45 1
    48   22   46 1
    49   23   47 1
    50   23   48 1
    51   23   49 1
    52   24   50 1
    53   24   51 1
    54   24   52 1
    55   25   53 1
@<TRIPOS>MOLECULE
ZINC01721178
   53    55     0     0     0
SMALL
USER_CHARGES

@<TRIPOS>ATOM
      1 C1         -0.0187    1.5258    0.0104 C.3       1 <0>        -0.1543
      2 C2          0.0021   -0.0041    0.0020 C.3       1 <0>        -0.1257
      3 C3          0.7421   -0.5109    1.2415 C.3       1 <0>        -0.1212
      4 C4          0.7628   -2.0407    1.2331 C.3       1 <0>        -0.1135
      5 C5          1.5028   -2.5476    2.4727 C.3       1 <0>        -0.0814
      6 C6          1.5232   -4.0544    2.4644 C.ar      1 <0>        -0.0312
      7 C7          0.4989   -4.7624    3.0640 C.ar      1 <0>        -0.1764
      8 C8          0.5179   -6.1484    3.0523 C.ar      1 <0>         0.1465
      9 C9          1.5640   -6.8286    2.4414 C.ar      1 <0>        -0.1865
     10 C10         2.5924   -6.1183    1.8460 C.ar      1 <0>         0.1582
     11 C11         2.5617   -4.7266    1.8533 C.ar      1 <0>        -0.1585
     12 O1          3.6444   -6.7384    1.2510 O.3       1 <0>        -0.3061
     13 C12         3.5246   -8.1275    0.9375 C.3       1 <0>         0.1192
     14 C13         2.9743   -8.8518    2.1676 C.3       1 <0>        -0.1101
     15 H1          3.6096   -8.6485    3.0296 H         1 <0>         0.0843
     16 C14         1.5548   -8.3320    2.4348 C.3       1 <0>        -0.0316
     17 H2          0.8841   -8.6880    1.6529 H         1 <0>         0.0827
     18 C15         1.0986   -8.8795    3.7877 C.3       1 <0>        -0.0760
     19 C16         1.3184  -10.3662    3.8253 C.2       1 <0>        -0.1194
     20 C17         2.0949  -11.0070    3.0106 C.2       1 <0>        -0.1704
     21 C18         2.9084  -10.3594    1.9182 C.3       1 <0>        -0.0784
     22 C19         0.5895  -11.1610    4.8779 C.3       1 <0>        -0.1221
     23 C20         4.8988   -8.6951    0.5766 C.3       1 <0>        -0.1413
     24 C21         2.5651   -8.3094   -0.2403 C.3       1 <0>        -0.1769
     25 O2         -0.4902   -6.8443    3.6408 O.3       1 <0>        -0.4900
     26 H3          1.0039    1.9031    0.0027 H         1 <0>         0.0537
     27 H4         -0.5459    1.8868   -0.8726 H         1 <0>         0.0535
     28 H5         -0.5289    1.8773    0.9072 H         1 <0>         0.0536
     29 H6         -1.0205   -0.3814    0.0098 H         1 <0>         0.0605
     30 H7          0.5123   -0.3556   -0.8948 H         1 <0>         0.0608
     31 H8          1.7647   -0.1336    1.2338 H         1 <0>         0.0627
     32 H9          0.2319   -0.1594    2.1383 H         1 <0>         0.0624
     33 H10        -0.2598   -2.4180    1.2409 H         1 <0>         0.0634
     34 H11         1.2730   -2.3923    0.3363 H         1 <0>         0.0643
     35 H12         2.5254   -2.1703    2.4649 H         1 <0>         0.0756
     36 H13         0.9926   -2.1961    3.3695 H         1 <0>         0.0756
     37 H14        -0.3149   -4.2366    3.5412 H         1 <0>         0.1290
     38 H15         3.3578   -4.1697    1.3816 H         1 <0>         0.1307
     39 H16         1.6738   -8.4067    4.5838 H         1 <0>         0.0718
     40 H17         0.0391   -8.6650    3.9280 H         1 <0>         0.1010
     41 H18         2.1807  -12.0769    3.1303 H         1 <0>         0.1036
     42 H19         2.4238  -10.5484    0.9603 H         1 <0>         0.0768
     43 H20         3.9182  -10.7695    1.9019 H         1 <0>         0.0792
     44 H21        -0.3743  -11.4855    4.4856 H         1 <0>         0.0658
     45 H22         1.1832  -12.0335    5.1504 H         1 <0>         0.0607
     46 H23         0.4323  -10.5389    5.7590 H         1 <0>         0.0630
     47 H24         5.5759   -8.5726    1.4220 H         1 <0>         0.0671
     48 H25         4.8031   -9.7544    0.3382 H         1 <0>         0.0812
     49 H26         5.2963   -8.1627   -0.2874 H         1 <0>         0.0684
     50 H27         2.9503   -7.7750   -1.1086 H         1 <0>         0.0675
     51 H28         2.4764   -9.3699   -0.4762 H         1 <0>         0.0759
     52 H29         1.5850   -7.9130    0.0249 H         1 <0>         0.0636
     53 H30        -1.2275   -7.0453    3.0484 H         1 <0>         0.3887
@<TRIPOS>BOND
     1    1    2 1
     2    1   26 1
     3    1   27 1
     4    1   28 1
     5    2    3 1
     6    2   29 1
     7    2   30 1
     8    3    4 1
     9    3   31 1
    10    3   32 1
    11    4    5 1
    12    4   33 1
    13    4   34 1
    14    5    6 1
    15    5   35 1
    16    5   36 1
    17    6   11 ar
    18    6    7 ar
    19    7    8 ar
    20    7   37 1
    21    8    9 ar
    22    8   25 1
    23    9   16 1
    24    9   10 ar
    25   10   11 ar
    26   10   12 1
    27   11   38 1
    28   12   13 1
    29   13   14 1
    30   13   23 1
    31   13   24 1
    32   14   15 1
    33   14   21 1
    34   14   16 1
    35   16   17 1
    36   16   18 1
    37   18   19 1
    38   18   39 1
    39   18   40 1
    40   19   20 2
    41   19   22 1
    42   20   21 1
    43   20   41 1
    44   21   42 1
    45   21   43 1
    46   22   44 1
    47   22   45 1
    48   22   46 1
    49   23   47 1
    50   23   48 1
    51   23   49 1
    52   24   50 1
    53   24   51 1
    54   24   52 1
    55   25   53 1
@<TRIPOS>MOLECULE
ZINC13737355
   65    64     0     0     0
SMALL
USER_CHARGES
(5Z,8Z,11Z,14Z)-N-[(2S)-2-hydroxypropyl]icosa-5,8,11,14-tetraenamide
@<TRIPOS>ATOM
      1 C1         13.9875   10.6498    8.9610 C.3       1 <0>        -0.1543
      2 C2         12.4986   10.6884    8.6111 C.3       1 <0>        -0.1259
      3 C3         11.7408    9.6966    9.4959 C.3       1 <0>        -0.1214
      4 C4         10.2519    9.7352    9.1459 C.3       1 <0>        -0.1145
      5 C5          9.4942    8.7433   10.0307 C.3       1 <0>        -0.1025
      6 C6          8.0276    8.7813    9.6860 C.2       1 <0>        -0.1581
      7 C7          7.3920    7.6711    9.4039 C.2       1 <0>        -0.1533
      8 C8          8.0804    6.3425    9.5827 C.3       1 <0>        -0.0837
      9 C9          7.2319    5.4499   10.4512 C.2       1 <0>        -0.1511
     10 C10         6.9056    4.2509   10.0366 C.2       1 <0>        -0.1521
     11 C11         7.5190    3.6963    8.7768 C.3       1 <0>        -0.0838
     12 C12         8.1312    2.3501    9.0665 C.2       1 <0>        -0.1518
     13 C13         7.7991    1.3101    8.3425 C.2       1 <0>        -0.1513
     14 C14         6.9351    1.4874    7.1206 C.3       1 <0>        -0.0835
     15 C15         7.6014    0.8371    5.9356 C.2       1 <0>        -0.1524
     16 C16         6.9479   -0.0429    5.2181 C.2       1 <0>        -0.1568
     17 C17         5.4825   -0.2846    5.4735 C.3       1 <0>        -0.1019
     18 C18         4.7076   -0.1538    4.1608 C.3       1 <0>        -0.0983
     19 C19         3.2199   -0.3992    4.4201 C.3       1 <0>        -0.1411
     20 C20         2.4566   -0.2704    3.1271 C.2       1 <0>         0.5105
     21 O1          3.0447   -0.0082    2.0993 O.2       1 <0>        -0.5402
     22 N1          1.1205   -0.4467    3.1128 N.am      1 <0>        -0.7295
     23 C21         0.3786   -0.3215    1.8558 C.3       1 <0>         0.0852
     24 C22        -1.1092   -0.5669    2.1151 C.3       1 <0>         0.0909
     25 H1         -1.2386   -1.5337    2.6017 H         1 <0>         0.1058
     26 C23        -1.8666   -0.5597    0.7857 C.3       1 <0>        -0.1846
     27 O2         -1.6218    0.4645    2.9610 O.3       1 <0>        -0.5611
     28 H2         14.5274   11.3565    8.3306 H         1 <0>         0.0535
     29 H3         14.1218   10.9209   10.0082 H         1 <0>         0.0534
     30 H4         14.3742    9.6446    8.7935 H         1 <0>         0.0534
     31 H5         12.3643   10.4173    7.5639 H         1 <0>         0.0606
     32 H6         12.1119   11.6937    8.7786 H         1 <0>         0.0605
     33 H7         11.8751    9.9677   10.5430 H         1 <0>         0.0613
     34 H8         12.1275    8.6913    9.3283 H         1 <0>         0.0610
     35 H9         10.1176    9.4641    8.0987 H         1 <0>         0.0620
     36 H10         9.8653   10.7404    9.3134 H         1 <0>         0.0616
     37 H11         9.6284    9.0144   11.0779 H         1 <0>         0.0688
     38 H12         9.8808    7.7380    9.8632 H         1 <0>         0.0756
     39 H13         7.5006    9.7239    9.6716 H         1 <0>         0.1088
     40 H14         6.3747    7.7080    9.0432 H         1 <0>         0.1085
     41 H15         9.0496    6.4964   10.0572 H         1 <0>         0.0838
     42 H16         8.2230    5.8733    8.6092 H         1 <0>         0.0828
     43 H17         6.8929    5.7988   11.4154 H         1 <0>         0.1096
     44 H18         6.1969    3.6598   10.5977 H         1 <0>         0.1098
     45 H19         8.2912    4.3771    8.4185 H         1 <0>         0.0833
     46 H20         6.7477    3.5882    8.0142 H         1 <0>         0.0835
     47 H21         8.8436    2.2427    9.8711 H         1 <0>         0.1098
     48 H22         8.1446    0.3255    8.6213 H         1 <0>         0.1098
     49 H23         6.7994    2.5507    6.9228 H         1 <0>         0.0831
     50 H24         5.9641    1.0228    7.2917 H         1 <0>         0.0839
     51 H25         8.6176    1.0964    5.6778 H         1 <0>         0.1093
     52 H26         7.4593   -0.5951    4.4436 H         1 <0>         0.1103
     53 H27         5.1123    0.4500    6.1887 H         1 <0>         0.0767
     54 H28         5.3448   -1.2872    5.8784 H         1 <0>         0.0707
     55 H29         5.0778   -0.8884    3.4456 H         1 <0>         0.0705
     56 H30         4.8453    0.8488    3.7559 H         1 <0>         0.0708
     57 H31         2.8497    0.3354    5.1352 H         1 <0>         0.0943
     58 H32         3.0822   -1.4019    4.8249 H         1 <0>         0.0943
     59 H33         0.6502   -0.6565    3.9347 H         1 <0>         0.4049
     60 H34         0.7487   -1.0561    1.1406 H         1 <0>         0.0768
     61 H35         0.5162    0.6811    1.4509 H         1 <0>         0.0705
     62 H36        -1.4756   -1.3464    0.1405 H         1 <0>         0.0706
     63 H37        -2.9265   -0.7345    0.9705 H         1 <0>         0.0712
     64 H38        -1.7372    0.4071    0.2991 H         1 <0>         0.0629
     65 H39        -1.5396    1.3540    2.5906 H         1 <0>         0.3786
@<TRIPOS>BOND
     1    1    2 1
     2    1   28 1
     3    1   29 1
     4    1   30 1
     5    2    3 1
     6    2   31 1
     7    2   32 1
     8    3    4 1
     9    3   33 1
    10    3   34 1
    11    4    5 1
    12    4   35 1
    13    4   36 1
    14    5    6 1
    15    5   37 1
    16    5   38 1
    17    6    7 2
    18    6   39 1
    19    7    8 1
    20    7   40 1
    21    8    9 1
    22    8   41 1
    23    8   42 1
    24    9   10 2
    25    9   43 1
    26   10   11 1
    27   10   44 1
    28   11   12 1
    29   11   45 1
    30   11   46 1
    31   12   13 2
    32   12   47 1
    33   13   14 1
    34   13   48 1
    35   14   15 1
    36   14   49 1
    37   14   50 1
    38   15   16 2
    39   15   51 1
    40   16   17 1
    41   16   52 1
    42   17   18 1
    43   17   53 1
    44   17   54 1
    45   18   19 1
    46   18   55 1
    47   18   56 1
    48   19   20 1
    49   19   57 1
    50   19   58 1
    51   20   21 2
    52   20   22 am
    53   22   23 1
    54   22   59 1
    55   23   24 1
    56   23   60 1
    57   23   61 1
    58   24   25 1
    59   24   26 1
    60   24   27 1
    61   26   62 1
    62   26   63 1
    63   26   64 1
    64   27   65 1
@<TRIPOS>MOLECULE
ZINC36294894
   52    54     0     0     0
SMALL
USER_CHARGES

@<TRIPOS>ATOM
      1 C1         -0.1097    1.4862   -0.0630 C.3       1 <0>        -0.1489
      2 C2         -0.0991   -0.0430   -0.1121 C.3       1 <0>        -0.0163
      3 C3          0.5101   -0.5906    1.1801 C.3       1 <0>        -0.1546
      4 C4         -1.5322   -0.5585   -0.2588 C.3       1 <0>        -0.1628
      5 C5          0.7228   -0.5021   -1.2889 C.2       1 <0>         0.2419
      6 C6          1.5141    0.3144   -2.1010 C.2       1 <0>        -0.2490
      7 C7          2.0935   -0.4740   -3.0477 C.2       1 <0>         0.4308
      8 N1          2.9589   -0.0518   -4.0554 N.am      1 <0>        -0.6375
      9 C8          3.2926    1.2502   -4.1554 C.2       1 <0>         0.5824
     10 O1          2.8386    2.0564   -3.3665 O.2       1 <0>        -0.4594
     11 C9          4.2094    1.6975   -5.2229 C.ar      1 <0>        -0.1900
     12 C10         4.7283    0.7753   -6.1345 C.ar      1 <0>        -0.0249
     13 C11         5.5834    1.1996   -7.1291 C.ar      1 <0>        -0.1299
     14 C12         5.9297    2.5366   -7.2269 C.ar      1 <0>         0.0033
     15 C13         5.4215    3.4569   -6.3297 C.ar      1 <0>        -0.2263
     16 C14         4.5579    3.0476   -5.3299 C.ar      1 <0>         0.2263
     17 F1          4.0572    3.9481   -4.4561 F         1 <0>        -0.0908
     18 C15         5.8048    4.9098   -6.4443 C.3       1 <0>         0.5139
     19 F2          6.6764    5.0783   -7.5256 F         1 <0>        -0.1659
     20 F3          4.6553    5.6808   -6.6474 F         1 <0>        -0.1659
     21 F4          6.4388    5.3192   -5.2663 F         1 <0>        -0.1659
     22 N2          1.6739   -1.7473   -2.8305 N.pl3     1 <0>        -0.3532
     23 N3          0.8206   -1.7336   -1.7196 N.pl3     1 <0>        -0.2744
     24 C16         0.1494   -2.8999   -1.1404 C.3       1 <0>         0.0507
     25 C17         2.0499   -2.9257   -3.6154 C.3       1 <0>         0.1344
     26 C18         1.0548   -3.1133   -4.7623 C.3       1 <0>        -0.2105
     27 C19         0.2053   -4.3858   -4.7595 C.3       1 <0>        -0.1680
     28 C20         1.3418   -4.2269   -5.7715 C.3       1 <0>        -0.1504
     29 H1          0.9113    1.8534    0.0415 H         1 <0>         0.0749
     30 H2         -0.5437    1.8763   -0.9836 H         1 <0>         0.0728
     31 H3         -0.7041    1.8183    0.7881 H         1 <0>         0.0864
     32 H4         -0.0114   -0.1640    2.0369 H         1 <0>         0.0930
     33 H5          0.4102   -1.6759    1.1975 H         1 <0>         0.0617
     34 H6          1.5654   -0.3221    1.2266 H         1 <0>         0.0724
     35 H7         -1.9662   -0.1683   -1.1794 H         1 <0>         0.0716
     36 H8         -1.5247   -1.6479   -0.2938 H         1 <0>         0.0631
     37 H9         -2.1267   -0.2264    0.5923 H         1 <0>         0.0920
     38 H10         1.6428    1.3817   -1.9966 H         1 <0>         0.2176
     39 H11         4.4605   -0.2683   -6.0601 H         1 <0>         0.1441
     40 H12         5.9848    0.4867   -7.8341 H         1 <0>         0.1602
     41 H13         6.6007    2.8620   -8.0081 H         1 <0>         0.1650
     42 H14        -0.8061   -3.0551   -1.6413 H         1 <0>         0.1158
     43 H15         0.7760   -3.7821   -1.2716 H         1 <0>         0.1119
     44 H16        -0.0211   -2.7301   -0.0773 H         1 <0>         0.1367
     45 H17         3.0515   -2.7866   -4.0225 H         1 <0>         0.1268
     46 H18         2.0372   -3.8078   -2.9753 H         1 <0>         0.1203
     47 H19         0.5930   -2.2003   -5.1381 H         1 <0>         0.1187
     48 H20         0.3554   -5.0893   -3.9405 H         1 <0>         0.1030
     49 H21        -0.8157   -4.3101   -5.1334 H         1 <0>         0.1077
     50 H22         1.0683   -4.0467   -6.8112 H         1 <0>         0.1121
     51 H23         2.2395   -4.8259   -5.6184 H         1 <0>         0.1078
     52 H24         3.3211   -0.6949   -4.6847 H         1 <0>         0.4251
@<TRIPOS>BOND
     1    1    2 1
     2    1   29 1
     3    1   30 1
     4    1   31 1
     5    2    3 1
     6    2    4 1
     7    2    5 1
     8    3   32 1
     9    3   33 1
    10    3   34 1
    11    4   35 1
    12    4   36 1
    13    4   37 1
    14    5   23 2
    15    5    6 1
    16    6    7 2
    17    6   38 1
    18    7    8 1
    19    7   22 1
    20    8    9 am
    21    8   52 1
    22    9   10 2
    23    9   11 1
    24   11   16 ar
    25   11   12 ar
    26   12   13 ar
    27   12   39 1
    28   13   14 ar
    29   13   40 1
    30   14   15 ar
    31   14   41 1
    32   15   16 ar
    33   15   18 1
    34   16   17 1
    35   18   19 1
    36   18   20 1
    37   18   21 1
    38   22   23 1
    39   22   25 1
    40   23   24 1
    41   24   42 1
    42   24   43 1
    43   24   44 1
    44   25   26 1
    45   25   45 1
    46   25   46 1
    47   26   28 1
    48   26   27 1
    49   26   47 1
    50   27   28 1
    51   27   48 1
    52   27   49 1
    53   28   50 1
    54   28   51 1
@<TRIPOS>MOLECULE
ZINC02572463
   66    68     0     0     0
SMALL
USER_CHARGES
1,1-dimethylheptyl-(hydroxymethyl)-dimethyl-BLAHol
@<TRIPOS>ATOM
      1 C1         -0.8004    1.6195   -6.2282 C.3       1 <0>        -0.1543
      2 C2         -0.0604    1.1126   -4.9886 C.3       1 <0>        -0.1260
      3 C3         -0.7766    1.6061   -3.7298 C.3       1 <0>        -0.1206
      4 C4         -0.0366    1.0992   -2.4903 C.3       1 <0>        -0.1208
      5 C5         -0.7527    1.5927   -1.2315 C.3       1 <0>        -0.1238
      6 C6         -0.0127    1.0858    0.0080 C.3       1 <0>        -0.1103
      7 C7         -0.7288    1.5792    1.2668 C.3       1 <0>        -0.0224
      8 C8         -0.7496    3.1091    1.2752 C.3       1 <0>        -0.1418
      9 C9         -2.1642    1.0497    1.2777 C.3       1 <0>        -0.1414
     10 C10         0.0000    1.0800    2.4877 C.ar      1 <0>        -0.0191
     11 C11         1.1298    0.2968    2.3455 C.ar      1 <0>        -0.1796
     12 C12         1.8026   -0.1556    3.4698 C.ar      1 <0>         0.1451
     13 C13         1.3397    0.1674    4.7393 C.ar      1 <0>        -0.1855
     14 C14         0.2030    0.9448    4.8806 C.ar      1 <0>         0.1586
     15 C15        -0.4642    1.4004    3.7469 C.ar      1 <0>        -0.1556
     16 O1         -0.2938    1.2780    6.1002 O.3       1 <0>        -0.3060
     17 C16         0.5445    1.1059    7.2447 C.3       1 <0>         0.1203
     18 C17         1.1751   -0.2861    7.1729 C.3       1 <0>        -0.1110
     19 H1          0.3935   -1.0402    7.0807 H         1 <0>         0.0845
     20 C18         2.0906   -0.3342    5.9415 C.3       1 <0>        -0.0271
     21 H2          2.9652    0.2930    6.1137 H         1 <0>         0.0876
     22 C19         2.5338   -1.7837    5.7394 C.3       1 <0>        -0.0824
     23 C20         3.0714   -2.3275    7.0337 C.2       1 <0>        -0.1399
     24 C21         2.8533   -1.7932    8.1931 C.2       1 <0>        -0.1347
     25 C22         2.0139   -0.5612    8.4219 C.3       1 <0>        -0.0831
     26 C23         3.9172   -3.5735    6.9786 C.3       1 <0>         0.1100
     27 O2          4.3291   -3.9284    8.3001 O.3       1 <0>        -0.5715
     28 C24         1.6434    2.1705    7.2439 C.3       1 <0>        -0.1783
     29 C25        -0.2921    1.2280    8.5199 C.3       1 <0>        -0.1413
     30 O3          2.9156   -0.9228    3.3298 O.3       1 <0>        -0.4932
     31 H3         -0.8152    2.7094   -6.2222 H         1 <0>         0.0533
     32 H4         -0.2902    1.2680   -7.1250 H         1 <0>         0.0532
     33 H5         -1.8230    1.2422   -6.2204 H         1 <0>         0.0532
     34 H6          0.9622    1.4899   -4.9964 H         1 <0>         0.0601
     35 H7         -0.0456    0.0228   -4.9946 H         1 <0>         0.0600
     36 H8         -1.7991    1.2288   -3.7221 H         1 <0>         0.0604
     37 H9         -0.7913    2.6960   -3.7239 H         1 <0>         0.0605
     38 H10         0.9860    1.4765   -2.4981 H         1 <0>         0.0604
     39 H11        -0.0218    0.0093   -2.4963 H         1 <0>         0.0601
     40 H12        -1.7753    1.2154   -1.2238 H         1 <0>         0.0655
     41 H13        -0.7675    2.6825   -1.2255 H         1 <0>         0.0656
     42 H14         0.0021   -0.0041    0.0020 H         1 <0>         0.0654
     43 H15         1.0099    1.4631    0.0003 H         1 <0>         0.0662
     44 H16        -1.2768    3.4701    0.3922 H         1 <0>         0.0641
     45 H17        -1.2598    3.4606    2.1720 H         1 <0>         0.0576
     46 H18         0.2730    3.4864    1.2675 H         1 <0>         0.0568
     47 H19        -2.1494   -0.0402    1.2717 H         1 <0>         0.0564
     48 H20        -2.6744    1.4012    2.1745 H         1 <0>         0.0577
     49 H21        -2.6914    1.4107    0.3946 H         1 <0>         0.0640
     50 H22         1.4900    0.0410    1.3600 H         1 <0>         0.1344
     51 H23        -1.3507    2.0080    3.8536 H         1 <0>         0.1305
     52 H24         1.6815   -2.3831    5.4195 H         1 <0>         0.0707
     53 H25         3.3122   -1.8229    4.9775 H         1 <0>         0.0975
     54 H26         3.2876   -2.2700    9.0594 H         1 <0>         0.1218
     55 H27         2.6753    0.2847    8.6089 H         1 <0>         0.0800
     56 H28         1.3547   -0.7035    9.2782 H         1 <0>         0.0817
     57 H29         3.3357   -4.3887    6.5480 H         1 <0>         0.0543
     58 H30         4.7964   -3.3888    6.3613 H         1 <0>         0.0557
     59 H31         4.8783   -4.7233    8.3408 H         1 <0>         0.3824
     60 H32         1.1896    3.1611    7.2741 H         1 <0>         0.0677
     61 H33         2.2804    2.0359    8.1181 H         1 <0>         0.0759
     62 H34         2.2430    2.0731    6.3389 H         1 <0>         0.0651
     63 H35        -1.0668    0.4613    8.5210 H         1 <0>         0.0669
     64 H36         0.3508    1.0962    9.3902 H         1 <0>         0.0813
     65 H37        -0.7562    2.2136    8.5569 H         1 <0>         0.0686
     66 H38         2.7366   -1.8723    3.2916 H         1 <0>         0.3888
@<TRIPOS>BOND
     1    1    2 1
     2    1   31 1
     3    1   32 1
     4    1   33 1
     5    2    3 1
     6    2   34 1
     7    2   35 1
     8    3    4 1
     9    3   36 1
    10    3   37 1
    11    4    5 1
    12    4   38 1
    13    4   39 1
    14    5    6 1
    15    5   40 1
    16    5   41 1
    17    6    7 1
    18    6   42 1
    19    6   43 1
    20    7    8 1
    21    7    9 1
    22    7   10 1
    23    8   44 1
    24    8   45 1
    25    8   46 1
    26    9   47 1
    27    9   48 1
    28    9   49 1
    29   10   15 ar
    30   10   11 ar
    31   11   12 ar
    32   11   50 1
    33   12   13 ar
    34   12   30 1
    35   13   20 1
    36   13   14 ar
    37   14   15 ar
    38   14   16 1
    39   15   51 1
    40   16   17 1
    41   17   18 1
    42   17   28 1
    43   17   29 1
    44   18   19 1
    45   18   25 1
    46   18   20 1
    47   20   21 1
    48   20   22 1
    49   22   23 1
    50   22   52 1
    51   22   53 1
    52   23   24 2
    53   23   26 1
    54   24   25 1
    55   24   54 1
    56   25   55 1
    57   25   56 1
    58   26   27 1
    59   26   57 1
    60   26   58 1
    61   27   59 1
    62   28   60 1
    63   28   61 1
    64   28   62 1
    65   29   63 1
    66   29   64 1
    67   29   65 1
    68   30   66 1
@<TRIPOS>MOLECULE
ZINC06203319
   66    68     0     0     0
SMALL
USER_CHARGES
1,1-dimethylheptyl-(hydroxymethyl)-dimethyl-BLAHol
@<TRIPOS>ATOM
      1 C1         -6.0800   10.7382    0.1607 C.3       1 <0>        -0.1543
      2 C2         -4.7223   10.0330    0.1410 C.3       1 <0>        -0.1260
      3 C3         -4.9346    8.5179    0.1279 C.3       1 <0>        -0.1207
      4 C4         -3.5769    7.8128    0.1082 C.3       1 <0>        -0.1206
      5 C5         -3.7893    6.2976    0.0951 C.3       1 <0>        -0.1238
      6 C6         -2.4316    5.5925    0.0754 C.3       1 <0>        -0.1098
      7 C7         -2.6440    4.0774    0.0623 C.3       1 <0>        -0.0219
      8 C8         -3.4407    3.6848   -1.1835 C.3       1 <0>        -0.1410
      9 C9         -3.4173    3.6600    1.3147 C.3       1 <0>        -0.1419
     10 C10        -1.3067    3.3829    0.0428 C.ar      1 <0>        -0.0206
     11 C11        -0.1425    4.1274    0.0393 C.ar      1 <0>        -0.1786
     12 C12         1.0871    3.4869    0.0187 C.ar      1 <0>         0.1437
     13 C13         1.1512    2.1003    0.0023 C.ar      1 <0>        -0.1749
     14 C14        -0.0163    1.3539    0.0095 C.ar      1 <0>         0.1572
     15 C15        -1.2464    2.0044    0.0306 C.ar      1 <0>        -0.1558
     16 O1          0.0021   -0.0041    0.0020 O.3       1 <0>        -0.3054
     17 C16         1.2258   -0.6728   -0.3086 C.3       1 <0>         0.1160
     18 C17         2.3465   -0.0071    0.5179 C.3       1 <0>        -0.1079
     19 H1          3.2828   -0.5583    0.4307 H         1 <0>         0.0954
     20 C18         2.4896    1.4201   -0.0242 C.3       1 <0>        -0.0325
     21 H2          2.8225    1.3603   -1.0604 H         1 <0>         0.0811
     22 C19         3.5286    2.1946    0.7668 C.3       1 <0>        -0.1119
     23 C20         3.3419    2.0055    2.2423 C.2       1 <0>        -0.1260
     24 C21         2.6132    1.0697    2.7588 C.2       1 <0>        -0.1403
     25 C22         1.8653    0.0426    1.9732 C.3       1 <0>        -0.0858
     26 C23         4.0419    2.9591    3.1760 C.3       1 <0>         0.1119
     27 O2          3.7377    2.6112    4.5282 O.3       1 <0>        -0.5720
     28 C24         1.1168   -2.1531    0.0627 C.3       1 <0>        -0.1404
     29 C25         1.5292   -0.5325   -1.8017 C.3       1 <0>        -0.1765
     30 O3          2.2324    4.2184    0.0141 O.3       1 <0>        -0.4810
     31 H3         -6.6476   10.4585   -0.7268 H         1 <0>         0.0532
     32 H4         -6.6309   10.4408    1.0530 H         1 <0>         0.0533
     33 H5         -5.9287   11.8176    0.1700 H         1 <0>         0.0532
     34 H6         -4.1547   10.3127    1.0285 H         1 <0>         0.0601
     35 H7         -4.1713   10.3304   -0.7513 H         1 <0>         0.0599
     36 H8         -5.5022    8.2382   -0.7596 H         1 <0>         0.0604
     37 H9         -5.4855    8.2205    1.0202 H         1 <0>         0.0605
     38 H10        -3.0093    8.0925    0.9957 H         1 <0>         0.0603
     39 H11        -3.0260    8.1102   -0.7841 H         1 <0>         0.0600
     40 H12        -4.3569    6.0180   -0.7924 H         1 <0>         0.0654
     41 H13        -4.3402    6.0003    0.9874 H         1 <0>         0.0656
     42 H14        -1.8640    5.8722    0.9629 H         1 <0>         0.0658
     43 H15        -1.8807    5.8899   -0.8169 H         1 <0>         0.0651
     44 H16        -3.5920    2.6054   -1.1928 H         1 <0>         0.0574
     45 H17        -4.4079    4.1871   -1.1694 H         1 <0>         0.0636
     46 H18        -2.8898    3.9822   -2.0758 H         1 <0>         0.0561
     47 H19        -2.8497    3.9396    2.2023 H         1 <0>         0.0568
     48 H20        -4.3845    4.1623    1.3288 H         1 <0>         0.0637
     49 H21        -3.5686    2.5805    1.3054 H         1 <0>         0.0575
     50 H22        -0.1902    5.2063    0.0522 H         1 <0>         0.1334
     51 H23        -2.1591    1.4270    0.0350 H         1 <0>         0.1292
     52 H24         4.5229    1.8478    0.4855 H         1 <0>         0.0660
     53 H25         3.4402    3.2549    0.5298 H         1 <0>         0.1337
     54 H26         2.5580    1.0107    3.8358 H         1 <0>         0.1150
     55 H27         0.8105    0.3166    1.9914 H         1 <0>         0.0796
     56 H28         1.9852   -0.9430    2.4229 H         1 <0>         0.0737
     57 H29         5.1186    2.8973    3.0183 H         1 <0>         0.0511
     58 H30         3.7034    3.9760    2.9775 H         1 <0>         0.0555
     59 H31         4.1557    3.1844    5.1853 H         1 <0>         0.3798
     60 H32         0.3034   -2.6101   -0.5009 H         1 <0>         0.0680
     61 H33         2.0529   -2.6576   -0.1765 H         1 <0>         0.0786
     62 H34         0.9164   -2.2461    1.1301 H         1 <0>         0.0691
     63 H35         1.6211    0.5235   -2.0560 H         1 <0>         0.0654
     64 H36         2.4634   -1.0444   -2.0323 H         1 <0>         0.0736
     65 H37         0.7191   -0.9764   -2.3803 H         1 <0>         0.0675
     66 H38         2.5539    4.4401   -0.8705 H         1 <0>         0.3876
@<TRIPOS>BOND
     1    1    2 1
     2    1   31 1
     3    1   32 1
     4    1   33 1
     5    2    3 1
     6    2   34 1
     7    2   35 1
     8    3    4 1
     9    3   36 1
    10    3   37 1
    11    4    5 1
    12    4   38 1
    13    4   39 1
    14    5    6 1
    15    5   40 1
    16    5   41 1
    17    6    7 1
    18    6   42 1
    19    6   43 1
    20    7    8 1
    21    7    9 1
    22    7   10 1
    23    8   44 1
    24    8   45 1
    25    8   46 1
    26    9   47 1
    27    9   48 1
    28    9   49 1
    29   10   15 ar
    30   10   11 ar
    31   11   12 ar
    32   11   50 1
    33   12   13 ar
    34   12   30 1
    35   13   20 1
    36   13   14 ar
    37   14   15 ar
    38   14   16 1
    39   15   51 1
    40   16   17 1
    41   17   18 1
    42   17   28 1
    43   17   29 1
    44   18   19 1
    45   18   25 1
    46   18   20 1
    47   20   21 1
    48   20   22 1
    49   22   23 1
    50   22   52 1
    51   22   53 1
    52   23   24 2
    53   23   26 1
    54   24   25 1
    55   24   54 1
    56   25   55 1
    57   25   56 1
    58   26   27 1
    59   26   57 1
    60   26   58 1
    61   27   59 1
    62   28   60 1
    63   28   61 1
    64   28   62 1
    65   29   63 1
    66   29   64 1
    67   29   65 1
    68   30   66 1
@<TRIPOS>MOLECULE
ZINC02575699
   49    52     0     0     0
SMALL
USER_CHARGES
1-(2,4-dichlorophenyl)-5-(4-iodophenyl)-4-methyl-N-morpholino-pyrazole-3-carboxamide
@<TRIPOS>ATOM
      1 C1          1.8250   -1.8002   -0.4527 C.3       1 <0>        -0.0854
      2 C2          1.3280   -0.4000   -0.2009 C.2       1 <0>        -0.1017
      3 C3          2.0678    0.7494   -0.1781 C.2       1 <0>         0.0459
      4 N1          1.2006    1.7715    0.0866 N.pl3     1 <0>        -0.2282
      5 N2          0.0089    1.3113    0.2211 N.2       1 <0>        -0.2338
      6 C4          0.0001    0.0017    0.0614 C.2       1 <0>        -0.0029
      7 C5         -1.1811   -0.8812    0.1417 C.2       1 <0>         0.6252
      8 O1         -1.0572   -2.0790   -0.0259 O.2       1 <0>        -0.4945
      9 N3         -2.3963   -0.3591    0.4008 N.am      1 <0>        -0.5720
     10 N4         -3.4888   -1.1758    0.4750 N.3       1 <0>        -0.2899
     11 C6         -4.4564   -0.8590   -0.5855 C.3       1 <0>        -0.0008
     12 C7         -5.6339   -1.8340   -0.5024 C.3       1 <0>         0.0676
     13 O2         -6.2164   -1.7600    0.8017 O.3       1 <0>        -0.3824
     14 C8         -5.3020   -2.0632    1.8587 C.3       1 <0>         0.0675
     15 C9         -4.1212   -1.0906    1.7995 C.3       1 <0>        -0.0004
     16 C10         1.5581    3.1214    0.1949 C.ar      1 <0>         0.1370
     17 C11         2.6289    3.4954    0.9963 C.ar      1 <0>        -0.0780
     18 C12         2.9830    4.8263    1.0969 C.ar      1 <0>        -0.0881
     19 C13         2.2649    5.7892    0.4090 C.ar      1 <0>        -0.0126
     20 C14         1.1940    5.4210   -0.3859 C.ar      1 <0>        -0.0912
     21 C15         0.8385    4.0897   -0.4949 C.ar      1 <0>        -0.0116
     22 Cl1        -0.5048    3.6278   -1.4928 Cl        1 <0>        -0.0234
     23 Cl2         2.7093    7.4620    0.5435 Cl        1 <0>        -0.0378
     24 C16         3.5264    0.8644   -0.3982 C.ar      1 <0>        -0.0093
     25 C17         4.4122    0.1076    0.3693 C.ar      1 <0>        -0.0877
     26 C18         5.7710    0.2145    0.1552 C.ar      1 <0>        -0.0802
     27 C19         6.2563    1.0795   -0.8102 C.ar      1 <0>        -0.0901
     28 C20         5.3826    1.8371   -1.5707 C.ar      1 <0>        -0.0792
     29 C21         4.0215    1.7342   -1.3701 C.ar      1 <0>        -0.0930
     30 I1          8.3215    1.2423   -1.1219 I         1 <0>        -0.0330
     31 H1          1.7837   -2.0138   -1.5208 H         1 <0>         0.0745
     32 H2          2.8539   -1.8888   -0.1040 H         1 <0>         0.0673
     33 H3          1.1968   -2.5108    0.0844 H         1 <0>         0.0894
     34 H4         -2.4952    0.5965    0.5345 H         1 <0>         0.3886
     35 H5         -4.8184    0.1608   -0.4552 H         1 <0>         0.0520
     36 H6         -3.9739   -0.9532   -1.5584 H         1 <0>         0.0941
     37 H7         -5.2801   -2.8485   -0.6859 H         1 <0>         0.0673
     38 H8         -6.3807   -1.5674   -1.2502 H         1 <0>         0.1061
     39 H9         -4.9386   -3.0844    1.7438 H         1 <0>         0.0672
     40 H10        -5.8083   -1.9630    2.8188 H         1 <0>         0.1064
     41 H11        -3.3940   -1.3538    2.5676 H         1 <0>         0.0949
     42 H12        -4.4778   -0.0745    1.9679 H         1 <0>         0.0525
     43 H13         3.1868    2.7454    1.5373 H         1 <0>         0.1510
     44 H14         3.8184    5.1168    1.7167 H         1 <0>         0.1551
     45 H15         0.6352    6.1743   -0.9213 H         1 <0>         0.1578
     46 H16         4.0349   -0.5641    1.1261 H         1 <0>         0.1393
     47 H17         6.4575   -0.3746    0.7451 H         1 <0>         0.1374
     48 H18         5.7672    2.5103   -2.3226 H         1 <0>         0.1350
     49 H19         3.3408    2.3261   -1.9639 H         1 <0>         0.1279
@<TRIPOS>BOND
     1    1    2 1
     2    1   31 1
     3    1   32 1
     4    1   33 1
     5    2    6 1
     6    2    3 2
     7    3    4 1
     8    3   24 1
     9    4    5 1
    10    4   16 1
    11    5    6 2
    12    6    7 1
    13    7    8 2
    14    7    9 am
    15    9   10 1
    16    9   34 1
    17   10   15 1
    18   10   11 1
    19   11   12 1
    20   11   35 1
    21   11   36 1
    22   12   13 1
    23   12   37 1
    24   12   38 1
    25   13   14 1
    26   14   15 1
    27   14   39 1
    28   14   40 1
    29   15   41 1
    30   15   42 1
    31   16   21 ar
    32   16   17 ar
    33   17   18 ar
    34   17   43 1
    35   18   19 ar
    36   18   44 1
    37   19   20 ar
    38   19   23 1
    39   20   21 ar
    40   20   45 1
    41   21   22 1
    42   24   29 ar
    43   24   25 ar
    44   25   26 ar
    45   25   46 1
    46   26   27 ar
    47   26   47 1
    48   27   28 ar
    49   27   30 1
    50   28   29 ar
    51   28   48 1
    52   29   49 1
@<TRIPOS>MOLECULE
ZINC13737354
   65    64     0     0     0
SMALL
USER_CHARGES
(5Z,8Z,11Z,14Z)-N-[(2R)-2-hydroxypropyl]icosa-5,8,11,14-tetraenamide
@<TRIPOS>ATOM
      1 C1         -8.6319   12.4294   -2.4791 C.3       1 <0>        -0.1543
      2 C2         -8.5211   11.0534   -3.1388 C.3       1 <0>        -0.1259
      3 C3         -9.0181    9.9807   -2.1676 C.3       1 <0>        -0.1214
      4 C4         -8.9073    8.6046   -2.8273 C.3       1 <0>        -0.1145
      5 C5         -9.4044    7.5320   -1.8561 C.3       1 <0>        -0.1025
      6 C6         -9.2952    6.1766   -2.5059 C.2       1 <0>        -0.1580
      7 C7         -8.6720    5.2030   -1.8895 C.2       1 <0>        -0.1533
      8 C8         -8.2086    5.3862   -0.4673 C.3       1 <0>        -0.0837
      9 C9         -8.7426    4.2630    0.3837 C.2       1 <0>        -0.1512
     10 C10        -7.9240    3.5517    1.1186 C.2       1 <0>        -0.1521
     11 C11        -6.4804    3.9631    1.2518 C.3       1 <0>        -0.0838
     12 C12        -6.1201    4.0663    2.7115 C.2       1 <0>        -0.1519
     13 C13        -5.0863    3.4113    3.1788 C.2       1 <0>        -0.1512
     14 C14        -4.1620    2.6885    2.2332 C.3       1 <0>        -0.0835
     15 C15        -2.7406    3.1147    2.4962 C.2       1 <0>        -0.1525
     16 C16        -1.8186    2.2132    2.7274 C.2       1 <0>        -0.1567
     17 C17        -2.1396    0.7493    2.5692 C.3       1 <0>        -0.1019
     18 C18        -1.1027    0.0960    1.6532 C.3       1 <0>        -0.0983
     19 C19        -1.4286   -1.3902    1.4926 C.3       1 <0>        -0.1410
     20 C20        -0.4073   -2.0338    0.5904 C.2       1 <0>         0.5105
     21 O1          0.4925   -1.3691    0.1220 O.2       1 <0>        -0.5403
     22 N1         -0.4940   -3.3479    0.3040 N.am      1 <0>        -0.7292
     23 C21         0.4988   -3.9735   -0.5730 C.3       1 <0>         0.0848
     24 C22         0.1729   -5.4597   -0.7337 C.3       1 <0>         0.0910
     25 H1         -0.8191   -5.5689   -1.1719 H         1 <0>         0.1059
     26 C23         1.2098   -6.1131   -1.6496 C.3       1 <0>        -0.1846
     27 O2          0.2008   -6.0945    0.5463 O.3       1 <0>        -0.5611
     28 H2         -8.2778   13.1936   -3.1710 H         1 <0>         0.0535
     29 H3         -9.6727   12.6263   -2.2220 H         1 <0>         0.0534
     30 H4         -8.0243   12.4486   -1.5744 H         1 <0>         0.0534
     31 H5         -7.4803   10.8565   -3.3959 H         1 <0>         0.0606
     32 H6         -9.1288   11.0341   -4.0435 H         1 <0>         0.0605
     33 H7        -10.0589   10.1775   -1.9105 H         1 <0>         0.0613
     34 H8         -8.4105    9.9999   -1.2629 H         1 <0>         0.0611
     35 H9         -7.8665    8.4078   -3.0844 H         1 <0>         0.0620
     36 H10        -9.5150    8.5854   -3.7320 H         1 <0>         0.0616
     37 H11       -10.4451    7.7288   -1.5990 H         1 <0>         0.0688
     38 H12        -8.7967    7.5512   -0.9514 H         1 <0>         0.0756
     39 H13        -9.7307    6.0079   -3.4797 H         1 <0>         0.1089
     40 H14        -8.4904    4.2691   -2.4006 H         1 <0>         0.1085
     41 H15        -8.5766    6.3383   -0.0850 H         1 <0>         0.0839
     42 H16        -7.1190    5.3790   -0.4364 H         1 <0>         0.0829
     43 H17        -9.8003    4.0444    0.3877 H         1 <0>         0.1096
     44 H18        -8.2837    2.6706    1.6290 H         1 <0>         0.1098
     45 H19        -6.3325    4.9305    0.7718 H         1 <0>         0.0833
     46 H20        -5.8447    3.2187    0.7724 H         1 <0>         0.0834
     47 H21        -6.7142    4.6801    3.3723 H         1 <0>         0.1098
     48 H22        -4.8965    3.3893    4.2418 H         1 <0>         0.1099
     49 H23        -4.4302    2.9326    1.2053 H         1 <0>         0.0830
     50 H24        -4.2532    1.6132    2.3869 H         1 <0>         0.0838
     51 H25        -2.4821    4.1633    2.4942 H         1 <0>         0.1093
     52 H26        -0.8285    2.5192    3.0314 H         1 <0>         0.1103
     53 H27        -3.1316    0.6402    2.1310 H         1 <0>         0.0766
     54 H28        -2.1184    0.2651    3.5455 H         1 <0>         0.0708
     55 H29        -0.1107    0.2051    2.0914 H         1 <0>         0.0705
     56 H30        -1.1239    0.5802    0.6769 H         1 <0>         0.0708
     57 H31        -1.4074   -1.8745    2.4689 H         1 <0>         0.0947
     58 H32        -2.4206   -1.4994    1.0543 H         1 <0>         0.0938
     59 H33        -1.2137   -3.8795    0.6786 H         1 <0>         0.4054
     60 H34         0.4776   -3.4893   -1.5493 H         1 <0>         0.0767
     61 H35         1.4909   -3.8643   -0.1348 H         1 <0>         0.0703
     62 H36         2.2018   -6.0039   -1.2114 H         1 <0>         0.0628
     63 H37         0.9776   -7.1719   -1.7641 H         1 <0>         0.0712
     64 H38         1.1886   -5.6289   -2.6259 H         1 <0>         0.0707
     65 H39         1.0551   -6.0367    0.9955 H         1 <0>         0.3786
@<TRIPOS>BOND
     1    1    2 1
     2    1   28 1
     3    1   29 1
     4    1   30 1
     5    2    3 1
     6    2   31 1
     7    2   32 1
     8    3    4 1
     9    3   33 1
    10    3   34 1
    11    4    5 1
    12    4   35 1
    13    4   36 1
    14    5    6 1
    15    5   37 1
    16    5   38 1
    17    6    7 2
    18    6   39 1
    19    7    8 1
    20    7   40 1
    21    8    9 1
    22    8   41 1
    23    8   42 1
    24    9   10 2
    25    9   43 1
    26   10   11 1
    27   10   44 1
    28   11   12 1
    29   11   45 1
    30   11   46 1
    31   12   13 2
    32   12   47 1
    33   13   14 1
    34   13   48 1
    35   14   15 1
    36   14   49 1
    37   14   50 1
    38   15   16 2
    39   15   51 1
    40   16   17 1
    41   16   52 1
    42   17   18 1
    43   17   53 1
    44   17   54 1
    45   18   19 1
    46   18   55 1
    47   18   56 1
    48   19   20 1
    49   19   57 1
    50   19   58 1
    51   20   21 2
    52   20   22 am
    53   22   23 1
    54   22   59 1
    55   23   24 1
    56   23   60 1
    57   23   61 1
    58   24   25 1
    59   24   26 1
    60   24   27 1
    61   26   62 1
    62   26   63 1
    63   26   64 1
    64   27   65 1
@<TRIPOS>MOLECULE
ZINC13737356
   65    64     0     0     0
SMALL
USER_CHARGES
(5Z,8Z,11Z,14Z)-N-[(1S)-2-hydroxy-1-methyl-ethyl]icosa-5,8,11,14-tetraenamide
@<TRIPOS>ATOM
      1 C1         -9.4694   -2.8708    8.9357 C.3       1 <0>        -0.1543
      2 C2         -9.3751   -3.2290    7.4512 C.3       1 <0>        -0.1260
      3 C3         -8.1110   -4.0551    7.2052 C.3       1 <0>        -0.1214
      4 C4         -8.0167   -4.4133    5.7207 C.3       1 <0>        -0.1145
      5 C5         -6.7526   -5.2394    5.4747 C.3       1 <0>        -0.1026
      6 C6         -6.6597   -5.5922    4.0125 C.2       1 <0>        -0.1580
      7 C7         -5.5641   -5.3304    3.3439 C.2       1 <0>        -0.1533
      8 C8         -4.3410   -4.8296    4.0679 C.3       1 <0>        -0.0837
      9 C9         -3.1634   -5.7078    3.7315 C.2       1 <0>        -0.1512
     10 C10        -2.0561   -5.1736    3.2791 C.2       1 <0>        -0.1520
     11 C11        -1.8950   -3.6754    3.2605 C.3       1 <0>        -0.0837
     12 C12        -0.6188   -3.2986    3.9680 C.2       1 <0>        -0.1522
     13 C13         0.2658   -2.5434    3.3653 C.2       1 <0>        -0.1511
     14 C14        -0.0603   -1.9167    2.0341 C.3       1 <0>        -0.0833
     15 C15         0.2026   -0.4342    2.0989 C.2       1 <0>        -0.1529
     16 C16         0.9800    0.1326    1.2099 C.2       1 <0>        -0.1562
     17 C17         1.4787   -0.6609    0.0297 C.3       1 <0>        -0.1020
     18 C18         1.1642    0.0951   -1.2627 C.3       1 <0>        -0.0981
     19 C19         1.6704   -0.7106   -2.4609 C.3       1 <0>        -0.1415
     20 C20         1.3607    0.0341   -3.7339 C.2       1 <0>         0.5114
     21 O1          0.7912    1.1038   -3.6875 O.2       1 <0>        -0.5401
     22 N1          1.7167   -0.4887   -4.9241 N.am      1 <0>        -0.7256
     23 C21         1.4156    0.2352   -6.1616 C.3       1 <0>         0.1422
     24 H1          0.4643    0.7566   -6.0553 H         1 <0>         0.0983
     25 C22         2.5253    1.2507   -6.4413 C.3       1 <0>        -0.1596
     26 C23         1.3267   -0.7562   -7.3236 C.3       1 <0>         0.0666
     27 O2          2.6064   -1.3550   -7.5377 O.3       1 <0>        -0.5706
     28 H2         -9.5117   -3.7848    9.5280 H         1 <0>         0.0534
     29 H3         -8.5937   -2.2901    9.2257 H         1 <0>         0.0534
     30 H4        -10.3699   -2.2823    9.1110 H         1 <0>         0.0535
     31 H5         -9.3328   -2.3150    6.8589 H         1 <0>         0.0606
     32 H6        -10.2508   -3.8097    7.1612 H         1 <0>         0.0605
     33 H7         -8.1533   -4.9691    7.7975 H         1 <0>         0.0613
     34 H8         -7.2353   -3.4744    7.4952 H         1 <0>         0.0611
     35 H9         -7.9744   -3.4993    5.1284 H         1 <0>         0.0620
     36 H10        -8.8924   -4.9940    5.4307 H         1 <0>         0.0616
     37 H11        -6.7949   -6.1534    6.0671 H         1 <0>         0.0688
     38 H12        -5.8769   -4.6587    5.7647 H         1 <0>         0.0757
     39 H13        -7.4964   -6.0609    3.5159 H         1 <0>         0.1088
     40 H14        -5.5374   -5.4734    2.2737 H         1 <0>         0.1084
     41 H15        -4.5187   -4.8564    5.1430 H         1 <0>         0.0838
     42 H16        -4.1302   -3.8055    3.7599 H         1 <0>         0.0829
     43 H17        -3.2323   -6.7775    3.8634 H         1 <0>         0.1096
     44 H18        -1.2586   -5.8070    2.9195 H         1 <0>         0.1097
     45 H19        -2.7417   -3.2126    3.7674 H         1 <0>         0.0833
     46 H20        -1.8547   -3.3271    2.2285 H         1 <0>         0.0834
     47 H21        -0.4335   -3.6512    4.9719 H         1 <0>         0.1097
     48 H22         1.2288   -2.3698    3.8224 H         1 <0>         0.1098
     49 H23        -1.1104   -2.0895    1.7987 H         1 <0>         0.0829
     50 H24         0.5638   -2.3629    1.2599 H         1 <0>         0.0838
     51 H25        -0.2498    0.1609    2.8784 H         1 <0>         0.1092
     52 H26         1.2636    1.1686    1.3226 H         1 <0>         0.1103
     53 H27         0.9858   -1.6330    0.0111 H         1 <0>         0.0764
     54 H28         2.5562   -0.8014    0.1155 H         1 <0>         0.0706
     55 H29         0.0867    0.2356   -1.3485 H         1 <0>         0.0708
     56 H30         1.6570    1.0671   -1.2442 H         1 <0>         0.0706
     57 H31         2.7479   -0.8511   -2.3751 H         1 <0>         0.0941
     58 H32         1.1776   -1.6826   -2.4795 H         1 <0>         0.0930
     59 H33         2.1722   -1.3443   -4.9612 H         1 <0>         0.4046
     60 H34         2.3012    1.7893   -7.3621 H         1 <0>         0.0633
     61 H35         2.5885    1.9569   -5.6135 H         1 <0>         0.0589
     62 H36         3.4765    0.7293   -6.5476 H         1 <0>         0.0664
     63 H37         0.5982   -1.5311   -7.0852 H         1 <0>         0.0529
     64 H38         1.0158   -0.2307   -8.2266 H         1 <0>         0.0625
     65 H39         2.6245   -1.9961   -8.2615 H         1 <0>         0.3836
@<TRIPOS>BOND
     1    1    2 1
     2    1   28 1
     3    1   29 1
     4    1   30 1
     5    2    3 1
     6    2   31 1
     7    2   32 1
     8    3    4 1
     9    3   33 1
    10    3   34 1
    11    4    5 1
    12    4   35 1
    13    4   36 1
    14    5    6 1
    15    5   37 1
    16    5   38 1
    17    6    7 2
    18    6   39 1
    19    7    8 1
    20    7   40 1
    21    8    9 1
    22    8   41 1
    23    8   42 1
    24    9   10 2
    25    9   43 1
    26   10   11 1
    27   10   44 1
    28   11   12 1
    29   11   45 1
    30   11   46 1
    31   12   13 2
    32   12   47 1
    33   13   14 1
    34   13   48 1
    35   14   15 1
    36   14   49 1
    37   14   50 1
    38   15   16 2
    39   15   51 1
    40   16   17 1
    41   16   52 1
    42   17   18 1
    43   17   53 1
    44   17   54 1
    45   18   19 1
    46   18   55 1
    47   18   56 1
    48   19   20 1
    49   19   57 1
    50   19   58 1
    51   20   21 2
    52   20   22 am
    53   22   23 1
    54   22   59 1
    55   23   24 1
    56   23   25 1
    57   23   26 1
    58   25   60 1
    59   25   61 1
    60   25   62 1
    61   26   27 1
    62   26   63 1
    63   26   64 1
    64   27   65 1
@<TRIPOS>MOLECULE
ZINC02568244
   67    68     0     0     0
SMALL
USER_CHARGES

@<TRIPOS>ATOM
      1 C1         -0.0187    1.5258    0.0104 C.3       1 <0>        -0.1543
      2 C2          0.0021   -0.0041    0.0020 C.3       1 <0>        -0.1261
      3 C3          0.7421   -0.5109    1.2415 C.3       1 <0>        -0.1206
      4 C4          0.7628   -2.0407    1.2331 C.3       1 <0>        -0.1209
      5 C5          1.5028   -2.5476    2.4727 C.3       1 <0>        -0.1238
      6 C6          1.5236   -4.0774    2.4642 C.3       1 <0>        -0.1105
      7 C7          2.2636   -4.5842    3.7038 C.3       1 <0>        -0.0238
      8 C8          3.6989   -4.0547    3.6929 C.3       1 <0>        -0.1411
      9 C9          1.5474   -4.0908    4.9626 C.3       1 <0>        -0.1411
     10 C10         2.2840   -6.0911    3.6955 C.ar      1 <0>        -0.0548
     11 C11         1.6895   -6.7844    2.6571 C.ar      1 <0>        -0.1266
     12 C12         1.7065   -8.1667    2.6466 C.ar      1 <0>        -0.0962
     13 C13         2.3175   -8.8590    3.6743 C.ar      1 <0>        -0.1001
     14 C14         2.9146   -8.1659    4.7171 C.ar      1 <0>         0.1097
     15 C15         2.9014   -6.7785    4.7222 C.ar      1 <0>        -0.1386
     16 O1          3.5162   -8.8447    5.7291 O.3       1 <0>        -0.4957
     17 C16         2.3349  -10.3659    3.6627 C.3       1 <0>        -0.0372
     18 H1          2.8571  -10.7300    4.5475 H         1 <0>         0.0871
     19 C17         3.0559  -10.8579    2.4062 C.3       1 <0>        -0.1028
     20 C18         3.0735  -12.3878    2.3944 C.3       1 <0>         0.1051
     21 H2          3.5958  -12.7520    3.2792 H         1 <0>         0.0544
     22 C19         1.6370  -12.9144    2.3973 C.3       1 <0>        -0.1526
     23 C20         0.9160  -12.4223    3.6539 C.3       1 <0>        -0.1149
     24 C21         0.8984  -10.8925    3.6656 C.3       1 <0>        -0.0749
     25 H3          0.3761  -10.5283    2.7809 H         1 <0>         0.0738
     26 C22         0.1773  -10.4004    4.9221 C.3       1 <0>        -0.1093
     27 C23        -1.2924  -10.8217    4.8647 C.3       1 <0>        -0.1205
     28 C24        -2.0135  -10.3296    6.1212 C.3       1 <0>         0.0744
     29 O2         -3.3862  -10.7231    6.0676 O.3       1 <0>        -0.5767
     30 O3          3.7470  -12.8474    1.2209 O.3       1 <0>        -0.5689
     31 H4          1.0039    1.9031    0.0027 H         1 <0>         0.0532
     32 H5         -0.5459    1.8868   -0.8726 H         1 <0>         0.0533
     33 H6         -0.5289    1.8773    0.9072 H         1 <0>         0.0532
     34 H7         -1.0205   -0.3814    0.0098 H         1 <0>         0.0601
     35 H8          0.5123   -0.3556   -0.8948 H         1 <0>         0.0602
     36 H9          1.7647   -0.1336    1.2338 H         1 <0>         0.0604
     37 H10         0.2319   -0.1594    2.1383 H         1 <0>         0.0603
     38 H11        -0.2598   -2.4180    1.2409 H         1 <0>         0.0603
     39 H12         1.2730   -2.3923    0.3363 H         1 <0>         0.0603
     40 H13         2.5254   -2.1703    2.4649 H         1 <0>         0.0651
     41 H14         0.9926   -2.1961    3.3695 H         1 <0>         0.0651
     42 H15         0.5010   -4.4547    2.4720 H         1 <0>         0.0656
     43 H16         2.0337   -4.4289    1.5675 H         1 <0>         0.0657
     44 H17         3.6842   -2.9648    3.6989 H         1 <0>         0.0632
     45 H18         4.2261   -4.4157    4.5760 H         1 <0>         0.0552
     46 H19         4.2091   -4.4062    2.7961 H         1 <0>         0.0563
     47 H20         0.5248   -4.4681    4.9703 H         1 <0>         0.0561
     48 H21         2.0746   -4.4519    5.8456 H         1 <0>         0.0556
     49 H22         1.5326   -3.0009    4.9686 H         1 <0>         0.0631
     50 H23         1.2107   -6.2450    1.8531 H         1 <0>         0.1280
     51 H24         1.2415   -8.7058    1.8345 H         1 <0>         0.1238
     52 H25         3.3697   -6.2365    5.5305 H         1 <0>         0.1255
     53 H26         4.4533   -9.0285    5.5768 H         1 <0>         0.3879
     54 H27         2.5337  -10.4938    1.5215 H         1 <0>         0.0717
     55 H28         4.0793  -10.4828    2.4042 H         1 <0>         0.0687
     56 H29         1.1148  -12.5502    1.5126 H         1 <0>         0.0710
     57 H30         1.6496  -14.0043    2.3890 H         1 <0>         0.0651
     58 H31        -0.1074  -12.7975    3.6559 H         1 <0>         0.0715
     59 H32         1.4382  -12.7865    4.5386 H         1 <0>         0.0650
     60 H33         0.6461  -10.8364    5.8043 H         1 <0>         0.0648
     61 H34         0.2419   -9.3136    4.9760 H         1 <0>         0.0669
     62 H35        -1.7612  -10.3856    3.9825 H         1 <0>         0.0675
     63 H36        -1.3570  -11.9084    4.8108 H         1 <0>         0.0707
     64 H37        -1.5447  -10.7656    7.0034 H         1 <0>         0.0443
     65 H38        -1.9489   -9.2428    6.1751 H         1 <0>         0.0438
     66 H39        -3.9056  -10.4440    6.8341 H         1 <0>         0.3799
     67 H40         3.7960  -13.8103    1.1472 H         1 <0>         0.3786
@<TRIPOS>BOND
     1    1    2 1
     2    1   31 1
     3    1   32 1
     4    1   33 1
     5    2    3 1
     6    2   34 1
     7    2   35 1
     8    3    4 1
     9    3   36 1
    10    3   37 1
    11    4    5 1
    12    4   38 1
    13    4   39 1
    14    5    6 1
    15    5   40 1
    16    5   41 1
    17    6    7 1
    18    6   42 1
    19    6   43 1
    20    7    8 1
    21    7    9 1
    22    7   10 1
    23    8   44 1
    24    8   45 1
    25    8   46 1
    26    9   47 1
    27    9   48 1
    28    9   49 1
    29   10   15 ar
    30   10   11 ar
    31   11   12 ar
    32   11   50 1
    33   12   13 ar
    34   12   51 1
    35   13   14 ar
    36   13   17 1
    37   14   15 ar
    38   14   16 1
    39   15   52 1
    40   16   53 1
    41   17   18 1
    42   17   24 1
    43   17   19 1
    44   19   20 1
    45   19   54 1
    46   19   55 1
    47   20   21 1
    48   20   22 1
    49   20   30 1
    50   22   23 1
    51   22   56 1
    52   22   57 1
    53   23   24 1
    54   23   58 1
    55   23   59 1
    56   24   25 1
    57   24   26 1
    58   26   27 1
    59   26   60 1
    60   26   61 1
    61   27   28 1
    62   27   62 1
    63   27   63 1
    64   28   29 1
    65   28   64 1
    66   28   65 1
    67   29   66 1
    68   30   67 1
@<TRIPOS>MOLECULE
ZINC13650623
   68    70     0     0     0
SMALL
USER_CHARGES
(6aR,9R,10aR)-3-(1,1-dimethylheptyl)-9-(hydroxymethyl)-6,6-dimethyl-6a,7,8,9,10,10a-hexahydrobenzo[c]isochromen-1-ol
@<TRIPOS>ATOM
      1 C1         -5.7125   -9.5075   -1.3787 C.3       1 <0>        -0.1543
      2 C2         -4.4057   -8.7758   -1.0659 C.3       1 <0>        -0.1260
      3 C3         -4.6419   -7.2651   -1.1187 C.3       1 <0>        -0.1206
      4 C4         -3.3351   -6.5334   -0.8060 C.3       1 <0>        -0.1207
      5 C5         -3.5712   -5.0226   -0.8588 C.3       1 <0>        -0.1239
      6 C6         -2.2644   -4.2909   -0.5460 C.3       1 <0>        -0.1100
      7 C7         -2.5006   -2.7802   -0.5988 C.3       1 <0>        -0.0224
      8 C8         -3.5614   -2.3934    0.4337 C.3       1 <0>        -0.1418
      9 C9         -2.9828   -2.3879   -1.9969 C.3       1 <0>        -0.1412
     10 C10        -1.2135   -2.0595   -0.2908 C.ar      1 <0>        -0.0197
     11 C11        -0.0664   -2.7811   -0.0198 C.ar      1 <0>        -0.1801
     12 C12         1.1176   -2.1157    0.2593 C.ar      1 <0>         0.1452
     13 C13         1.1537   -0.7281    0.2669 C.ar      1 <0>        -0.1856
     14 C14         0.0021   -0.0041    0.0020 C.ar      1 <0>         0.1586
     15 C15        -1.1818   -0.6803   -0.2801 C.ar      1 <0>        -0.1567
     16 O1         -0.0163    1.3540    0.0095 O.3       1 <0>        -0.3081
     17 C16         1.2268    2.0612    0.0014 C.3       1 <0>         0.1208
     18 C17         2.1511    1.4035    1.0250 C.3       1 <0>        -0.1105
     19 H1          1.6486    1.3672    1.9916 H         1 <0>         0.0811
     20 C18         2.4483   -0.0224    0.5519 C.3       1 <0>        -0.0317
     21 H2          3.0377    0.0228   -0.3639 H         1 <0>         0.0800
     22 C19         3.2666   -0.7384    1.6223 C.3       1 <0>        -0.1159
     23 C20         4.5914    0.0098    1.8080 C.3       1 <0>        -0.0865
     24 H3          5.1470   -0.0013    0.8703 H         1 <0>         0.0748
     25 C21         4.3269    1.4570    2.2226 C.3       1 <0>        -0.1107
     26 C22         3.4681    2.1615    1.1662 C.3       1 <0>        -0.1105
     27 C23         5.4151   -0.6859    2.8936 C.3       1 <0>         0.0799
     28 O2          6.7037   -0.0742    2.9792 O.3       1 <0>        -0.5744
     29 C24         1.8574    1.9827   -1.3904 C.3       1 <0>        -0.1753
     30 C25         0.9918    3.5244    0.3819 C.3       1 <0>        -0.1413
     31 O3          2.2461   -2.8243    0.5264 O.3       1 <0>        -0.4879
     32 H4         -6.4682   -9.2320   -0.6431 H         1 <0>         0.0533
     33 H5         -6.0560   -9.2280   -2.3747 H         1 <0>         0.0532
     34 H6         -5.5443  -10.5838   -1.3411 H         1 <0>         0.0532
     35 H7         -3.6500   -9.0513   -1.8015 H         1 <0>         0.0600
     36 H8         -4.0622   -9.0553   -0.0700 H         1 <0>         0.0601
     37 H9         -5.3976   -6.9895   -0.3832 H         1 <0>         0.0605
     38 H10        -4.9854   -6.9856   -2.1147 H         1 <0>         0.0604
     39 H11        -2.5794   -6.8089   -1.5416 H         1 <0>         0.0600
     40 H12        -2.9916   -6.8128    0.1900 H         1 <0>         0.0603
     41 H13        -4.3270   -4.7471   -0.1232 H         1 <0>         0.0656
     42 H14        -3.9147   -4.7431   -1.8548 H         1 <0>         0.0654
     43 H15        -1.5087   -4.5664   -1.2816 H         1 <0>         0.0653
     44 H16        -1.9209   -4.5704    0.4500 H         1 <0>         0.0660
     45 H17        -3.7296   -1.3171    0.3961 H         1 <0>         0.0576
     46 H18        -4.4924   -2.9147    0.2109 H         1 <0>         0.0639
     47 H19        -3.2179   -2.6729    1.4297 H         1 <0>         0.0567
     48 H20        -2.2271   -2.6634   -2.7324 H         1 <0>         0.0562
     49 H21        -3.9138   -2.9092   -2.2197 H         1 <0>         0.0639
     50 H22        -3.1510   -1.3116   -2.0345 H         1 <0>         0.0575
     51 H23        -0.0922   -3.8608   -0.0251 H         1 <0>         0.1340
     52 H24        -2.0813   -0.1214   -0.4923 H         1 <0>         0.1296
     53 H25         2.7146   -0.7438    2.5622 H         1 <0>         0.0607
     54 H26         3.4659   -1.7624    1.3064 H         1 <0>         0.1049
     55 H27         5.2763    1.9825    2.3254 H         1 <0>         0.0712
     56 H28         3.8034    1.4666    3.1787 H         1 <0>         0.0590
     57 H29         3.9928    2.1646    0.2108 H         1 <0>         0.0674
     58 H30         3.2686    3.1869    1.4775 H         1 <0>         0.0710
     59 H31         4.9046   -0.5936    3.8522 H         1 <0>         0.0440
     60 H32         5.5295   -1.7405    2.6429 H         1 <0>         0.0463
     61 H33         7.2812   -0.4656    3.6489 H         1 <0>         0.3793
     62 H34         1.1830    2.4301   -2.1206 H         1 <0>         0.0664
     63 H35         2.8041    2.5230   -1.3913 H         1 <0>         0.0752
     64 H36         2.0343    0.9392   -1.6508 H         1 <0>         0.0635
     65 H37         0.5545    3.5748    1.3790 H         1 <0>         0.0664
     66 H38         1.9417    4.0589    0.3743 H         1 <0>         0.0815
     67 H39         0.3117    3.9820   -0.3366 H         1 <0>         0.0677
     68 H40         2.7757   -3.0300   -0.2560 H         1 <0>         0.3881
@<TRIPOS>BOND
     1    1    2 1
     2    1   32 1
     3    1   33 1
     4    1   34 1
     5    2    3 1
     6    2   35 1
     7    2   36 1
     8    3    4 1
     9    3   37 1
    10    3   38 1
    11    4    5 1
    12    4   39 1
    13    4   40 1
    14    5    6 1
    15    5   41 1
    16    5   42 1
    17    6    7 1
    18    6   43 1
    19    6   44 1
    20    7    8 1
    21    7    9 1
    22    7   10 1
    23    8   45 1
    24    8   46 1
    25    8   47 1
    26    9   48 1
    27    9   49 1
    28    9   50 1
    29   10   15 ar
    30   10   11 ar
    31   11   12 ar
    32   11   51 1
    33   12   13 ar
    34   12   31 1
    35   13   20 1
    36   13   14 ar
    37   14   15 ar
    38   14   16 1
    39   15   52 1
    40   16   17 1
    41   17   18 1
    42   17   29 1
    43   17   30 1
    44   18   19 1
    45   18   26 1
    46   18   20 1
    47   20   21 1
    48   20   22 1
    49   22   23 1
    50   22   53 1
    51   22   54 1
    52   23   24 1
    53   23   25 1
    54   23   27 1
    55   25   26 1
    56   25   55 1
    57   25   56 1
    58   26   57 1
    59   26   58 1
    60   27   28 1
    61   27   59 1
    62   27   60 1
    63   28   61 1
    64   29   62 1
    65   29   63 1
    66   29   64 1
    67   30   65 1
    68   30   66 1
    69   30   67 1
    70   31   68 1
@<TRIPOS>MOLECULE
ZINC03799010
   66    68     0     0     0
SMALL
USER_CHARGES
1,1-dimethylheptyl-(hydroxymethyl)-dimethyl-BLAHol
@<TRIPOS>ATOM
      1 C1          5.3310    9.8178   -0.0051 C.3       1 <0>        -0.1543
      2 C2          5.3629    8.2882   -0.0109 C.3       1 <0>        -0.1260
      3 C3          3.9314    7.7482   -0.0007 C.3       1 <0>        -0.1206
      4 C4          3.9633    6.2185   -0.0066 C.3       1 <0>        -0.1208
      5 C5          2.5318    5.6785    0.0036 C.3       1 <0>        -0.1239
      6 C6          2.5637    4.1488   -0.0022 C.3       1 <0>        -0.1101
      7 C7          1.1322    3.6088    0.0080 C.3       1 <0>        -0.0224
      8 C8          0.3899    4.1082   -1.2332 C.3       1 <0>        -0.1413
      9 C9          0.4111    4.0991    1.2652 C.3       1 <0>        -0.1419
     10 C10         1.1636    2.1022    0.0022 C.ar      1 <0>        -0.0194
     11 C11         2.3748    1.4367   -0.0109 C.ar      1 <0>        -0.1795
     12 C12         2.4014    0.0508   -0.0189 C.ar      1 <0>         0.1456
     13 C13         1.2147   -0.6717   -0.0146 C.ar      1 <0>        -0.1868
     14 C14         0.0021   -0.0041    0.0020 C.ar      1 <0>         0.1584
     15 C15        -0.0168    1.3879    0.0097 C.ar      1 <0>        -0.1559
     16 O1         -1.1838   -0.6664    0.0172 O.3       1 <0>        -0.3061
     17 C16        -1.1901   -2.0549   -0.3208 C.3       1 <0>         0.1199
     18 C17        -0.0666   -2.7433    0.4566 C.3       1 <0>        -0.1108
     19 H1         -0.1828   -2.5478    1.5226 H         1 <0>         0.0845
     20 C18         1.2727   -2.1740   -0.0325 C.3       1 <0>        -0.0291
     21 H2          1.4652   -2.5186   -1.0485 H         1 <0>         0.0832
     22 C19         2.3716   -2.6865    0.8993 C.3       1 <0>        -0.0710
     23 C20         2.2537   -4.1786    1.0387 C.2       1 <0>        -0.1386
     24 C21         1.1943   -4.8562    0.7291 C.2       1 <0>        -0.1403
     25 C22        -0.0833   -4.2514    0.2030 C.3       1 <0>        -0.0815
     26 C23         3.4434   -4.9337    1.5730 C.3       1 <0>         0.1101
     27 O2          3.1361   -6.3281    1.6301 O.3       1 <0>        -0.5722
     28 C24        -2.5362   -2.6729    0.0625 C.3       1 <0>        -0.1416
     29 C25        -0.9555   -2.2211   -1.8235 C.3       1 <0>        -0.1769
     30 O3          3.5924   -0.6035   -0.0313 O.3       1 <0>        -0.4907
     31 H3          6.3509   10.2025   -0.0124 H         1 <0>         0.0532
     32 H4          4.8022   10.1736   -0.8893 H         1 <0>         0.0532
     33 H5          4.8173   10.1671    0.8906 H         1 <0>         0.0533
     34 H6          5.8918    7.9324    0.8733 H         1 <0>         0.0601
     35 H7          5.8766    7.9389   -0.9066 H         1 <0>         0.0600
     36 H8          3.4026    8.1039   -0.8850 H         1 <0>         0.0604
     37 H9          3.4177    8.0974    0.8949 H         1 <0>         0.0606
     38 H10         4.4922    5.8627    0.8777 H         1 <0>         0.0603
     39 H11         4.4770    5.8692   -0.9022 H         1 <0>         0.0600
     40 H12         2.0030    6.0343   -0.8806 H         1 <0>         0.0655
     41 H13         2.0181    6.0278    0.8993 H         1 <0>         0.0656
     42 H14         3.0926    3.7931    0.8820 H         1 <0>         0.0661
     43 H15         3.0774    3.7996   -0.8979 H         1 <0>         0.0653
     44 H16        -0.6299    3.7235   -1.2259 H         1 <0>         0.0576
     45 H17         0.3672    5.1980   -1.2290 H         1 <0>         0.0640
     46 H18         0.9036    3.7589   -2.1288 H         1 <0>         0.0563
     47 H19         0.9400    3.7433    2.1494 H         1 <0>         0.0568
     48 H20         0.3884    5.1889    1.2694 H         1 <0>         0.0640
     49 H21        -0.6087    3.7144    1.2725 H         1 <0>         0.0577
     50 H22         3.2990    1.9955   -0.0147 H         1 <0>         0.1342
     51 H23        -0.9612    1.9118    0.0170 H         1 <0>         0.1302
     52 H24         3.3473   -2.4363    0.4827 H         1 <0>         0.1001
     53 H25         2.2642   -2.2203    1.8788 H         1 <0>         0.0716
     54 H26         1.2187   -5.9264    0.8724 H         1 <0>         0.1206
     55 H27        -0.9466   -4.6940    0.6999 H         1 <0>         0.0808
     56 H28        -0.1452   -4.4390   -0.8690 H         1 <0>         0.0787
     57 H29         4.2985   -4.7768    0.9156 H         1 <0>         0.0551
     58 H30         3.6831   -4.5733    2.5734 H         1 <0>         0.0547
     59 H31         3.8583   -6.8767    1.9655 H         1 <0>         0.3818
     60 H32        -3.3357   -2.1660   -0.4778 H         1 <0>         0.0684
     61 H33        -2.5370   -3.7317   -0.1968 H         1 <0>         0.0813
     62 H34        -2.6950   -2.5615    1.1351 H         1 <0>         0.0670
     63 H35         0.0087   -1.7886   -2.0908 H         1 <0>         0.0636
     64 H36        -0.9611   -3.2812   -2.0771 H         1 <0>         0.0759
     65 H37        -1.7471   -1.7118   -2.3733 H         1 <0>         0.0675
     66 H38         3.9308   -0.7876   -0.9183 H         1 <0>         0.3883
@<TRIPOS>BOND
     1    1    2 1
     2    1   31 1
     3    1   32 1
     4    1   33 1
     5    2    3 1
     6    2   34 1
     7    2   35 1
     8    3    4 1
     9    3   36 1
    10    3   37 1
    11    4    5 1
    12    4   38 1
    13    4   39 1
    14    5    6 1
    15    5   40 1
    16    5   41 1
    17    6    7 1
    18    6   42 1
    19    6   43 1
    20    7    8 1
    21    7    9 1
    22    7   10 1
    23    8   44 1
    24    8   45 1
    25    8   46 1
    26    9   47 1
    27    9   48 1
    28    9   49 1
    29   10   15 ar
    30   10   11 ar
    31   11   12 ar
    32   11   50 1
    33   12   13 ar
    34   12   30 1
    35   13   20 1
    36   13   14 ar
    37   14   15 ar
    38   14   16 1
    39   15   51 1
    40   16   17 1
    41   17   18 1
    42   17   28 1
    43   17   29 1
    44   18   19 1
    45   18   25 1
    46   18   20 1
    47   20   21 1
    48   20   22 1
    49   22   23 1
    50   22   52 1
    51   22   53 1
    52   23   24 2
    53   23   26 1
    54   24   25 1
    55   24   54 1
    56   25   55 1
    57   25   56 1
    58   26   27 1
    59   26   57 1
    60   26   58 1
    61   27   59 1
    62   28   60 1
    63   28   61 1
    64   28   62 1
    65   29   63 1
    66   29   64 1
    67   29   65 1
    68   30   66 1
@<TRIPOS>MOLECULE
ZINC06203318
   66    68     0     0     0
SMALL
USER_CHARGES
1,1-dimethylheptyl-(hydroxymethyl)-dimethyl-BLAHol
@<TRIPOS>ATOM
      1 C1         -0.0839    1.0785   -4.9885 C.3       1 <0>        -0.1543
      2 C2         -0.7969    1.5765   -3.7297 C.3       1 <0>        -0.1260
      3 C3         -0.0542    1.0736   -2.4902 C.3       1 <0>        -0.1207
      4 C4         -0.7672    1.5716   -1.2315 C.3       1 <0>        -0.1206
      5 C5         -0.0245    1.0687    0.0081 C.3       1 <0>        -0.1239
      6 C6         -0.7375    1.5667    1.2668 C.3       1 <0>        -0.1097
      7 C7          0.0052    1.0638    2.5064 C.3       1 <0>        -0.0220
      8 C8          0.0255   -0.4661    2.5031 C.3       1 <0>        -0.1410
      9 C9          1.4408    1.5929    2.4903 C.3       1 <0>        -0.1419
     10 C10        -0.6971    1.5543    3.7462 C.ar      1 <0>        -0.0204
     11 C11        -1.8292    2.3388    3.6334 C.ar      1 <0>        -0.1813
     12 C12        -2.4786    2.7834    4.7749 C.ar      1 <0>         0.1438
     13 C13        -1.9882    2.4513    6.0305 C.ar      1 <0>        -0.1726
     14 C14        -0.8476    1.6722    6.1432 C.ar      1 <0>         0.1571
     15 C15        -0.2056    1.2242    4.9927 C.ar      1 <0>        -0.1561
     16 O1         -0.3287    1.3340    7.3518 O.3       1 <0>        -0.3054
     17 C16        -1.1269    1.5290    8.5207 C.3       1 <0>         0.1162
     18 C17        -1.7306    2.9473    8.4446 C.3       1 <0>        -0.1075
     19 H1         -2.2419    3.2092    9.3709 H         1 <0>         0.0963
     20 C18        -2.7018    2.9382    7.2584 C.3       1 <0>        -0.0327
     21 H2         -3.5082    2.2403    7.4837 H         1 <0>         0.0805
     22 C19        -3.3083    4.3138    7.0479 C.3       1 <0>        -0.1105
     23 C20        -2.2618    5.3857    7.1088 C.2       1 <0>        -0.1267
     24 C21        -1.0743    5.2026    7.5876 C.2       1 <0>        -0.1404
     25 C22        -0.5800    3.9118    8.1325 C.3       1 <0>        -0.0861
     26 C23        -2.6130    6.7532    6.5820 C.3       1 <0>         0.1117
     27 O2         -1.4893    7.6236    6.7296 O.3       1 <0>        -0.5720
     28 C24        -2.2487    0.4893    8.5621 C.3       1 <0>        -0.1766
     29 C25        -0.2551    1.4012    9.7715 C.3       1 <0>        -0.1402
     30 O3         -3.5946    3.5510    4.6644 O.3       1 <0>        -0.4808
     31 H3          0.9388    1.4554   -5.0000 H         1 <0>         0.0533
     32 H4         -0.0695   -0.0114   -4.9908 H         1 <0>         0.0532
     33 H5         -0.6131    1.4367   -5.8716 H         1 <0>         0.0532
     34 H6         -1.8196    1.1996   -3.7183 H         1 <0>         0.0599
     35 H7         -0.8113    2.6664   -3.7274 H         1 <0>         0.0601
     36 H8          0.9685    1.4505   -2.5017 H         1 <0>         0.0606
     37 H9         -0.0398   -0.0163   -2.4925 H         1 <0>         0.0604
     38 H10        -1.7899    1.1947   -1.2200 H         1 <0>         0.0599
     39 H11        -0.7816    2.6615   -1.2291 H         1 <0>         0.0602
     40 H12        -0.0101   -0.0212    0.0058 H         1 <0>         0.0654
     41 H13         0.9982    1.4456   -0.0034 H         1 <0>         0.0656
     42 H14        -0.7519    2.6566    1.2692 H         1 <0>         0.0658
     43 H15        -1.7602    1.1898    1.2783 H         1 <0>         0.0650
     44 H16         0.5334   -0.8208    1.6063 H         1 <0>         0.0636
     45 H17         0.5546   -0.8243    3.3862 H         1 <0>         0.0574
     46 H18        -0.9972   -0.8430    2.5145 H         1 <0>         0.0560
     47 H19         1.4264    2.6828    2.4926 H         1 <0>         0.0568
     48 H20         1.9699    1.2346    3.3734 H         1 <0>         0.0575
     49 H21         1.9487    1.2381    1.5935 H         1 <0>         0.0637
     50 H22        -2.2096    2.6021    2.6575 H         1 <0>         0.1332
     51 H23         0.6824    0.6151    5.0758 H         1 <0>         0.1293
     52 H24        -3.7940    4.3443    6.0725 H         1 <0>         0.1341
     53 H25        -4.0523    4.4983    7.8228 H         1 <0>         0.0659
     54 H26        -0.4005    6.0466    7.6004 H         1 <0>         0.1158
     55 H27        -0.0110    4.0959    9.0438 H         1 <0>         0.0716
     56 H28         0.0752    3.4577    7.3892 H         1 <0>         0.0809
     57 H29        -2.8791    6.6790    5.5276 H         1 <0>         0.0555
     58 H30        -3.4581    7.1526    7.1427 H         1 <0>         0.0509
     59 H31        -1.6441    8.5232    6.4104 H         1 <0>         0.3798
     60 H32        -1.8163   -0.5110    8.5839 H         1 <0>         0.0675
     61 H33        -2.8539    0.6431    9.4555 H         1 <0>         0.0736
     62 H34        -2.8750    0.5952    7.6763 H         1 <0>         0.0654
     63 H35         0.5327    2.1540    9.7437 H         1 <0>         0.0690
     64 H36        -0.8694    1.5509   10.6594 H         1 <0>         0.0786
     65 H37         0.1924    0.4078    9.8025 H         1 <0>         0.0680
     66 H38        -4.4111    3.0445    4.5552 H         1 <0>         0.3870
@<TRIPOS>BOND
     1    1    2 1
     2    1   31 1
     3    1   32 1
     4    1   33 1
     5    2    3 1
     6    2   34 1
     7    2   35 1
     8    3    4 1
     9    3   36 1
    10    3   37 1
    11    4    5 1
    12    4   38 1
    13    4   39 1
    14    5    6 1
    15    5   40 1
    16    5   41 1
    17    6    7 1
    18    6   42 1
    19    6   43 1
    20    7    8 1
    21    7    9 1
    22    7   10 1
    23    8   44 1
    24    8   45 1
    25    8   46 1
    26    9   47 1
    27    9   48 1
    28    9   49 1
    29   10   15 ar
    30   10   11 ar
    31   11   12 ar
    32   11   50 1
    33   12   13 ar
    34   12   30 1
    35   13   20 1
    36   13   14 ar
    37   14   15 ar
    38   14   16 1
    39   15   51 1
    40   16   17 1
    41   17   18 1
    42   17   28 1
    43   17   29 1
    44   18   19 1
    45   18   25 1
    46   18   20 1
    47   20   21 1
    48   20   22 1
    49   22   23 1
    50   22   52 1
    51   22   53 1
    52   23   24 2
    53   23   26 1
    54   24   25 1
    55   24   54 1
    56   25   55 1
    57   25   56 1
    58   26   27 1
    59   26   57 1
    60   26   58 1
    61   27   59 1
    62   28   60 1
    63   28   61 1
    64   28   62 1
    65   29   63 1
    66   29   64 1
    67   29   65 1
    68   30   66 1
@<TRIPOS>MOLECULE
ZINC26177754
   67    68     0     0     0
SMALL
USER_CHARGES
5-(1,1-dimethylheptyl)-2-[(1S,2R,5S)-5-hydroxy-2-(3-hydroxypropyl)cyclohexyl]phenol
@<TRIPOS>ATOM
      1 C1         10.1442    4.9457   -5.8184 C.3       1 <0>        -0.1556
      2 C2          9.4801    4.5608   -4.4949 C.3       1 <0>        -0.1265
      3 C3          7.9925    4.2916   -4.7301 C.3       1 <0>        -0.1211
      4 C4          7.3283    3.9066   -3.4066 C.3       1 <0>        -0.1212
      5 C5          5.8407    3.6374   -3.6418 C.3       1 <0>        -0.1245
      6 C6          5.1766    3.2525   -2.3183 C.3       1 <0>        -0.1106
      7 C7          3.6889    2.9833   -2.5535 C.3       1 <0>        -0.0244
      8 C8          3.5301    1.8382   -3.5558 C.3       1 <0>        -0.1414
      9 C9          3.0242    4.2440   -3.1100 C.3       1 <0>        -0.1412
     10 C10         3.0348    2.6041   -1.2499 C.ar      1 <0>        -0.0288
     11 C11         3.7864    2.5478   -0.0905 C.ar      1 <0>        -0.1647
     12 C12         3.1892    2.2007    1.1070 C.ar      1 <0>        -0.0764
     13 C13         1.8383    1.9139    1.1490 C.ar      1 <0>        -0.1208
     14 C14         1.0832    1.9646   -0.0135 C.ar      1 <0>         0.1624
     15 C15         1.6849    2.3136   -1.2141 C.ar      1 <0>        -0.2093
     16 O1         -0.2447    1.6783    0.0244 O.3       1 <0>        -0.5083
     17 C16         1.1867    1.5412    2.4558 C.3       1 <0>        -0.0288
     18 H1          0.1690    1.1778    2.2506 H         1 <0>         0.0872
     19 C17         2.0039    0.4422    3.1379 C.3       1 <0>        -0.1033
     20 C18         1.3424    0.0638    4.4646 C.3       1 <0>         0.1169
     21 H2          0.3413   -0.3627    4.3038 H         1 <0>         0.0485
     22 C19         1.2823    1.2932    5.3734 C.3       1 <0>        -0.1514
     23 C20         0.4652    2.3923    4.6913 C.3       1 <0>        -0.1158
     24 C21         1.1267    2.7706    3.3646 C.3       1 <0>        -0.0736
     25 H3          0.5393    3.5608    2.8742 H         1 <0>         0.0734
     26 C22         2.5452    3.2793    3.6288 C.3       1 <0>        -0.1314
     27 C23         2.4818    4.5439    4.4877 C.3       1 <0>        -0.1205
     28 C24         3.9004    5.0526    4.7519 C.3       1 <0>         0.0843
     29 O2          3.8412    6.2337    5.5541 O.3       1 <0>        -0.6052
     30 O3          2.1056   -0.9627    5.1017 O.3       1 <0>        -0.6029
     31 H4         11.2138    5.1392   -5.6493 H         1 <0>         0.0537
     32 H5          9.6663    5.8521   -6.2184 H         1 <0>         0.0536
     33 H6         10.0300    4.1225   -6.5390 H         1 <0>         0.0536
     34 H7          9.9580    3.6544   -4.0949 H         1 <0>         0.0605
     35 H8          9.5943    5.3840   -3.7743 H         1 <0>         0.0604
     36 H9          7.5146    5.1980   -5.1301 H         1 <0>         0.0605
     37 H10         7.8783    3.4684   -5.4507 H         1 <0>         0.0606
     38 H11         7.8062    3.0002   -3.0066 H         1 <0>         0.0606
     39 H12         7.4425    4.7298   -2.6859 H         1 <0>         0.0604
     40 H13         5.3628    4.5438   -4.0419 H         1 <0>         0.0651
     41 H14         5.7265    2.8142   -4.3624 H         1 <0>         0.0652
     42 H15         5.6545    2.3461   -1.9183 H         1 <0>         0.0661
     43 H16         5.2908    4.0757   -1.5977 H         1 <0>         0.0657
     44 H17         2.4606    1.6446   -3.7249 H         1 <0>         0.0545
     45 H18         4.0080    0.9318   -3.1557 H         1 <0>         0.0567
     46 H19         4.0076    2.1149   -4.5073 H         1 <0>         0.0631
     47 H20         1.9546    4.0504   -3.2791 H         1 <0>         0.0545
     48 H21         3.5017    4.5207   -4.0616 H         1 <0>         0.0631
     49 H22         3.1384    5.0673   -2.3894 H         1 <0>         0.0564
     50 H23         4.8417    2.7756   -0.1206 H         1 <0>         0.1256
     51 H24         3.7783    2.1577    2.0112 H         1 <0>         0.1318
     52 H25         1.0982    2.3585   -2.1197 H         1 <0>         0.1229
     53 H26        -0.8426    1.7188   -0.8980 H         1 <0>         0.4306
     54 H27         2.0471   -0.4416    2.4845 H         1 <0>         0.0674
     55 H28         3.0238    0.8080    3.3279 H         1 <0>         0.0731
     56 H29         0.8067    1.0212    6.3272 H         1 <0>         0.0624
     57 H30         2.3022    1.6589    5.5634 H         1 <0>         0.0739
     58 H31        -0.5547    2.0266    4.5014 H         1 <0>         0.0639
     59 H32         0.4220    3.2762    5.3447 H         1 <0>         0.0703
     60 H33         3.1198    2.5049    4.1582 H         1 <0>         0.0704
     61 H34         3.0361    3.5102    2.6719 H         1 <0>         0.0799
     62 H35         1.9072    5.3182    3.9583 H         1 <0>         0.0667
     63 H36         1.9909    4.3130    5.4446 H         1 <0>         0.0701
     64 H37         4.4749    4.2782    5.2813 H         1 <0>         0.0393
     65 H38         4.3913    5.2835    3.7950 H         1 <0>         0.0396
     66 H39         4.7692    6.7459    5.8483 H         1 <0>         0.4078
     67 H40         1.7826   -1.3657    6.0729 H         1 <0>         0.4050
@<TRIPOS>BOND
     1    1    2 1
     2    1   31 1
     3    1   32 1
     4    1   33 1
     5    2    3 1
     6    2   34 1
     7    2   35 1
     8    3    4 1
     9    3   36 1
    10    3   37 1
    11    4    5 1
    12    4   38 1
    13    4   39 1
    14    5    6 1
    15    5   40 1
    16    5   41 1
    17    6    7 1
    18    6   42 1
    19    6   43 1
    20    7    8 1
    21    7    9 1
    22    7   10 1
    23    8   44 1
    24    8   45 1
    25    8   46 1
    26    9   47 1
    27    9   48 1
    28    9   49 1
    29   10   15 ar
    30   10   11 ar
    31   11   12 ar
    32   11   50 1
    33   12   13 ar
    34   12   51 1
    35   13   14 ar
    36   13   17 1
    37   14   15 ar
    38   14   16 1
    39   15   52 1
    40   16   53 1
    41   17   18 1
    42   17   24 1
    43   17   19 1
    44   19   20 1
    45   19   54 1
    46   19   55 1
    47   20   21 1
    48   20   22 1
    49   20   30 1
    50   22   23 1
    51   22   56 1
    52   22   57 1
    53   23   24 1
    54   23   58 1
    55   23   59 1
    56   24   25 1
    57   24   26 1
    58   26   27 1
    59   26   60 1
    60   26   61 1
    61   27   28 1
    62   27   62 1
    63   27   63 1
    64   28   29 1
    65   28   64 1
    66   28   65 1
    67   29   66 1
    68   30   67 1
@<TRIPOS>MOLECULE
ZINC01485260
   56    60     0     0     0
SMALL
USER_CHARGES
[1-[(1-methyl-2-piperidyl)methyl]indol-3-yl]-(1-naphthyl)methanone
@<TRIPOS>ATOM
      1 C1         -0.1265    3.1679   -1.0534 C.3       1 <0>        -0.0518
      2 C2          0.4962    1.4955   -2.6892 C.3       1 <0>        -0.0004
      3 C3          0.3738    0.0124   -3.0462 C.3       1 <0>        -0.1482
      4 C4          1.0900   -0.8245   -1.9826 C.3       1 <0>        -0.1351
      5 C5          0.4807   -0.5219   -0.6108 C.3       1 <0>        -0.1433
      6 C6          0.6000    0.9767   -0.3243 C.3       1 <0>         0.0100
      7 H1          1.6520    1.2618   -0.3138 H         1 <0>         0.1450
      8 C7         -0.0259    1.2867    1.0369 C.3       1 <0>         0.0900
      9 N1          0.7125    0.5797    2.0863 N.pl3     1 <0>        -0.4708
     10 C8          0.3016   -0.5643    2.6830 C.2       1 <0>         0.1227
     11 C9          1.2231   -0.9575    3.6112 C.2       1 <0>        -0.2284
     12 C10         2.2983    0.0513    3.5850 C.ar      1 <0>        -0.0623
     13 C11         1.9220    0.9891    2.6099 C.ar      1 <0>         0.0807
     14 C12         2.7503    2.0765    2.3542 C.ar      1 <0>        -0.1341
     15 C13         3.9273    2.2244    3.0559 C.ar      1 <0>        -0.0874
     16 C14         4.2972    1.2975    4.0189 C.ar      1 <0>        -0.1280
     17 C15         3.4898    0.2132    4.2867 C.ar      1 <0>        -0.0611
     18 C16         1.1538   -2.1466    4.4700 C.2       1 <0>         0.4707
     19 O1          2.0814   -2.4175    5.2105 O.2       1 <0>        -0.4338
     20 C17        -0.0394   -3.0127    4.4354 C.ar      1 <0>        -0.1447
     21 C18        -0.9800   -2.9650    5.4566 C.ar      1 <0>        -0.0664
     22 C19        -2.1055   -3.7765    5.4182 C.ar      1 <0>        -0.1188
     23 C20        -2.3259   -4.6510    4.3984 C.ar      1 <0>        -0.0850
     24 C21        -1.4134   -4.7568    3.3354 C.ar      1 <0>        -0.0542
     25 C22        -0.2540   -3.9431    3.3295 C.ar      1 <0>        -0.0246
     26 C23         0.6573   -4.0449    2.2715 C.ar      1 <0>        -0.1170
     27 C24         0.4187   -4.9261    1.2593 C.ar      1 <0>        -0.1044
     28 C25        -0.7202   -5.7280    1.2623 C.ar      1 <0>        -0.1189
     29 C26        -1.6272   -5.6544    2.2751 C.ar      1 <0>        -0.0955
     30 H2          0.8896    3.5173   -0.8702 H         1 <0>         0.1254
     31 H3         -0.5540    3.7172   -1.8922 H         1 <0>         0.1292
     32 H4         -0.7336    3.3335   -0.1634 H         1 <0>         0.1225
     33 H5         -0.0249    2.0933   -3.4369 H         1 <0>         0.1331
     34 H6          1.5487    1.7782   -2.6675 H         1 <0>         0.1307
     35 H7         -0.6790   -0.2677   -3.0816 H         1 <0>         0.0889
     36 H8          0.8309   -0.1665   -4.0195 H         1 <0>         0.1144
     37 H9          0.9684   -1.8836   -2.2096 H         1 <0>         0.0974
     38 H10         2.1506   -0.5731   -1.9746 H         1 <0>         0.0821
     39 H11         1.0147   -1.0827    0.1563 H         1 <0>         0.1124
     40 H12        -0.5704   -0.8104   -0.6079 H         1 <0>         0.0909
     41 H13         0.0188    2.3600    1.2214 H         1 <0>         0.1112
     42 H14        -1.0658    0.9602    1.0415 H         1 <0>         0.1156
     43 H15        -0.6153   -1.0884    2.4569 H         1 <0>         0.1820
     44 H16         2.4713    2.8045    1.6069 H         1 <0>         0.1154
     45 H17         4.5675    3.0705    2.8540 H         1 <0>         0.1326
     46 H18         5.2220    1.4262    4.5617 H         1 <0>         0.1333
     47 H19         3.7801   -0.5075    5.0368 H         1 <0>         0.1373
     48 H20        -0.8368   -2.2873    6.2852 H         1 <0>         0.1308
     49 H21        -2.8238   -3.7162    6.2225 H         1 <0>         0.1324
     50 H22        -3.2113   -5.2695    4.4064 H         1 <0>         0.1329
     51 H23         1.5442   -3.4287    2.2574 H         1 <0>         0.1222
     52 H24         1.1224   -5.0037    0.4437 H         1 <0>         0.1243
     53 H25        -0.8866   -6.4185    0.4486 H         1 <0>         0.1270
     54 H26        -2.5061   -6.2820    2.2636 H         1 <0>         0.1325
     55 N2         -0.1302    1.7246   -1.3697 N.4       1 <0>        -0.3897
     56 H27        -1.1013    1.3925   -1.3998 H         1 <0>         0.4284
@<TRIPOS>BOND
     1    1   30 1
     2    1   31 1
     3    1   32 1
     4    1   55 1
     5    2    3 1
     6    2   33 1
     7    2   34 1
     8    2   55 1
     9    3    4 1
    10    3   35 1
    11    3   36 1
    12    4    5 1
    13    4   37 1
    14    4   38 1
    15    5    6 1
    16    5   39 1
    17    5   40 1
    18    6    7 1
    19    6    8 1
    20    6   55 1
    21    8    9 1
    22    8   41 1
    23    8   42 1
    24    9   13 1
    25    9   10 1
    26   10   11 2
    27   10   43 1
    28   11   12 1
    29   11   18 1
    30   12   17 ar
    31   12   13 ar
    32   13   14 ar
    33   14   15 ar
    34   14   44 1
    35   15   16 ar
    36   15   45 1
    37   16   17 ar
    38   16   46 1
    39   17   47 1
    40   18   19 2
    41   18   20 1
    42   20   25 ar
    43   20   21 ar
    44   21   22 ar
    45   21   48 1
    46   22   23 ar
    47   22   49 1
    48   23   24 ar
    49   23   50 1
    50   24   29 ar
    51   24   25 ar
    52   25   26 ar
    53   26   27 ar
    54   26   51 1
    55   27   28 ar
    56   27   52 1
    57   28   29 ar
    58   28   53 1
    59   29   54 1
    60   55   56 1
@<TRIPOS>MOLECULE
ZINC03825191
   56    60     0     0     0
SMALL
USER_CHARGES
[1-[(1-methyl-2-piperidyl)methyl]indol-3-yl]-(1-naphthyl)methanone
@<TRIPOS>ATOM
      1 C1         10.5817    2.6763    0.8681 C.3       1 <0>        -0.0520
      2 C2         10.8994    3.6446    3.0639 C.3       1 <0>        -0.0002
      3 C3         10.8479    4.9538    3.8547 C.3       1 <0>        -0.1484
      4 C4          9.4068    5.4706    3.8836 C.3       1 <0>        -0.1352
      5 C5          8.9116    5.6590    2.4470 C.3       1 <0>        -0.1475
      6 C6          9.0193    4.3294    1.6969 C.3       1 <0>         0.0111
      7 H1          8.3966    3.5828    2.1899 H         1 <0>         0.1442
      8 C7          8.5442    4.5177    0.2548 C.3       1 <0>         0.0896
      9 N1          7.1244    4.8785    0.2515 N.pl3     1 <0>        -0.4710
     10 C8          6.1030    3.9942    0.1592 C.2       1 <0>         0.1200
     11 C9          4.9114    4.6615    0.1811 C.2       1 <0>        -0.2272
     12 C10         5.2377    6.0939    0.3090 C.ar      1 <0>        -0.0630
     13 C11         6.6395    6.1669    0.3483 C.ar      1 <0>         0.0817
     14 C12         7.2544    7.4086    0.4670 C.ar      1 <0>        -0.1333
     15 C13         6.4876    8.5511    0.5452 C.ar      1 <0>        -0.0879
     16 C14         5.1032    8.4771    0.5067 C.ar      1 <0>        -0.1274
     17 C15         4.4753    7.2560    0.3890 C.ar      1 <0>        -0.0619
     18 C16         3.5704    4.0691    0.0996 C.2       1 <0>         0.4702
     19 O1          2.5894    4.7882    0.0463 O.2       1 <0>        -0.4333
     20 C17         3.4117    2.6029    0.0825 C.ar      1 <0>        -0.1431
     21 C18         2.9755    1.9235    1.2130 C.ar      1 <0>        -0.0689
     22 C19         2.8275    0.5436    1.1942 C.ar      1 <0>        -0.1214
     23 C20         3.0993   -0.1928    0.0819 C.ar      1 <0>        -0.0841
     24 C21         3.5444    0.4279   -1.0972 C.ar      1 <0>        -0.0550
     25 C22         3.7103    1.8344   -1.1238 C.ar      1 <0>        -0.0253
     26 C23         4.1542    2.4567   -2.2968 C.ar      1 <0>        -0.1171
     27 C24         4.4215    1.7020   -3.4000 C.ar      1 <0>        -0.1021
     28 C25         4.2593    0.3187   -3.3773 C.ar      1 <0>        -0.1163
     29 C26         3.8295   -0.3186   -2.2536 C.ar      1 <0>        -0.0978
     30 H2         10.3879    2.9251   -0.1753 H         1 <0>         0.1224
     31 H3         11.6004    2.3023    0.9693 H         1 <0>         0.1289
     32 H4          9.8790    1.9100    1.1954 H         1 <0>         0.1258
     33 H5         11.9266    3.2814    3.0293 H         1 <0>         0.1329
     34 H6         10.2676    2.9014    3.5502 H         1 <0>         0.1307
     35 H7         11.4902    5.6933    3.3765 H         1 <0>         0.0888
     36 H8         11.1916    4.7771    4.8739 H         1 <0>         0.1142
     37 H9          9.3726    6.4251    4.4088 H         1 <0>         0.0973
     38 H10         8.7705    4.7495    4.3966 H         1 <0>         0.0816
     39 H11         9.5234    6.4096    1.9466 H         1 <0>         0.0903
     40 H12         7.8720    5.9864    2.4598 H         1 <0>         0.1172
     41 H13         8.6843    3.5888   -0.2981 H         1 <0>         0.1154
     42 H14         9.1221    5.3122   -0.2173 H         1 <0>         0.1122
     43 H15         6.2138    2.9230    0.0780 H         1 <0>         0.1812
     44 H16         8.3318    7.4774    0.4978 H         1 <0>         0.1187
     45 H17         6.9694    9.5133    0.6376 H         1 <0>         0.1329
     46 H18         4.5146    9.3805    0.5689 H         1 <0>         0.1331
     47 H19         3.3971    7.2008    0.3592 H         1 <0>         0.1369
     48 H20         2.7493    2.4739    2.1143 H         1 <0>         0.1296
     49 H21         2.4868    0.0400    2.0868 H         1 <0>         0.1312
     50 H22         2.9712   -1.2649    0.1061 H         1 <0>         0.1324
     51 H23         4.2843    3.5284   -2.3272 H         1 <0>         0.1235
     52 H24         4.7681    2.1827   -4.3029 H         1 <0>         0.1265
     53 H25         4.4781   -0.2570   -4.2645 H         1 <0>         0.1281
     54 H26         3.7087   -1.3919   -2.2505 H         1 <0>         0.1326
     55 N2         10.4338    3.8991    1.6841 N.4       1 <0>        -0.3903
     56 H27        11.0054    4.6460    1.2722 H         1 <0>         0.4284
@<TRIPOS>BOND
     1    1   30 1
     2    1   31 1
     3    1   32 1
     4    1   55 1
     5    2    3 1
     6    2   33 1
     7    2   34 1
     8    2   55 1
     9    3    4 1
    10    3   35 1
    11    3   36 1
    12    4    5 1
    13    4   37 1
    14    4   38 1
    15    5    6 1
    16    5   39 1
    17    5   40 1
    18    6    7 1
    19    6    8 1
    20    6   55 1
    21    8    9 1
    22    8   41 1
    23    8   42 1
    24    9   13 1
    25    9   10 1
    26   10   11 2
    27   10   43 1
    28   11   12 1
    29   11   18 1
    30   12   17 ar
    31   12   13 ar
    32   13   14 ar
    33   14   15 ar
    34   14   44 1
    35   15   16 ar
    36   15   45 1
    37   16   17 ar
    38   16   46 1
    39   17   47 1
    40   18   19 2
    41   18   20 1
    42   20   25 ar
    43   20   21 ar
    44   21   22 ar
    45   21   48 1
    46   22   23 ar
    47   22   49 1
    48   23   24 ar
    49   23   50 1
    50   24   29 ar
    51   24   25 ar
    52   25   26 ar
    53   26   27 ar
    54   26   51 1
    55   27   28 ar
    56   27   52 1
    57   28   29 ar
    58   28   53 1
    59   29   54 1
    60   55   56 1
