@<TRIPOS>MOLECULE
ZINC01540228
   51    54     0     0     0
SMALL
USER_CHARGES

@<TRIPOS>ATOM
      1 C1          0.4170    1.4732    0.0360 C.3       1 <0>        -0.0850
      2 C2          0.1935   -0.0170    0.0132 C.2       1 <0>        -0.1034
      3 C3          0.1739   -0.8345   -1.0823 C.2       1 <0>         0.0475
      4 N1         -0.0613   -2.1006   -0.6256 N.pl3     1 <0>        -0.2296
      5 N2         -0.1813   -2.0898    0.6532 N.2       1 <0>        -0.2348
      6 C4         -0.0338   -0.8645    1.1195 C.2       1 <0>        -0.0016
      7 C5         -0.0985   -0.4542    2.5368 C.2       1 <0>         0.6243
      8 O1          0.0512    0.7138    2.8390 O.2       1 <0>        -0.4953
      9 N3         -0.3236   -1.3747    3.4952 N.am      1 <0>        -0.5719
     10 N4         -0.3835   -0.9953    4.8060 N.3       1 <0>        -0.2924
     11 C6          0.7092   -1.5991    5.5791 C.3       1 <0>         0.0381
     12 C7          0.6976   -1.0401    7.0037 C.3       1 <0>        -0.1138
     13 C8         -0.6503   -1.3540    7.6589 C.3       1 <0>        -0.1252
     14 C9         -1.7740   -0.7554    6.8084 C.3       1 <0>        -0.1137
     15 C10        -1.6907   -1.3226    5.3895 C.3       1 <0>         0.0385
     16 C11        -0.1580   -3.2413   -1.4326 C.ar      1 <0>         0.1383
     17 C12        -0.9653   -3.2277   -2.5625 C.ar      1 <0>        -0.0784
     18 C13        -1.0587   -4.3534   -3.3568 C.ar      1 <0>        -0.0881
     19 C14        -0.3490   -5.4954   -3.0279 C.ar      1 <0>        -0.0132
     20 C15         0.4560   -5.5128   -1.9027 C.ar      1 <0>        -0.0912
     21 C16         0.5581   -4.3870   -1.1074 C.ar      1 <0>        -0.0121
     22 Cl1         1.5741   -4.4064    0.3001 Cl        1 <0>        -0.0235
     23 Cl2        -0.4696   -6.9086   -4.0289 Cl        1 <0>        -0.0385
     24 C17         0.3696   -0.4268   -2.4910 C.ar      1 <0>        -0.0243
     25 C18        -0.4173    0.5843   -3.0431 C.ar      1 <0>        -0.0792
     26 C19        -0.2304    0.9603   -4.3572 C.ar      1 <0>        -0.1055
     27 C20         0.7359    0.3363   -5.1279 C.ar      1 <0>        -0.0237
     28 C21         1.5198   -0.6678   -4.5852 C.ar      1 <0>        -0.1047
     29 C22         1.3457   -1.0481   -3.2706 C.ar      1 <0>        -0.0846
     30 Cl3         0.9651    0.8142   -6.7810 Cl        1 <0>        -0.0608
     31 H1          1.4830    1.6792    0.1325 H         1 <0>         0.0742
     32 H2          0.0448    1.9106   -0.8905 H         1 <0>         0.0668
     33 H3         -0.1151    1.9075    0.8823 H         1 <0>         0.0894
     34 H4         -0.4431   -2.3066    3.2541 H         1 <0>         0.3863
     35 H5          0.5763   -2.6805    5.6122 H         1 <0>         0.0400
     36 H6          1.6623   -1.3649    5.1049 H         1 <0>         0.0813
     37 H7          1.4991   -1.5002    7.5817 H         1 <0>         0.0737
     38 H8          0.8443    0.0395    6.9722 H         1 <0>         0.0774
     39 H9         -0.7801   -2.4342    7.7259 H         1 <0>         0.0604
     40 H10        -0.6793   -0.9200    8.6584 H         1 <0>         0.0702
     41 H11        -2.7384   -1.0119    7.2468 H         1 <0>         0.0741
     42 H12        -1.6662    0.3287    6.7738 H         1 <0>         0.0774
     43 H13        -2.4808   -0.8875    4.7774 H         1 <0>         0.0821
     44 H14        -1.8124   -2.4053    5.4234 H         1 <0>         0.0406
     45 H15        -1.5200   -2.3374   -2.8196 H         1 <0>         0.1511
     46 H16        -1.6865   -4.3429   -4.2355 H         1 <0>         0.1550
     47 H17         1.0081   -6.4054   -1.6480 H         1 <0>         0.1575
     48 H18        -1.1716    1.0715   -2.4430 H         1 <0>         0.1405
     49 H19        -0.8392    1.7427   -4.7858 H         1 <0>         0.1417
     50 H20         2.2721   -1.1511   -5.1910 H         1 <0>         0.1392
     51 H21         1.9607   -1.8283   -2.8471 H         1 <0>         0.1290
@<TRIPOS>BOND
     1    1    2 1
     2    1   31 1
     3    1   32 1
     4    1   33 1
     5    2    6 1
     6    2    3 2
     7    3    4 1
     8    3   24 1
     9    4    5 1
    10    4   16 1
    11    5    6 2
    12    6    7 1
    13    7    8 2
    14    7    9 am
    15    9   10 1
    16    9   34 1
    17   10   15 1
    18   10   11 1
    19   11   12 1
    20   11   35 1
    21   11   36 1
    22   12   13 1
    23   12   37 1
    24   12   38 1
    25   13   14 1
    26   13   39 1
    27   13   40 1
    28   14   15 1
    29   14   41 1
    30   14   42 1
    31   15   43 1
    32   15   44 1
    33   16   21 ar
    34   16   17 ar
    35   17   18 ar
    36   17   45 1
    37   18   19 ar
    38   18   46 1
    39   19   20 ar
    40   19   23 1
    41   20   21 ar
    42   20   47 1
    43   21   22 1
    44   24   29 ar
    45   24   25 ar
    46   25   26 ar
    47   25   48 1
    48   26   27 ar
    49   26   49 1
    50   27   28 ar
    51   27   30 1
    52   28   29 ar
    53   28   50 1
    54   29   51 1
@<TRIPOS>MOLECULE
ZINC08860468
   65    64     0     0     0
SMALL
USER_CHARGES

@<TRIPOS>ATOM
      1 C1          1.4699    3.0103    1.6795 C.3       1 <0>        -0.1543
      2 C2          1.1470    1.5224    1.8304 C.3       1 <0>        -0.1260
      3 C3          2.2011    0.8593    2.7193 C.3       1 <0>        -0.1214
      4 C4          1.8782   -0.6286    2.8702 C.3       1 <0>        -0.1145
      5 C5          2.9323   -1.2916    3.7591 C.3       1 <0>        -0.1025
      6 C6          2.6142   -2.7572    3.9077 C.2       1 <0>        -0.1581
      7 C7          3.5316   -3.6560    3.6493 C.2       1 <0>        -0.1534
      8 C8          4.9477   -3.2268    3.3638 C.3       1 <0>        -0.0836
      9 C9          5.8898   -3.9597    4.2837 C.2       1 <0>        -0.1511
     10 C10         6.9144   -4.6095    3.7897 C.2       1 <0>        -0.1521
     11 C11         7.2468   -4.4906    2.3247 C.3       1 <0>        -0.0839
     12 C12         8.6877   -4.0777    2.1683 C.2       1 <0>        -0.1518
     13 C13         9.4920   -4.7809    1.4103 C.2       1 <0>        -0.1513
     14 C14         8.9417   -5.8950    0.5577 C.3       1 <0>        -0.0835
     15 C15         9.3779   -5.6965   -0.8711 C.2       1 <0>        -0.1524
     16 C16         9.9891   -6.6633   -1.5096 C.2       1 <0>        -0.1565
     17 C17        10.1105   -8.0256   -0.8767 C.3       1 <0>        -0.1019
     18 C18         9.5949   -9.0878   -1.8497 C.3       1 <0>        -0.0980
     19 C19         9.7182  -10.4708   -1.2070 C.3       1 <0>        -0.1414
     20 C20         9.2103  -11.5171   -2.1654 C.2       1 <0>         0.5114
     21 O1          8.7910  -11.1889   -3.2551 O.2       1 <0>        -0.5402
     22 N1          9.2220  -12.8175   -1.8115 N.am      1 <0>        -0.7255
     23 C21         8.7283  -13.8347   -2.7431 C.3       1 <0>         0.1422
     24 H1          8.9753  -13.5429   -3.7639 H         1 <0>         0.0983
     25 C22         7.2101  -13.9614   -2.6021 C.3       1 <0>        -0.1597
     26 C23         9.3842  -15.1797   -2.4243 C.3       1 <0>         0.0666
     27 O2          8.9668  -15.6182   -1.1299 O.3       1 <0>        -0.5706
     28 H2          2.4534    3.1242    1.2236 H         1 <0>         0.0534
     29 H3          0.7189    3.4826    1.0462 H         1 <0>         0.0535
     30 H4          1.4674    3.4840    2.6612 H         1 <0>         0.0534
     31 H5          0.1635    1.4084    2.2863 H         1 <0>         0.0605
     32 H6          1.1495    1.0487    0.8487 H         1 <0>         0.0606
     33 H7          3.1846    0.9733    2.2634 H         1 <0>         0.0610
     34 H8          2.1986    1.3330    3.7010 H         1 <0>         0.0613
     35 H9          0.8947   -0.7425    3.3261 H         1 <0>         0.0616
     36 H10         1.8807   -1.1023    1.8885 H         1 <0>         0.0620
     37 H11         3.9158   -1.1777    3.3032 H         1 <0>         0.0756
     38 H12         2.9298   -0.8179    4.7408 H         1 <0>         0.0688
     39 H13         1.6300   -3.0664    4.2272 H         1 <0>         0.1088
     40 H14         3.2730   -4.7045    3.6409 H         1 <0>         0.1085
     41 H15         5.1962   -3.4599    2.3284 H         1 <0>         0.0830
     42 H16         5.0419   -2.1533    3.5273 H         1 <0>         0.0840
     43 H17         5.7203   -3.9492    5.3503 H         1 <0>         0.1096
     44 H18         7.5209   -5.2304    4.4324 H         1 <0>         0.1098
     45 H19         7.0897   -5.4528    1.8372 H         1 <0>         0.0835
     46 H20         6.6022   -3.7411    1.8655 H         1 <0>         0.0834
     47 H21         9.0572   -3.2020    2.6812 H         1 <0>         0.1097
     48 H22        10.5496   -4.5623    1.3965 H         1 <0>         0.1098
     49 H23         9.3168   -6.8511    0.9226 H         1 <0>         0.0836
     50 H24         7.8529   -5.8882    0.6094 H         1 <0>         0.0830
     51 H25         9.1867   -4.7572   -1.3685 H         1 <0>         0.1092
     52 H26        10.4060   -6.4842   -2.4897 H         1 <0>         0.1103
     53 H27        11.1560   -8.2251   -0.6416 H         1 <0>         0.0704
     54 H28         9.5202   -8.0546    0.0392 H         1 <0>         0.0765
     55 H29         8.5494   -8.8883   -2.0848 H         1 <0>         0.0709
     56 H30        10.1852   -9.0588   -2.7655 H         1 <0>         0.0705
     57 H31        10.7637  -10.6704   -0.9719 H         1 <0>         0.0935
     58 H32         9.1279  -10.4999   -0.2912 H         1 <0>         0.0936
     59 H33         9.5574  -13.0800   -0.9400 H         1 <0>         0.4046
     60 H34         6.7429  -13.0032   -2.8293 H         1 <0>         0.0590
     61 H35         6.8428  -14.7182   -3.2953 H         1 <0>         0.0633
     62 H36         6.9631  -14.2532   -1.5814 H         1 <0>         0.0664
     63 H37         9.0857  -15.9156   -3.1709 H         1 <0>         0.0625
     64 H38        10.4683  -15.0675   -2.4378 H         1 <0>         0.0529
     65 H39         9.3448  -16.4667   -0.8612 H         1 <0>         0.3836
@<TRIPOS>BOND
     1    1    2 1
     2    1   28 1
     3    1   29 1
     4    1   30 1
     5    2    3 1
     6    2   31 1
     7    2   32 1
     8    3    4 1
     9    3   33 1
    10    3   34 1
    11    4    5 1
    12    4   35 1
    13    4   36 1
    14    5    6 1
    15    5   37 1
    16    5   38 1
    17    6    7 2
    18    6   39 1
    19    7    8 1
    20    7   40 1
    21    8    9 1
    22    8   41 1
    23    8   42 1
    24    9   10 2
    25    9   43 1
    26   10   11 1
    27   10   44 1
    28   11   12 1
    29   11   45 1
    30   11   46 1
    31   12   13 2
    32   12   47 1
    33   13   14 1
    34   13   48 1
    35   14   15 1
    36   14   49 1
    37   14   50 1
    38   15   16 2
    39   15   51 1
    40   16   17 1
    41   16   52 1
    42   17   18 1
    43   17   53 1
    44   17   54 1
    45   18   19 1
    46   18   55 1
    47   18   56 1
    48   19   20 1
    49   19   57 1
    50   19   58 1
    51   20   21 2
    52   20   22 am
    53   22   23 1
    54   22   59 1
    55   23   24 1
    56   23   25 1
    57   23   26 1
    58   25   60 1
    59   25   61 1
    60   25   62 1
    61   26   27 1
    62   26   63 1
    63   26   64 1
    64   27   65 1
@<TRIPOS>MOLECULE
ZINC04102443
   73    73     0     0     0
SMALL
USER_CHARGES

@<TRIPOS>ATOM
      1 C1          0.6453    3.0200   -2.1184 C.3       1 <0>        -0.1543
      2 C2          0.9747    1.5406   -1.9090 C.3       1 <0>        -0.1260
      3 C3          1.2342    0.8791   -3.2640 C.3       1 <0>        -0.1214
      4 C4          1.5635   -0.6003   -3.0546 C.3       1 <0>        -0.1145
      5 C5          1.8231   -1.2617   -4.4095 C.3       1 <0>        -0.1026
      6 C6          2.1475   -2.7189   -4.2033 C.2       1 <0>        -0.1579
      7 C7          1.4879   -3.6368   -4.8654 C.2       1 <0>        -0.1536
      8 C8          0.5222   -3.2356   -5.9506 C.3       1 <0>        -0.0837
      9 C9          0.8663   -3.9645   -7.2239 C.2       1 <0>        -0.1508
     10 C10        -0.0571   -4.6399   -7.8620 C.2       1 <0>        -0.1524
     11 C11        -1.4947   -4.5556   -7.4178 C.3       1 <0>        -0.0837
     12 C12        -2.3604   -4.1684   -8.5889 C.2       1 <0>        -0.1516
     13 C13        -3.4010   -4.8991   -8.9041 C.2       1 <0>        -0.1517
     14 C14        -3.8363   -6.0212   -7.9973 C.3       1 <0>        -0.0833
     15 C15        -5.2963   -5.8582   -7.6615 C.2       1 <0>        -0.1521
     16 C16        -6.1304   -6.8470   -7.8682 C.2       1 <0>        -0.1570
     17 C17        -5.6088   -8.1980   -8.2850 C.3       1 <0>        -0.1018
     18 C18        -6.1669   -9.2713   -7.3483 C.3       1 <0>        -0.0988
     19 C19        -5.6374  -10.6430   -7.7715 C.3       1 <0>        -0.1414
     20 C20        -6.1871  -11.7002   -6.8489 C.2       1 <0>         0.5113
     21 O1         -6.9293  -11.3874   -5.9421 O.2       1 <0>        -0.5370
     22 N1         -5.8539  -12.9933   -7.0314 N.am      1 <0>        -0.7358
     23 C21        -6.3883  -14.0210   -6.1345 C.3       1 <0>         0.1234
     24 C22        -5.8588  -15.3927   -6.5577 C.3       1 <0>        -0.0911
     25 C23        -6.4085  -16.4499   -5.6351 C.ar      1 <0>        -0.0758
     26 C24        -5.7188  -16.7886   -4.4857 C.ar      1 <0>        -0.1047
     27 C25        -6.2188  -17.7578   -3.6362 C.ar      1 <0>        -0.1272
     28 C26        -7.4141  -18.3917   -3.9355 C.ar      1 <0>         0.0801
     29 C27        -8.1085  -18.0504   -5.0921 C.ar      1 <0>         0.0834
     30 C28        -7.6041  -17.0747   -5.9369 C.ar      1 <0>        -0.1240
     31 O2         -9.2820  -18.6697   -5.3902 O.3       1 <0>        -0.4879
     32 O3         -7.9072  -19.3456   -3.1010 O.3       1 <0>        -0.4883
     33 H1          1.4846    3.5132   -2.6087 H         1 <0>         0.0534
     34 H2         -0.2437    3.1095   -2.7426 H         1 <0>         0.0534
     35 H3          0.4604    3.4912   -1.1531 H         1 <0>         0.0535
     36 H4          1.8637    1.4511   -1.2847 H         1 <0>         0.0605
     37 H5          0.1353    1.0474   -1.4187 H         1 <0>         0.0606
     38 H6          0.3451    0.9686   -3.8882 H         1 <0>         0.0610
     39 H7          2.0735    1.3723   -3.7542 H         1 <0>         0.0613
     40 H8          2.4526   -0.6897   -2.4303 H         1 <0>         0.0616
     41 H9          0.7242   -1.0935   -2.5643 H         1 <0>         0.0620
     42 H10         0.9340   -1.1722   -5.0338 H         1 <0>         0.0756
     43 H11         2.6624   -0.7685   -4.8998 H         1 <0>         0.0688
     44 H12         2.9237   -3.0063   -3.5096 H         1 <0>         0.1089
     45 H13         1.6361   -4.6812   -4.6336 H         1 <0>         0.1085
     46 H14        -0.4926   -3.4932   -5.6473 H         1 <0>         0.0829
     47 H15         0.5897   -2.1606   -6.1177 H         1 <0>         0.0841
     48 H16         1.8742   -3.9300   -7.6103 H         1 <0>         0.1097
     49 H17         0.2118   -5.2572   -8.7064 H         1 <0>         0.1098
     50 H18        -1.8140   -5.5248   -7.0346 H         1 <0>         0.0833
     51 H19        -1.5889   -3.8055   -6.6326 H         1 <0>         0.0834
     52 H20        -2.1230   -3.2885   -9.1684 H         1 <0>         0.1098
     53 H21        -3.9470   -4.6972   -9.8138 H         1 <0>         0.1098
     54 H22        -3.6838   -6.9756   -8.5013 H         1 <0>         0.0835
     55 H23        -3.2476   -5.9965   -7.0803 H         1 <0>         0.0830
     56 H24        -5.6550   -4.9261   -7.2504 H         1 <0>         0.1093
     57 H25        -7.1917   -6.6940   -7.7398 H         1 <0>         0.1103
     58 H26        -5.9227   -8.4090   -9.3073 H         1 <0>         0.0706
     59 H27        -4.5201   -8.1995   -8.2316 H         1 <0>         0.0766
     60 H28        -5.8530   -9.0603   -6.3260 H         1 <0>         0.0710
     61 H29        -7.2556   -9.2698   -7.4017 H         1 <0>         0.0707
     62 H30        -5.9513  -10.8540   -8.7938 H         1 <0>         0.0945
     63 H31        -4.5487  -10.6445   -7.7181 H         1 <0>         0.0941
     64 H32        -5.2603  -13.2435   -7.7566 H         1 <0>         0.4017
     65 H33        -6.0744  -13.8100   -5.1122 H         1 <0>         0.0703
     66 H34        -7.4770  -14.0195   -6.1879 H         1 <0>         0.0693
     67 H35        -6.1727  -15.6037   -7.5800 H         1 <0>         0.0826
     68 H36        -4.7701  -15.3942   -6.5043 H         1 <0>         0.0838
     69 H37        -4.7871  -16.2953   -4.2513 H         1 <0>         0.1315
     70 H38        -5.6778  -18.0211   -2.7393 H         1 <0>         0.1355
     71 H39        -8.1430  -16.8053   -6.8332 H         1 <0>         0.1341
     72 H40       -10.0626  -18.2284   -5.0284 H         1 <0>         0.3889
     73 H41        -8.4910  -19.0012   -2.4114 H         1 <0>         0.3888
@<TRIPOS>BOND
     1    1    2 1
     2    1   33 1
     3    1   34 1
     4    1   35 1
     5    2    3 1
     6    2   36 1
     7    2   37 1
     8    3    4 1
     9    3   38 1
    10    3   39 1
    11    4    5 1
    12    4   40 1
    13    4   41 1
    14    5    6 1
    15    5   42 1
    16    5   43 1
    17    6    7 2
    18    6   44 1
    19    7    8 1
    20    7   45 1
    21    8    9 1
    22    8   46 1
    23    8   47 1
    24    9   10 2
    25    9   48 1
    26   10   11 1
    27   10   49 1
    28   11   12 1
    29   11   50 1
    30   11   51 1
    31   12   13 2
    32   12   52 1
    33   13   14 1
    34   13   53 1
    35   14   15 1
    36   14   54 1
    37   14   55 1
    38   15   16 2
    39   15   56 1
    40   16   17 1
    41   16   57 1
    42   17   18 1
    43   17   58 1
    44   17   59 1
    45   18   19 1
    46   18   60 1
    47   18   61 1
    48   19   20 1
    49   19   62 1
    50   19   63 1
    51   20   21 2
    52   20   22 am
    53   22   23 1
    54   22   64 1
    55   23   24 1
    56   23   65 1
    57   23   66 1
    58   24   25 1
    59   24   67 1
    60   24   68 1
    61   25   30 ar
    62   25   26 ar
    63   26   27 ar
    64   26   69 1
    65   27   28 ar
    66   27   70 1
    67   28   29 ar
    68   28   32 1
    69   29   30 ar
    70   29   31 1
    71   30   71 1
    72   31   72 1
    73   32   73 1
@<TRIPOS>MOLECULE
ZINC13760077
   66    66     0     0     0
SMALL
USER_CHARGES
(5Z,8Z,11Z,14Z)-N-(3-hydroxyphenyl)icosa-5,8,11,14-tetraenamide
@<TRIPOS>ATOM
      1 C1         21.0703    1.5779   -7.2993 C.3       1 <0>        -0.1543
      2 C2         19.9815    0.7425   -6.6229 C.3       1 <0>        -0.1260
      3 C3         18.7917    0.5902   -7.5727 C.3       1 <0>        -0.1214
      4 C4         17.7029   -0.2452   -6.8963 C.3       1 <0>        -0.1146
      5 C5         16.5131   -0.3975   -7.8461 C.3       1 <0>        -0.1017
      6 C6         15.4406   -1.2203   -7.1799 C.2       1 <0>        -0.1581
      7 C7         14.2074   -0.7804   -7.1402 C.2       1 <0>        -0.1537
      8 C8         13.8227    0.4548   -7.9130 C.3       1 <0>        -0.0827
      9 C9         12.6038    0.1643   -8.7502 C.2       1 <0>        -0.1509
     10 C10        11.5486    0.9354   -8.6606 C.2       1 <0>        -0.1523
     11 C11        11.6120    2.2088   -7.8572 C.3       1 <0>        -0.0839
     12 C12        11.1628    3.3653   -8.7126 C.2       1 <0>        -0.1512
     13 C13        10.2099    4.1598   -8.2921 C.2       1 <0>        -0.1520
     14 C14         9.6842    4.0274   -6.8859 C.3       1 <0>        -0.0836
     15 C15         9.7515    5.3657   -6.1964 C.2       1 <0>        -0.1509
     16 C16         8.6797    5.8679   -5.6351 C.2       1 <0>        -0.1579
     17 C17         7.4262    5.0383   -5.5278 C.3       1 <0>        -0.1015
     18 C18         6.9568    5.0093   -4.0719 C.3       1 <0>        -0.0998
     19 C19         5.6841    4.1671   -3.9631 C.3       1 <0>        -0.1395
     20 C20         5.2218    4.1385   -2.5290 C.2       1 <0>         0.5104
     21 O1          5.8485    4.7333   -1.6778 O.2       1 <0>        -0.5130
     22 N1          4.1119    3.4521   -2.1924 N.am      1 <0>        -0.6782
     23 C21         3.6225    3.5119   -0.8829 C.ar      1 <0>         0.1618
     24 C22         3.0339    2.3922   -0.3085 C.ar      1 <0>        -0.1553
     25 C23         2.5516    2.4511    0.9845 C.ar      1 <0>        -0.0830
     26 C24         2.6575    3.6217    1.7117 C.ar      1 <0>        -0.1607
     27 C25         3.2393    4.7449    1.1410 C.ar      1 <0>         0.1250
     28 C26         3.7249    4.6895   -0.1562 C.ar      1 <0>        -0.1479
     29 O2          3.3380    5.8967    1.8554 O.3       1 <0>        -0.4962
     30 H1         21.3958    1.0798   -8.2125 H         1 <0>         0.0534
     31 H2         20.6729    2.5628   -7.5445 H         1 <0>         0.0534
     32 H3         21.9180    1.6864   -6.6226 H         1 <0>         0.0536
     33 H4         19.6560    1.2406   -5.7097 H         1 <0>         0.0606
     34 H5         20.3790   -0.2424   -6.3777 H         1 <0>         0.0606
     35 H6         19.1172    0.0921   -8.4859 H         1 <0>         0.0613
     36 H7         18.3942    1.5751   -7.8179 H         1 <0>         0.0610
     37 H8         17.3774    0.2529   -5.9831 H         1 <0>         0.0621
     38 H9         18.1004   -1.2301   -6.6511 H         1 <0>         0.0617
     39 H10        16.8386   -0.8956   -8.7594 H         1 <0>         0.0688
     40 H11        16.1156    0.5874   -8.0913 H         1 <0>         0.0747
     41 H12        15.6888   -2.1728   -6.7353 H         1 <0>         0.1089
     42 H13        13.4663   -1.3030   -6.5536 H         1 <0>         0.1085
     43 H14        14.6476    0.7489   -8.5621 H         1 <0>         0.0830
     44 H15        13.6012    1.2643   -7.2175 H         1 <0>         0.0830
     45 H16        12.6002   -0.6797   -9.4241 H         1 <0>         0.1098
     46 H17        10.6332    0.6585   -9.1624 H         1 <0>         0.1098
     47 H18        12.6364    2.3786   -7.5256 H         1 <0>         0.0835
     48 H19        10.9584    2.1237   -6.9891 H         1 <0>         0.0833
     49 H20        11.6265    3.5392   -9.6724 H         1 <0>         0.1099
     50 H21         9.8009    4.9096   -8.9531 H         1 <0>         0.1099
     51 H22        10.2900    3.3056   -6.3381 H         1 <0>         0.0832
     52 H23         8.6497    3.6855   -6.9155 H         1 <0>         0.0835
     53 H24        10.6833    5.9108   -6.1651 H         1 <0>         0.1096
     54 H25         8.6944    6.8765   -5.2491 H         1 <0>         0.1106
     55 H26         7.6333    4.0221   -5.8631 H         1 <0>         0.0772
     56 H27         6.6468    5.4752   -6.1522 H         1 <0>         0.0710
     57 H28         6.7497    6.0256   -3.7366 H         1 <0>         0.0720
     58 H29         7.7361    4.5725   -3.4475 H         1 <0>         0.0725
     59 H30         5.8912    3.1508   -4.2983 H         1 <0>         0.0976
     60 H31         4.9048    4.6040   -4.5874 H         1 <0>         0.0990
     61 H32         3.6523    2.9165   -2.8579 H         1 <0>         0.4129
     62 H33         2.9536    1.4751   -0.8731 H         1 <0>         0.1289
     63 H34         2.0946    1.5796    1.4295 H         1 <0>         0.1326
     64 H35         2.2835    3.6635    2.7240 H         1 <0>         0.1307
     65 H36         4.1817    5.5615   -0.6005 H         1 <0>         0.1385
     66 H37         2.5788    6.4873    1.7563 H         1 <0>         0.3921
@<TRIPOS>BOND
     1    1    2 1
     2    1   30 1
     3    1   31 1
     4    1   32 1
     5    2    3 1
     6    2   33 1
     7    2   34 1
     8    3    4 1
     9    3   35 1
    10    3   36 1
    11    4    5 1
    12    4   37 1
    13    4   38 1
    14    5    6 1
    15    5   39 1
    16    5   40 1
    17    6    7 2
    18    6   41 1
    19    7    8 1
    20    7   42 1
    21    8    9 1
    22    8   43 1
    23    8   44 1
    24    9   10 2
    25    9   45 1
    26   10   11 1
    27   10   46 1
    28   11   12 1
    29   11   47 1
    30   11   48 1
    31   12   13 2
    32   12   49 1
    33   13   14 1
    34   13   50 1
    35   14   15 1
    36   14   51 1
    37   14   52 1
    38   15   16 2
    39   15   53 1
    40   16   17 1
    41   16   54 1
    42   17   18 1
    43   17   55 1
    44   17   56 1
    45   18   19 1
    46   18   57 1
    47   18   58 1
    48   19   20 1
    49   19   59 1
    50   19   60 1
    51   20   21 2
    52   20   22 am
    53   22   23 1
    54   22   61 1
    55   23   28 ar
    56   23   24 ar
    57   24   25 ar
    58   24   62 1
    59   25   26 ar
    60   25   63 1
    61   26   27 ar
    62   26   64 1
    63   27   28 ar
    64   27   29 1
    65   28   65 1
    66   29   66 1
@<TRIPOS>MOLECULE
ZINC13675373
   61    60     0     0     0
SMALL
USER_CHARGES

@<TRIPOS>ATOM
      1 C1          0.6453    3.0200   -2.1184 C.3       1 <0>        -0.1543
      2 C2          0.9747    1.5406   -1.9090 C.3       1 <0>        -0.1260
      3 C3          1.2342    0.8791   -3.2640 C.3       1 <0>        -0.1214
      4 C4          1.5635   -0.6003   -3.0546 C.3       1 <0>        -0.1145
      5 C5          1.8231   -1.2617   -4.4095 C.3       1 <0>        -0.1026
      6 C6          2.1475   -2.7189   -4.2033 C.2       1 <0>        -0.1578
      7 C7          1.4879   -3.6368   -4.8654 C.2       1 <0>        -0.1537
      8 C8          0.5222   -3.2356   -5.9506 C.3       1 <0>        -0.0838
      9 C9          0.8663   -3.9645   -7.2239 C.2       1 <0>        -0.1506
     10 C10        -0.0571   -4.6399   -7.8620 C.2       1 <0>        -0.1525
     11 C11        -1.4947   -4.5556   -7.4178 C.3       1 <0>        -0.0838
     12 C12        -2.3604   -4.1684   -8.5889 C.2       1 <0>        -0.1514
     13 C13        -3.4010   -4.8991   -8.9041 C.2       1 <0>        -0.1519
     14 C14        -3.8363   -6.0212   -7.9973 C.3       1 <0>        -0.0833
     15 C15        -5.2963   -5.8582   -7.6615 C.2       1 <0>        -0.1517
     16 C16        -6.1304   -6.8470   -7.8682 C.2       1 <0>        -0.1574
     17 C17        -5.6088   -8.1980   -8.2850 C.3       1 <0>        -0.1016
     18 C18        -6.1669   -9.2713   -7.3483 C.3       1 <0>        -0.0995
     19 C19        -5.6374  -10.6430   -7.7715 C.3       1 <0>        -0.1402
     20 C20        -6.1871  -11.7002   -6.8489 C.2       1 <0>         0.5136
     21 O1         -6.9293  -11.3874   -5.9421 O.2       1 <0>        -0.5320
     22 N1         -5.8539  -12.9933   -7.0314 N.am      1 <0>        -0.7361
     23 C21        -6.3883  -14.0210   -6.1345 C.3       1 <0>         0.1079
     24 C22        -5.8588  -15.3927   -6.5577 C.3       1 <0>        -0.0498
     25 Cl1        -6.5164  -16.6575   -5.4539 Cl        1 <0>        -0.1588
     26 H1          1.4846    3.5132   -2.6087 H         1 <0>         0.0534
     27 H2         -0.2437    3.1095   -2.7426 H         1 <0>         0.0534
     28 H3          0.4604    3.4912   -1.1531 H         1 <0>         0.0536
     29 H4          1.8637    1.4511   -1.2847 H         1 <0>         0.0606
     30 H5          0.1353    1.0474   -1.4187 H         1 <0>         0.0606
     31 H6          0.3451    0.9686   -3.8882 H         1 <0>         0.0610
     32 H7          2.0735    1.3723   -3.7542 H         1 <0>         0.0613
     33 H8          2.4526   -0.6897   -2.4303 H         1 <0>         0.0617
     34 H9          0.7242   -1.0935   -2.5643 H         1 <0>         0.0620
     35 H10         0.9340   -1.1722   -5.0338 H         1 <0>         0.0756
     36 H11         2.6624   -0.7685   -4.8998 H         1 <0>         0.0688
     37 H12         2.9237   -3.0063   -3.5096 H         1 <0>         0.1089
     38 H13         1.6361   -4.6812   -4.6336 H         1 <0>         0.1085
     39 H14        -0.4926   -3.4932   -5.6473 H         1 <0>         0.0830
     40 H15         0.5897   -2.1606   -6.1177 H         1 <0>         0.0841
     41 H16         1.8742   -3.9300   -7.6103 H         1 <0>         0.1097
     42 H17         0.2118   -5.2572   -8.7064 H         1 <0>         0.1097
     43 H18        -1.8140   -5.5248   -7.0346 H         1 <0>         0.0833
     44 H19        -1.5889   -3.8055   -6.6326 H         1 <0>         0.0835
     45 H20        -2.1230   -3.2885   -9.1684 H         1 <0>         0.1098
     46 H21        -3.9470   -4.6972   -9.8138 H         1 <0>         0.1098
     47 H22        -3.6838   -6.9756   -8.5013 H         1 <0>         0.0834
     48 H23        -3.2476   -5.9965   -7.0803 H         1 <0>         0.0831
     49 H24        -5.6550   -4.9261   -7.2504 H         1 <0>         0.1094
     50 H25        -7.1917   -6.6940   -7.7398 H         1 <0>         0.1106
     51 H26        -5.9227   -8.4090   -9.3073 H         1 <0>         0.0707
     52 H27        -4.5201   -8.1995   -8.2316 H         1 <0>         0.0767
     53 H28        -5.8530   -9.0603   -6.3260 H         1 <0>         0.0716
     54 H29        -7.2556   -9.2698   -7.4017 H         1 <0>         0.0714
     55 H30        -5.9513  -10.8540   -8.7938 H         1 <0>         0.0956
     56 H31        -4.5487  -10.6445   -7.7181 H         1 <0>         0.0952
     57 H32        -5.2603  -13.2435   -7.7566 H         1 <0>         0.4022
     58 H33        -6.0744  -13.8100   -5.1122 H         1 <0>         0.0804
     59 H34        -7.4770  -14.0195   -6.1879 H         1 <0>         0.0805
     60 H35        -6.1727  -15.6037   -7.5800 H         1 <0>         0.1001
     61 H36        -4.7701  -15.3942   -6.5043 H         1 <0>         0.1001
@<TRIPOS>BOND
     1    1    2 1
     2    1   26 1
     3    1   27 1
     4    1   28 1
     5    2    3 1
     6    2   29 1
     7    2   30 1
     8    3    4 1
     9    3   31 1
    10    3   32 1
    11    4    5 1
    12    4   33 1
    13    4   34 1
    14    5    6 1
    15    5   35 1
    16    5   36 1
    17    6    7 2
    18    6   37 1
    19    7    8 1
    20    7   38 1
    21    8    9 1
    22    8   39 1
    23    8   40 1
    24    9   10 2
    25    9   41 1
    26   10   11 1
    27   10   42 1
    28   11   12 1
    29   11   43 1
    30   11   44 1
    31   12   13 2
    32   12   45 1
    33   13   14 1
    34   13   46 1
    35   14   15 1
    36   14   47 1
    37   14   48 1
    38   15   16 2
    39   15   49 1
    40   16   17 1
    41   16   50 1
    42   17   18 1
    43   17   51 1
    44   17   52 1
    45   18   19 1
    46   18   53 1
    47   18   54 1
    48   19   20 1
    49   19   55 1
    50   19   56 1
    51   20   21 2
    52   20   22 am
    53   22   23 1
    54   22   57 1
    55   23   24 1
    56   23   58 1
    57   23   59 1
    58   24   25 1
    59   24   60 1
    60   24   61 1
@<TRIPOS>MOLECULE
ZINC03809850
   62    61     0     0     0
SMALL
USER_CHARGES

@<TRIPOS>ATOM
      1 C1         -2.2312    2.9666    0.4945 C.3       1 <0>        -0.1543
      2 C2         -2.1773    1.4868    0.1097 C.3       1 <0>        -0.1260
      3 C3         -3.4636    0.7944    0.5647 C.3       1 <0>        -0.1214
      4 C4         -3.4097   -0.6855    0.1800 C.3       1 <0>        -0.1146
      5 C5         -4.6960   -1.3779    0.6349 C.3       1 <0>        -0.1025
      6 C6         -4.6429   -2.8355    0.2560 C.2       1 <0>        -0.1582
      7 C7         -4.8635   -3.7561    1.1614 C.2       1 <0>        -0.1534
      8 C8         -5.3306   -3.3617    2.5389 C.3       1 <0>        -0.0837
      9 C9         -6.5867   -4.1212    2.8800 C.2       1 <0>        -0.1511
     10 C10        -6.6608   -4.7947    4.0011 C.2       1 <0>        -0.1520
     11 C11        -5.5599   -4.6791    5.0237 C.3       1 <0>        -0.0839
     12 C12        -6.1510   -4.3020    6.3577 C.2       1 <0>        -0.1519
     13 C13        -5.8856   -5.0225    7.4190 C.2       1 <0>        -0.1513
     14 C14        -4.8547   -6.1194    7.3465 C.3       1 <0>        -0.0836
     15 C15        -3.8385   -5.9270    8.4425 C.2       1 <0>        -0.1524
     16 C16        -3.5758   -6.9066    9.2716 C.2       1 <0>        -0.1566
     17 C17        -4.1634   -8.2737    9.0331 C.3       1 <0>        -0.1019
     18 C18        -3.0466   -9.3192    9.0518 C.3       1 <0>        -0.0985
     19 C19        -3.6432  -10.7071    8.8097 C.3       1 <0>        -0.1408
     20 C20        -2.5431  -11.7370    8.8281 C.2       1 <0>         0.5104
     21 O1         -1.3950  -11.3946    9.0165 O.2       1 <0>        -0.5404
     22 N1         -2.8352  -13.0385    8.6354 N.am      1 <0>        -0.7286
     23 C21        -1.7658  -14.0397    8.6533 C.3       1 <0>         0.1176
     24 C22        -2.3624  -15.4276    8.4112 C.3       1 <0>         0.0628
     25 O2         -2.9130  -15.4861    7.0938 O.3       1 <0>        -0.5722
     26 H1         -1.3148    3.4599    0.1703 H         1 <0>         0.0535
     27 H2         -3.0875    3.4368    0.0110 H         1 <0>         0.0534
     28 H3         -2.3296    3.0574    1.5762 H         1 <0>         0.0534
     29 H4         -2.0789    1.3959   -0.9720 H         1 <0>         0.0605
     30 H5         -1.3210    1.0166    0.5932 H         1 <0>         0.0606
     31 H6         -3.5620    0.8852    1.6464 H         1 <0>         0.0610
     32 H7         -4.3199    1.2645    0.0812 H         1 <0>         0.0613
     33 H8         -3.3113   -0.7763   -0.9018 H         1 <0>         0.0616
     34 H9         -2.5534   -1.1557    0.6635 H         1 <0>         0.0621
     35 H10        -4.7944   -1.2871    1.7167 H         1 <0>         0.0756
     36 H11        -5.5523   -0.9077    0.1514 H         1 <0>         0.0687
     37 H12        -4.4230   -3.1211   -0.7621 H         1 <0>         0.1088
     38 H13        -4.7107   -4.7978    0.9208 H         1 <0>         0.1086
     39 H14        -4.5545   -3.5973    3.2670 H         1 <0>         0.0830
     40 H15        -5.5360   -2.2914    2.5602 H         1 <0>         0.0840
     41 H16        -7.4259   -4.1101    2.2002 H         1 <0>         0.1096
     42 H17        -7.5108   -5.4329    4.1925 H         1 <0>         0.1098
     43 H18        -5.0443   -5.6354    5.1121 H         1 <0>         0.0835
     44 H19        -4.8518   -3.9121    4.7102 H         1 <0>         0.0834
     45 H20        -6.7935   -3.4376    6.4387 H         1 <0>         0.1097
     46 H21        -6.4054   -4.8305    8.3460 H         1 <0>         0.1098
     47 H22        -5.3434   -7.0860    7.4698 H         1 <0>         0.0837
     48 H23        -4.3556   -6.0855    6.3781 H         1 <0>         0.0830
     49 H24        -3.3267   -4.9814    8.5444 H         1 <0>         0.1092
     50 H25        -2.9381   -6.7345   10.1261 H         1 <0>         0.1103
     51 H26        -4.8864   -8.5002    9.8168 H         1 <0>         0.0705
     52 H27        -4.6612   -8.2911    8.0635 H         1 <0>         0.0766
     53 H28        -2.3236   -9.0927    8.2682 H         1 <0>         0.0711
     54 H29        -2.5488   -9.3018   10.0214 H         1 <0>         0.0706
     55 H30        -4.3661  -10.9337    9.5933 H         1 <0>         0.0937
     56 H31        -4.1409  -10.7245    7.8401 H         1 <0>         0.0940
     57 H32        -3.7534  -13.3124    8.4848 H         1 <0>         0.4035
     58 H33        -1.0428  -13.8132    7.8697 H         1 <0>         0.0752
     59 H34        -1.2680  -14.0223    9.6229 H         1 <0>         0.0823
     60 H35        -1.5816  -16.1814    8.5125 H         1 <0>         0.0647
     61 H36        -3.1482  -15.6179    9.1422 H         1 <0>         0.0540
     62 H37        -3.3095  -16.3394    6.8708 H         1 <0>         0.3841
@<TRIPOS>BOND
     1    1    2 1
     2    1   26 1
     3    1   27 1
     4    1   28 1
     5    2    3 1
     6    2   29 1
     7    2   30 1
     8    3    4 1
     9    3   31 1
    10    3   32 1
    11    4    5 1
    12    4   33 1
    13    4   34 1
    14    5    6 1
    15    5   35 1
    16    5   36 1
    17    6    7 2
    18    6   37 1
    19    7    8 1
    20    7   38 1
    21    8    9 1
    22    8   39 1
    23    8   40 1
    24    9   10 2
    25    9   41 1
    26   10   11 1
    27   10   42 1
    28   11   12 1
    29   11   43 1
    30   11   44 1
    31   12   13 2
    32   12   45 1
    33   13   14 1
    34   13   46 1
    35   14   15 1
    36   14   47 1
    37   14   48 1
    38   15   16 2
    39   15   49 1
    40   16   17 1
    41   16   50 1
    42   17   18 1
    43   17   51 1
    44   17   52 1
    45   18   19 1
    46   18   53 1
    47   18   54 1
    48   19   20 1
    49   19   55 1
    50   19   56 1
    51   20   21 2
    52   20   22 am
    53   22   23 1
    54   22   57 1
    55   23   24 1
    56   23   58 1
    57   23   59 1
    58   24   25 1
    59   24   60 1
    60   24   61 1
    61   25   62 1
@<TRIPOS>MOLECULE
ZINC13672830
   50    53     0     0     0
SMALL
USER_CHARGES
(2-iodophenyl)-[1-[[(2S)-1-methyl-2-piperidyl]methyl]indol-3-yl]methanone
@<TRIPOS>ATOM
      1 C1          0.0674    1.8083    1.7103 C.3       1 <0>        -0.0525
      2 C2          0.2500   -0.0391    0.1565 C.3       1 <0>         0.0001
      3 C3          0.6130   -0.4097   -1.2832 C.3       1 <0>        -0.1485
      4 C4          2.0976   -0.1202   -1.5208 C.3       1 <0>        -0.1350
      5 C5          2.3740    1.3578   -1.2316 C.3       1 <0>        -0.1469
      6 C6          1.9600    1.6772    0.2067 C.3       1 <0>         0.0108
      7 H1          2.5437    1.0676    0.8965 H         1 <0>         0.1440
      8 C7          2.2158    3.1581    0.4938 C.3       1 <0>         0.0889
      9 N1          3.6491    3.4378    0.3764 N.pl3     1 <0>        -0.4681
     10 C8          4.5332    3.3801    1.3999 C.2       1 <0>         0.1184
     11 C9          5.7831    3.6974    0.9486 C.2       1 <0>        -0.2208
     12 C10         5.6476    3.9762   -0.4932 C.ar      1 <0>        -0.0577
     13 C11         4.2886    3.7915   -0.7943 C.ar      1 <0>         0.0832
     14 C12         3.8478    3.9795   -2.0998 C.ar      1 <0>        -0.1328
     15 C13         4.7438    4.3401   -3.0830 C.ar      1 <0>        -0.0880
     16 C14         6.0863    4.5191   -2.7845 C.ar      1 <0>        -0.1274
     17 C15         6.5410    4.3454   -1.4950 C.ar      1 <0>        -0.0614
     18 C16         7.0167    3.7509    1.7420 C.2       1 <0>         0.4608
     19 O1          8.0747    4.0203    1.2044 O.2       1 <0>        -0.4239
     20 C17         6.9739    3.4776    3.1943 C.ar      1 <0>        -0.1153
     21 C18         7.4673    2.2714    3.6959 C.ar      1 <0>        -0.0821
     22 C19         7.4248    2.0230    5.0517 C.ar      1 <0>        -0.0983
     23 C20         6.8951    2.9661    5.9154 C.ar      1 <0>        -0.0979
     24 C21         6.4049    4.1633    5.4260 C.ar      1 <0>        -0.0852
     25 C22         6.4451    4.4270    4.0715 C.ar      1 <0>        -0.0824
     26 I1          5.7088    6.2440    3.3330 I         1 <0>        -0.0251
     27 H2          0.6420    1.2912    2.4787 H         1 <0>         0.1261
     28 H3          0.2045    2.8844    1.8166 H         1 <0>         0.1225
     29 H4         -0.9892    1.5640    1.8207 H         1 <0>         0.1288
     30 H5         -0.8097   -0.2306    0.3247 H         1 <0>         0.1327
     31 H6          0.8418   -0.6405    0.8466 H         1 <0>         0.1305
     32 H7          0.0118    0.1817   -1.9738 H         1 <0>         0.0888
     33 H8          0.4183   -1.4697   -1.4462 H         1 <0>         0.1141
     34 H9          2.3506   -0.3420   -2.5576 H         1 <0>         0.0972
     35 H10         2.7004   -0.7402   -0.8572 H         1 <0>         0.0814
     36 H11         3.4375    1.5606   -1.3578 H         1 <0>         0.1172
     37 H12         1.8006    1.9770   -1.9214 H         1 <0>         0.0905
     38 H13         1.6667    3.7675   -0.2239 H         1 <0>         0.1127
     39 H14         1.8808    3.3955    1.5035 H         1 <0>         0.1154
     40 H15         4.2876    3.1224    2.4195 H         1 <0>         0.1769
     41 H16         2.8045    3.8427   -2.3430 H         1 <0>         0.1183
     42 H17         4.3971    4.4851   -4.0955 H         1 <0>         0.1325
     43 H18         6.7774    4.8024   -3.5646 H         1 <0>         0.1327
     44 H19         7.5872    4.4836   -1.2652 H         1 <0>         0.1365
     45 H20         7.8809    1.5345    3.0234 H         1 <0>         0.1359
     46 H21         7.8062    1.0904    5.4407 H         1 <0>         0.1385
     47 H22         6.8647    2.7663    6.9763 H         1 <0>         0.1385
     48 H23         5.9933    4.8950    6.1054 H         1 <0>         0.1370
     49 N2          0.5161    1.4003    0.3630 N.4       1 <0>        -0.3902
     50 H24        -0.0042    1.9393   -0.3391 H         1 <0>         0.4285
@<TRIPOS>BOND
     1    1   27 1
     2    1   28 1
     3    1   29 1
     4    1   49 1
     5    2    3 1
     6    2   30 1
     7    2   31 1
     8    2   49 1
     9    3    4 1
    10    3   32 1
    11    3   33 1
    12    4    5 1
    13    4   34 1
    14    4   35 1
    15    5    6 1
    16    5   36 1
    17    5   37 1
    18    6    7 1
    19    6    8 1
    20    6   49 1
    21    8    9 1
    22    8   38 1
    23    8   39 1
    24    9   13 1
    25    9   10 1
    26   10   11 2
    27   10   40 1
    28   11   12 1
    29   11   18 1
    30   12   17 ar
    31   12   13 ar
    32   13   14 ar
    33   14   15 ar
    34   14   41 1
    35   15   16 ar
    36   15   42 1
    37   16   17 ar
    38   16   43 1
    39   17   44 1
    40   18   19 2
    41   18   20 1
    42   20   25 ar
    43   20   21 ar
    44   21   22 ar
    45   21   45 1
    46   22   23 ar
    47   22   46 1
    48   23   24 ar
    49   23   47 1
    50   24   25 ar
    51   24   48 1
    52   25   26 1
    53   49   50 1
@<TRIPOS>MOLECULE
ZINC13816329
   63    62     0     0     0
SMALL
USER_CHARGES

@<TRIPOS>ATOM
      1 C1         -2.2312    2.9666    0.4945 C.3       1 <0>        -0.1548
      2 C2         -2.1773    1.4868    0.1097 C.3       1 <0>        -0.1258
      3 C3         -3.4636    0.7944    0.5647 C.3       1 <0>        -0.1217
      4 C4         -3.4097   -0.6855    0.1800 C.3       1 <0>        -0.1143
      5 C5         -4.6960   -1.3779    0.6349 C.3       1 <0>        -0.1037
      6 C6         -4.6429   -2.8355    0.2560 C.2       1 <0>        -0.1531
      7 C7         -4.8635   -3.7561    1.1614 C.2       1 <0>        -0.1580
      8 C8         -5.3306   -3.3617    2.5389 C.3       1 <0>        -0.0841
      9 C9         -6.5867   -4.1212    2.8800 C.2       1 <0>        -0.1456
     10 C10        -6.6608   -4.7947    4.0011 C.2       1 <0>        -0.1578
     11 C11        -5.5599   -4.6791    5.0237 C.3       1 <0>        -0.0829
     12 C12        -6.1510   -4.3020    6.3577 C.2       1 <0>        -0.1453
     13 C13        -5.8856   -5.0225    7.4190 C.2       1 <0>        -0.1587
     14 C14        -4.8547   -6.1194    7.3465 C.3       1 <0>        -0.0825
     15 C15        -3.8385   -5.9270    8.4425 C.2       1 <0>        -0.1412
     16 C16        -3.5758   -6.9066    9.2716 C.2       1 <0>        -0.1679
     17 C17        -4.1634   -8.2737    9.0331 C.3       1 <0>        -0.0996
     18 C18        -3.0466   -9.3192    9.0518 C.3       1 <0>        -0.1075
     19 C19        -3.6432  -10.7071    8.8097 C.3       1 <0>        -0.1124
     20 C20        -2.5431  -11.7370    8.8281 C.2       1 <0>         0.4675
     21 O1         -1.3993  -11.3959    9.0157 O.2       1 <0>        -0.4819
     22 O2         -2.8340  -13.0332    8.6362 O.3       1 <0>        -0.3743
     23 C21        -1.7421  -13.9546    8.6665 C.3       1 <0>         0.0254
     24 C22        -2.2648  -15.3729    8.4302 C.3       1 <0>         0.0028
     25 N1         -2.8184  -15.4710    7.0730 N.4       1 <0>        -0.6384
     26 H1         -1.3148    3.4599    0.1703 H         1 <0>         0.0542
     27 H2         -3.0875    3.4368    0.0110 H         1 <0>         0.0540
     28 H3         -2.3296    3.0574    1.5762 H         1 <0>         0.0533
     29 H4         -2.0789    1.3959   -0.9720 H         1 <0>         0.0609
     30 H5         -1.3210    1.0166    0.5932 H         1 <0>         0.0601
     31 H6         -3.5620    0.8852    1.6464 H         1 <0>         0.0608
     32 H7         -4.3199    1.2645    0.0812 H         1 <0>         0.0620
     33 H8         -3.3113   -0.7763   -0.9018 H         1 <0>         0.0622
     34 H9         -2.5534   -1.1557    0.6635 H         1 <0>         0.0614
     35 H10        -4.7944   -1.2871    1.7167 H         1 <0>         0.0754
     36 H11        -5.5523   -0.9077    0.1514 H         1 <0>         0.0703
     37 H12        -4.4230   -3.1211   -0.7621 H         1 <0>         0.1095
     38 H13        -4.7107   -4.7978    0.9208 H         1 <0>         0.1074
     39 H14        -4.5545   -3.5973    3.2670 H         1 <0>         0.0818
     40 H15        -5.5360   -2.2914    2.5602 H         1 <0>         0.0856
     41 H16        -7.4259   -4.1101    2.2002 H         1 <0>         0.1108
     42 H17        -7.5108   -5.4329    4.1925 H         1 <0>         0.1094
     43 H18        -5.0443   -5.6354    5.1121 H         1 <0>         0.0807
     44 H19        -4.8518   -3.9121    4.7102 H         1 <0>         0.0848
     45 H20        -6.7935   -3.4376    6.4387 H         1 <0>         0.1119
     46 H21        -6.4054   -4.8305    8.3460 H         1 <0>         0.1108
     47 H22        -5.3434   -7.0860    7.4698 H         1 <0>         0.0809
     48 H23        -4.3556   -6.0855    6.3781 H         1 <0>         0.0840
     49 H24        -3.3267   -4.9814    8.5444 H         1 <0>         0.1124
     50 H25        -2.9381   -6.7345   10.1261 H         1 <0>         0.1122
     51 H26        -4.8864   -8.5002    9.8168 H         1 <0>         0.0741
     52 H27        -4.6612   -8.2911    8.0635 H         1 <0>         0.0796
     53 H28        -2.3236   -9.0927    8.2682 H         1 <0>         0.0755
     54 H29        -2.5488   -9.3018   10.0214 H         1 <0>         0.0762
     55 H30        -4.3661  -10.9337    9.5933 H         1 <0>         0.1136
     56 H31        -4.1409  -10.7245    7.8401 H         1 <0>         0.1107
     57 H32        -1.0268  -13.6961    7.8857 H         1 <0>         0.0939
     58 H33        -1.2520  -13.9052    9.6389 H         1 <0>         0.1155
     59 H34        -1.4469  -16.0848    8.5413 H         1 <0>         0.1550
     60 H35        -3.0444  -15.5988    9.1578 H         1 <0>         0.1463
     61 H36        -3.1631  -16.4064    6.9172 H         1 <0>         0.4414
     62 H37        -3.5755  -14.8120    6.9702 H         1 <0>         0.4408
     63 H38        -2.0967  -15.2619    6.3995 H         1 <0>         0.4358
@<TRIPOS>BOND
     1    1    2 1
     2    1   26 1
     3    1   27 1
     4    1   28 1
     5    2    3 1
     6    2   29 1
     7    2   30 1
     8    3    4 1
     9    3   31 1
    10    3   32 1
    11    4    5 1
    12    4   33 1
    13    4   34 1
    14    5    6 1
    15    5   35 1
    16    5   36 1
    17    6    7 2
    18    6   37 1
    19    7    8 1
    20    7   38 1
    21    8    9 1
    22    8   39 1
    23    8   40 1
    24    9   10 2
    25    9   41 1
    26   10   11 1
    27   10   42 1
    28   11   12 1
    29   11   43 1
    30   11   44 1
    31   12   13 2
    32   12   45 1
    33   13   14 1
    34   13   46 1
    35   14   15 1
    36   14   47 1
    37   14   48 1
    38   15   16 2
    39   15   49 1
    40   16   17 1
    41   16   50 1
    42   17   18 1
    43   17   51 1
    44   17   52 1
    45   18   19 1
    46   18   53 1
    47   18   54 1
    48   19   20 1
    49   19   55 1
    50   19   56 1
    51   20   21 2
    52   20   22 1
    53   22   23 1
    54   23   24 1
    55   23   57 1
    56   23   58 1
    57   24   25 1
    58   24   59 1
    59   24   60 1
    60   25   61 1
    61   25   62 1
    62   25   63 1
@<TRIPOS>MOLECULE
ZINC25783468
   58    63     0     0     0
SMALL
USER_CHARGES

@<TRIPOS>ATOM
      1 C1         -0.0374    1.5268   -0.0073 C.3       1 <0>        -0.1044
      2 C2         -0.0077    0.0201   -0.0011 C.2       1 <0>         0.1547
      3 C3          0.0066   -0.7741   -1.1268 C.2       1 <0>        -0.2554
      4 C4          0.0350   -2.1719   -0.6642 C.ar      1 <0>        -0.0233
      5 C5          0.0587   -3.4480   -1.2264 C.ar      1 <0>        -0.1048
      6 C6          0.0811   -4.5535   -0.3988 C.ar      1 <0>        -0.0978
      7 C7          0.0810   -4.4382    0.9903 C.ar      1 <0>        -0.1296
      8 C8          0.0586   -3.1921    1.5629 C.ar      1 <0>         0.1205
      9 C9          0.0360   -2.0798    0.7175 C.ar      1 <0>        -0.0026
     10 N1          0.0145   -0.7420    1.0985 N.pl3     1 <0>        -0.4650
     11 C10         0.0177   -0.4438    2.5386 C.3       1 <0>         0.1137
     12 H1         -0.6023    0.4308    2.7355 H         1 <0>         0.1113
     13 C11        -0.5557   -1.6636    3.2747 C.3       1 <0>         0.0655
     14 O1          0.0567   -2.8934    2.8886 O.3       1 <0>        -0.3019
     15 C12         1.4494   -0.1797    3.0092 C.3       1 <0>         0.0483
     16 N2          1.4330    0.2340    4.4187 N.3       1 <0>        -0.5319
     17 C13         0.7735    1.5383    4.5774 C.3       1 <0>         0.0086
     18 C14         0.7254    1.9023    6.0636 C.3       1 <0>         0.0640
     19 O2          2.0539    1.8993    6.5933 O.3       1 <0>        -0.3830
     20 C15         2.7255    0.6441    6.4561 C.3       1 <0>         0.0635
     21 C16         2.7939    0.2674    4.9738 C.3       1 <0>         0.0203
     22 C17        -0.0050   -0.3146   -2.5213 C.2       1 <0>         0.4865
     23 O3         -1.0583   -0.2315   -3.1261 O.2       1 <0>        -0.4401
     24 C18         1.2594    0.0462   -3.1892 C.ar      1 <0>        -0.1579
     25 C19         2.4789   -0.1528   -2.5542 C.ar      1 <0>        -0.0402
     26 C20         3.6674    0.1881   -3.1851 C.ar      1 <0>        -0.1396
     27 C21         3.6882    0.7244   -4.4362 C.ar      1 <0>        -0.0651
     28 C22         2.4927    0.9533   -5.1376 C.ar      1 <0>        -0.0674
     29 C23         1.2562    0.6149   -4.5351 C.ar      1 <0>        -0.0124
     30 C24         0.0629    0.8364   -5.2330 C.ar      1 <0>        -0.1198
     31 C25         0.1048    1.3695   -6.4869 C.ar      1 <0>        -0.1084
     32 C26         1.3194    1.6976   -7.0848 C.ar      1 <0>        -0.1179
     33 C27         2.4977    1.5071   -6.4296 C.ar      1 <0>        -0.1043
     34 H2          0.9829    1.9103   -0.0155 H         1 <0>         0.0860
     35 H3         -0.5640    1.8761   -0.8954 H         1 <0>         0.0890
     36 H4         -0.5525    1.8837    0.8845 H         1 <0>         0.0740
     37 H5          0.0591   -3.5706   -2.2994 H         1 <0>         0.1262
     38 H6          0.0990   -5.5383   -0.8419 H         1 <0>         0.1327
     39 H7          0.0979   -5.3223    1.6103 H         1 <0>         0.1377
     40 H8         -0.4207   -1.5222    4.3470 H         1 <0>         0.1380
     41 H9         -1.6228   -1.7318    3.0632 H         1 <0>         0.0655
     42 H10         2.0400   -1.0898    2.9045 H         1 <0>         0.0918
     43 H11         1.8909    0.6116    2.4034 H         1 <0>         0.0479
     44 H12         1.3351    2.2985    4.0344 H         1 <0>         0.0484
     45 H13        -0.2411    1.4834    4.1830 H         1 <0>         0.0852
     46 H14         0.2888    2.8940    6.1815 H         1 <0>         0.1007
     47 H15         0.1189    1.1710    6.5980 H         1 <0>         0.0624
     48 H16         3.7355    0.7260    6.8578 H         1 <0>         0.1018
     49 H17         2.1772   -0.1237    7.0019 H         1 <0>         0.0632
     50 H18         3.2541   -0.7151    4.8688 H         1 <0>         0.0909
     51 H19         3.3878    1.0073    4.4372 H         1 <0>         0.0468
     52 H20         2.5024   -0.5762   -1.5610 H         1 <0>         0.1312
     53 H21         4.6016    0.0237   -2.6688 H         1 <0>         0.1284
     54 H22         4.6333    0.9767   -4.8940 H         1 <0>         0.1308
     55 H23        -0.8854    0.5860   -4.7808 H         1 <0>         0.1584
     56 H24        -0.8164    1.5396   -7.0244 H         1 <0>         0.1255
     57 H25         1.3260    2.1188   -8.0792 H         1 <0>         0.1246
     58 H26         3.4318    1.7666   -6.9055 H         1 <0>         0.1291
@<TRIPOS>BOND
     1    1    2 1
     2    1   34 1
     3    1   35 1
     4    1   36 1
     5    2   10 1
     6    2    3 2
     7    3    4 1
     8    3   22 1
     9    4    9 ar
    10    4    5 ar
    11    5    6 ar
    12    5   37 1
    13    6    7 ar
    14    6   38 1
    15    7    8 ar
    16    7   39 1
    17    8   14 1
    18    8    9 ar
    19    9   10 1
    20   10   11 1
    21   11   12 1
    22   11   13 1
    23   11   15 1
    24   13   14 1
    25   13   40 1
    26   13   41 1
    27   15   16 1
    28   15   42 1
    29   15   43 1
    30   16   21 1
    31   16   17 1
    32   17   18 1
    33   17   44 1
    34   17   45 1
    35   18   19 1
    36   18   46 1
    37   18   47 1
    38   19   20 1
    39   20   21 1
    40   20   48 1
    41   20   49 1
    42   21   50 1
    43   21   51 1
    44   22   23 2
    45   22   24 1
    46   24   29 ar
    47   24   25 ar
    48   25   26 ar
    49   25   52 1
    50   26   27 ar
    51   26   53 1
    52   27   28 ar
    53   27   54 1
    54   28   33 ar
    55   28   29 ar
    56   29   30 ar
    57   30   31 ar
    58   30   55 1
    59   31   32 ar
    60   31   56 1
    61   32   33 ar
    62   32   57 1
    63   33   58 1
@<TRIPOS>MOLECULE
ZINC13476371
   52    56     0     0     0
SMALL
USER_CHARGES

@<TRIPOS>ATOM
      1 C1         -1.0078    1.4178    0.0275 C.3       1 <0>        -0.1176
      2 C2         -0.7719   -0.0706    0.0154 C.ar      1 <0>        -0.0682
      3 C3         -0.6991   -0.7488   -1.1885 C.ar      1 <0>        -0.1178
      4 C4         -0.4830   -2.1105   -1.2087 C.ar      1 <0>        -0.0923
      5 C5         -0.3365   -2.8113   -0.0084 C.ar      1 <0>        -0.0385
      6 C6         -0.4118   -2.1170    1.1991 C.ar      1 <0>        -0.0667
      7 C7         -0.6226   -0.7563    1.2086 C.ar      1 <0>        -0.0973
      8 C8         -0.2185   -3.1296    2.3021 C.3       1 <0>        -0.0099
      9 C9         -0.0280   -4.4538    1.6117 C.2       1 <0>        -0.1357
     10 C10        -0.1005   -4.2445    0.2663 C.2       1 <0>         0.0388
     11 N1          0.0761   -5.4657   -0.3259 N.pl3     1 <0>        -0.2205
     12 N2          0.2457   -6.3684    0.5726 N.2       1 <0>        -0.2294
     13 C11         0.1959   -5.8328    1.7786 C.2       1 <0>         0.0280
     14 C12         0.3465   -6.5475    3.0623 C.2       1 <0>         0.6236
     15 O1          0.2795   -5.9352    4.1105 O.2       1 <0>        -0.4950
     16 N3          0.5582   -7.8785    3.0717 N.am      1 <0>        -0.5717
     17 N4          0.6975   -8.5395    4.2590 N.3       1 <0>        -0.2926
     18 C13         2.0428   -9.1141    4.3867 C.3       1 <0>         0.0378
     19 C14         2.2103   -9.7187    5.7826 C.3       1 <0>        -0.1138
     20 C15         1.1498  -10.8027    5.9946 C.3       1 <0>        -0.1252
     21 C16        -0.2405  -10.1887    5.8084 C.3       1 <0>        -0.1138
     22 C17        -0.3370   -9.5705    4.4118 C.3       1 <0>         0.0383
     23 C18         0.0720   -5.6972   -1.7073 C.ar      1 <0>         0.1384
     24 C19         0.8336   -4.8972   -2.5490 C.ar      1 <0>        -0.0857
     25 C20         0.8279   -5.1274   -3.9105 C.ar      1 <0>        -0.0883
     26 C21         0.0641   -6.1546   -4.4373 C.ar      1 <0>        -0.0146
     27 C22        -0.6964   -6.9534   -3.6018 C.ar      1 <0>        -0.0896
     28 C23        -0.6897   -6.7315   -2.2375 C.ar      1 <0>        -0.0112
     29 Cl1        -1.6378   -7.7388   -1.1886 Cl        1 <0>        -0.0226
     30 Cl2         0.0597   -6.4407   -6.1496 Cl        1 <0>        -0.0384
     31 H1         -0.0503    1.9377   -0.0040 H         1 <0>         0.0749
     32 H2         -1.6024    1.6984   -0.8419 H         1 <0>         0.0696
     33 H3         -1.5414    1.6937    0.9370 H         1 <0>         0.0704
     34 H4         -0.8124   -0.2089   -2.1170 H         1 <0>         0.1295
     35 H5         -0.4274   -2.6351   -2.1511 H         1 <0>         0.1210
     36 H6         -0.6752   -0.2245    2.1471 H         1 <0>         0.1325
     37 H7          0.6650   -2.8813    2.8903 H         1 <0>         0.1106
     38 H8         -1.1004   -3.1621    2.9418 H         1 <0>         0.1104
     39 H9          0.6117   -8.3670    2.2354 H         1 <0>         0.3867
     40 H10         2.1783   -9.8921    3.6353 H         1 <0>         0.0405
     41 H11         2.7874   -8.3321    4.2379 H         1 <0>         0.0819
     42 H12         3.2035  -10.1589    5.8717 H         1 <0>         0.0739
     43 H13         2.0887   -8.9386    6.5340 H         1 <0>         0.0774
     44 H14         1.2954  -11.6018    5.2678 H         1 <0>         0.0605
     45 H15         1.2378  -11.2060    7.0034 H         1 <0>         0.0702
     46 H16        -0.9983  -10.9647    5.9160 H         1 <0>         0.0740
     47 H17        -0.4007   -9.4160    6.5603 H         1 <0>         0.0774
     48 H18        -1.3208   -9.1199    4.2813 H         1 <0>         0.0819
     49 H19        -0.1903  -10.3463    3.6603 H         1 <0>         0.0408
     50 H20         1.4297   -4.0953   -2.1390 H         1 <0>         0.1530
     51 H21         1.4199   -4.5051   -4.5652 H         1 <0>         0.1562
     52 H22        -1.2917   -7.7540   -4.0155 H         1 <0>         0.1581
@<TRIPOS>BOND
     1    1    2 1
     2    1   31 1
     3    1   32 1
     4    1   33 1
     5    2    7 ar
     6    2    3 ar
     7    3    4 ar
     8    3   34 1
     9    4    5 ar
    10    4   35 1
    11    5   10 1
    12    5    6 ar
    13    6    7 ar
    14    6    8 1
    15    7   36 1
    16    8    9 1
    17    8   37 1
    18    8   38 1
    19    9   13 1
    20    9   10 2
    21   10   11 1
    22   11   12 1
    23   11   23 1
    24   12   13 2
    25   13   14 1
    26   14   15 2
    27   14   16 am
    28   16   17 1
    29   16   39 1
    30   17   22 1
    31   17   18 1
    32   18   19 1
    33   18   40 1
    34   18   41 1
    35   19   20 1
    36   19   42 1
    37   19   43 1
    38   20   21 1
    39   20   44 1
    40   20   45 1
    41   21   22 1
    42   21   46 1
    43   21   47 1
    44   22   48 1
    45   22   49 1
    46   23   28 ar
    47   23   24 ar
    48   24   25 ar
    49   24   50 1
    50   25   26 ar
    51   25   51 1
    52   26   27 ar
    53   26   30 1
    54   27   28 ar
    55   27   52 1
    56   28   29 1
@<TRIPOS>MOLECULE
ZINC13831250
   53    57     0     0     0
SMALL
USER_CHARGES

@<TRIPOS>ATOM
      1 C1         -1.0078    1.4178    0.0275 C.3       1 <0>        -0.1175
      2 C2         -0.7719   -0.0706    0.0154 C.ar      1 <0>        -0.0685
      3 C3         -0.6991   -0.7488   -1.1885 C.ar      1 <0>        -0.1176
      4 C4         -0.4830   -2.1105   -1.2087 C.ar      1 <0>        -0.0925
      5 C5         -0.3365   -2.8113   -0.0084 C.ar      1 <0>        -0.0380
      6 C6         -0.4118   -2.1170    1.1991 C.ar      1 <0>        -0.0676
      7 C7         -0.6226   -0.7563    1.2086 C.ar      1 <0>        -0.0974
      8 C8         -0.2185   -3.1296    2.3021 C.3       1 <0>        -0.0092
      9 C9         -0.0280   -4.4538    1.6117 C.2       1 <0>        -0.1382
     10 C10        -0.1005   -4.2445    0.2663 C.2       1 <0>         0.0371
     11 N1          0.0761   -5.4657   -0.3259 N.pl3     1 <0>        -0.2211
     12 N2          0.2457   -6.3684    0.5726 N.2       1 <0>        -0.2275
     13 C11         0.1959   -5.8328    1.7786 C.2       1 <0>         0.0236
     14 C12         0.3465   -6.5475    3.0623 C.2       1 <0>         0.6073
     15 O1          0.2795   -5.9352    4.1105 O.2       1 <0>        -0.5229
     16 N3          0.5582   -7.8785    3.0717 N.am      1 <0>        -0.7143
     17 C13         0.7076   -8.5874    4.3450 C.3       1 <0>         0.1459
     18 C14         2.1628   -8.5006    4.8094 C.3       1 <0>        -0.1297
     19 C15         2.3189   -9.2410    6.1392 C.3       1 <0>        -0.1171
     20 C16         1.9292  -10.7090    5.9544 C.3       1 <0>        -0.1228
     21 C17         0.4739  -10.7958    5.4900 C.3       1 <0>        -0.1157
     22 C18         0.3179  -10.0554    4.1602 C.3       1 <0>        -0.1270
     23 C19         0.0720   -5.6972   -1.7073 C.ar      1 <0>         0.1385
     24 C20         0.8336   -4.8972   -2.5490 C.ar      1 <0>        -0.0860
     25 C21         0.8279   -5.1274   -3.9105 C.ar      1 <0>        -0.0884
     26 C22         0.0641   -6.1546   -4.4373 C.ar      1 <0>        -0.0147
     27 C23        -0.6964   -6.9534   -3.6018 C.ar      1 <0>        -0.0895
     28 C24        -0.6897   -6.7315   -2.2375 C.ar      1 <0>        -0.0112
     29 Cl1        -1.6378   -7.7388   -1.1886 Cl        1 <0>        -0.0218
     30 Cl2         0.0597   -6.4407   -6.1496 Cl        1 <0>        -0.0386
     31 H1         -0.0503    1.9377   -0.0040 H         1 <0>         0.0749
     32 H2         -1.6024    1.6984   -0.8419 H         1 <0>         0.0696
     33 H3         -1.5414    1.6937    0.9370 H         1 <0>         0.0703
     34 H4         -0.8124   -0.2089   -2.1170 H         1 <0>         0.1296
     35 H5         -0.4274   -2.6351   -2.1511 H         1 <0>         0.1211
     36 H6         -0.6752   -0.2245    2.1471 H         1 <0>         0.1322
     37 H7          0.6650   -2.8813    2.8903 H         1 <0>         0.1095
     38 H8         -1.1004   -3.1621    2.9418 H         1 <0>         0.1093
     39 H9          0.6117   -8.3670    2.2354 H         1 <0>         0.4061
     40 H10         0.0596   -8.1309    5.0933 H         1 <0>         0.0912
     41 H11         2.8108   -8.9571    4.0612 H         1 <0>         0.0640
     42 H12         2.4405   -7.4548    4.9411 H         1 <0>         0.0684
     43 H13         3.3556   -9.1792    6.4700 H         1 <0>         0.0655
     44 H14         1.6709   -8.7845    6.8874 H         1 <0>         0.0653
     45 H15         2.5772  -11.1655    5.2062 H         1 <0>         0.0627
     46 H16         2.0403  -11.2365    6.9018 H         1 <0>         0.0645
     47 H17         0.1963  -11.8416    5.3584 H         1 <0>         0.0678
     48 H18        -0.1740  -10.3393    6.2382 H         1 <0>         0.0659
     49 H19        -0.7188  -10.1172    3.8294 H         1 <0>         0.0691
     50 H20         0.9659  -10.5119    3.4120 H         1 <0>         0.0688
     51 H21         1.4297   -4.0953   -2.1390 H         1 <0>         0.1525
     52 H22         1.4199   -4.5051   -4.5652 H         1 <0>         0.1560
     53 H23        -1.2917   -7.7540   -4.0155 H         1 <0>         0.1582
@<TRIPOS>BOND
     1    1    2 1
     2    1   31 1
     3    1   32 1
     4    1   33 1
     5    2    7 ar
     6    2    3 ar
     7    3    4 ar
     8    3   34 1
     9    4    5 ar
    10    4   35 1
    11    5   10 1
    12    5    6 ar
    13    6    7 ar
    14    6    8 1
    15    7   36 1
    16    8    9 1
    17    8   37 1
    18    8   38 1
    19    9   13 1
    20    9   10 2
    21   10   11 1
    22   11   12 1
    23   11   23 1
    24   12   13 2
    25   13   14 1
    26   14   15 2
    27   14   16 am
    28   16   17 1
    29   16   39 1
    30   17   22 1
    31   17   18 1
    32   17   40 1
    33   18   19 1
    34   18   41 1
    35   18   42 1
    36   19   20 1
    37   19   43 1
    38   19   44 1
    39   20   21 1
    40   20   45 1
    41   20   46 1
    42   21   22 1
    43   21   47 1
    44   21   48 1
    45   22   49 1
    46   22   50 1
    47   23   28 ar
    48   23   24 ar
    49   24   25 ar
    50   24   51 1
    51   25   26 ar
    52   25   52 1
    53   26   27 ar
    54   26   30 1
    55   27   28 ar
    56   27   53 1
    57   28   29 1
@<TRIPOS>MOLECULE
ZINC13831245
   57    60     0     0     0
SMALL
USER_CHARGES

@<TRIPOS>ATOM
      1 C1         -0.0165    1.3836    0.0274 C.ar      1 <0>        -0.1421
      2 C2          1.1529    2.0920    0.0229 C.ar      1 <0>        -0.0147
      3 C3          2.3718    1.4148   -0.0042 C.ar      1 <0>        -0.1830
      4 C4          2.4000    0.0094   -0.0269 C.ar      1 <0>         0.1969
      5 C5          1.1980   -0.6924   -0.0214 C.ar      1 <0>        -0.1622
      6 C6          0.0023   -0.0048    0.0052 C.ar      1 <0>         0.0265
      7 Cl1        -1.4944   -0.8843    0.0114 Cl        1 <0>        -0.0469
      8 N1          3.6033   -0.6615   -0.0546 N.pl3     1 <0>        -0.4799
      9 C7          4.7854   -0.0310   -0.0610 C.2       1 <0>         0.2485
     10 C8          4.8849    1.3445   -0.0406 C.2       1 <0>        -0.3414
     11 C9          3.6516    2.1468   -0.0103 C.2       1 <0>         0.4374
     12 O1          3.6866    3.3648    0.0081 O.2       1 <0>        -0.4819
     13 C10         6.2026    1.9990   -0.0484 C.2       1 <0>         0.5863
     14 O2          7.2148    1.3292    0.0311 O.2       1 <0>        -0.5595
     15 N2          6.2880    3.3407   -0.1438 N.am      1 <0>        -0.7169
     16 C11         7.5985    3.9845   -0.2637 C.3       1 <0>         0.1464
     17 C12         8.1941    4.1924    1.1302 C.3       1 <0>        -0.1290
     18 C13         9.5627    4.8648    1.0049 C.3       1 <0>        -0.1169
     19 C14         9.4040    6.2191    0.3110 C.3       1 <0>        -0.1226
     20 C15         8.8084    6.0112   -1.0829 C.3       1 <0>        -0.1155
     21 C16         7.4398    5.3388   -0.9577 C.3       1 <0>        -0.1266
     22 C17         3.5894   -2.1263   -0.0776 C.3       1 <0>         0.0852
     23 C18         3.5640   -2.6133   -1.5278 C.3       1 <0>         0.0340
     24 N3          3.5501   -4.0821   -1.5509 N.3       1 <0>        -0.5324
     25 C19         4.8101   -4.6292   -1.0271 C.3       1 <0>         0.0085
     26 C20         4.7297   -6.1580   -1.0134 C.3       1 <0>         0.0632
     27 O3          4.4431   -6.6272   -2.3336 O.3       1 <0>        -0.3832
     28 C21         3.2224   -6.1145   -2.8745 C.3       1 <0>         0.0632
     29 C22         3.2876   -4.5852   -2.9071 C.3       1 <0>         0.0184
     30 H1         -0.9608    1.9071    0.0530 H         1 <0>         0.1463
     31 H2          1.1328    3.1717    0.0400 H         1 <0>         0.1533
     32 H3          1.2013   -1.7723   -0.0389 H         1 <0>         0.1518
     33 H4          5.6907   -0.6195   -0.0826 H         1 <0>         0.1796
     34 H5          5.4819    3.8800   -0.1330 H         1 <0>         0.4126
     35 H6          8.2623    3.3506   -0.8516 H         1 <0>         0.0847
     36 H7          7.5303    4.8263    1.7181 H         1 <0>         0.0627
     37 H8          8.3072    3.2276    1.6246 H         1 <0>         0.0677
     38 H9          9.9870    5.0129    1.9980 H         1 <0>         0.0641
     39 H10        10.2265    4.2309    0.4171 H         1 <0>         0.0638
     40 H11         8.7402    6.8530    0.8988 H         1 <0>         0.0627
     41 H12        10.3790    6.6981    0.2217 H         1 <0>         0.0636
     42 H13         8.6953    6.9760   -1.5774 H         1 <0>         0.0670
     43 H14         9.4722    5.3773   -1.6708 H         1 <0>         0.0645
     44 H15         7.0155    5.1907   -1.9507 H         1 <0>         0.0676
     45 H16         6.7760    5.9727   -0.3698 H         1 <0>         0.0686
     46 H17         4.4831   -2.5059    0.4176 H         1 <0>         0.1045
     47 H18         2.7034   -2.4894    0.4432 H         1 <0>         0.1133
     48 H19         2.6703   -2.2337   -2.0230 H         1 <0>         0.0884
     49 H20         4.4500   -2.2502   -2.0486 H         1 <0>         0.0496
     50 H21         5.6365   -4.3139   -1.6641 H         1 <0>         0.0497
     51 H22         4.9717   -4.2641   -0.0129 H         1 <0>         0.0888
     52 H23         5.6822   -6.5696   -0.6797 H         1 <0>         0.1014
     53 H24         3.9378   -6.4748   -0.3347 H         1 <0>         0.0622
     54 H25         3.0849   -6.4946   -3.8868 H         1 <0>         0.1014
     55 H26         2.3867   -6.4300   -2.2499 H         1 <0>         0.0625
     56 H27         2.3378   -4.1880   -3.2651 H         1 <0>         0.0899
     57 H28         4.0896   -4.2692   -3.5741 H         1 <0>         0.0478
@<TRIPOS>BOND
     1    1    6 ar
     2    1    2 ar
     3    1   30 1
     4    2    3 ar
     5    2   31 1
     6    3   11 1
     7    3    4 ar
     8    4    5 ar
     9    4    8 1
    10    5    6 ar
    11    5   32 1
    12    6    7 1
    13    8    9 1
    14    8   22 1
    15    9   10 2
    16    9   33 1
    17   10   11 1
    18   10   13 1
    19   11   12 2
    20   13   14 2
    21   13   15 am
    22   15   16 1
    23   15   34 1
    24   16   21 1
    25   16   17 1
    26   16   35 1
    27   17   18 1
    28   17   36 1
    29   17   37 1
    30   18   19 1
    31   18   38 1
    32   18   39 1
    33   19   20 1
    34   19   40 1
    35   19   41 1
    36   20   21 1
    37   20   42 1
    38   20   43 1
    39   21   44 1
    40   21   45 1
    41   22   23 1
    42   22   46 1
    43   22   47 1
    44   23   24 1
    45   23   48 1
    46   23   49 1
    47   24   29 1
    48   24   25 1
    49   25   26 1
    50   25   50 1
    51   25   51 1
    52   26   27 1
    53   26   52 1
    54   26   53 1
    55   27   28 1
    56   28   29 1
    57   28   54 1
    58   28   55 1
    59   29   56 1
    60   29   57 1
@<TRIPOS>MOLECULE
ZINC13831245
   58    61     0     0     0
SMALL
USER_CHARGES

@<TRIPOS>ATOM
      1 C1         -0.0165    1.3836    0.0274 C.ar      1 <0>        -0.1336
      2 C2          1.1529    2.0920    0.0229 C.ar      1 <0>        -0.0063
      3 C3          2.3718    1.4148   -0.0042 C.ar      1 <0>        -0.1752
      4 C4          2.4000    0.0094   -0.0269 C.ar      1 <0>         0.1887
      5 C5          1.1980   -0.6924   -0.0214 C.ar      1 <0>        -0.1758
      6 C6          0.0023   -0.0048    0.0052 C.ar      1 <0>         0.0295
      7 Cl1        -1.4944   -0.8843    0.0114 Cl        1 <0>        -0.0375
      8 N1          3.6033   -0.6615   -0.0546 N.pl3     1 <0>        -0.4863
      9 C7          4.7854   -0.0310   -0.0610 C.2       1 <0>         0.2226
     10 C8          4.8849    1.3445   -0.0406 C.2       1 <0>        -0.3065
     11 C9          3.6516    2.1468   -0.0103 C.2       1 <0>         0.4320
     12 O1          3.6866    3.3648    0.0081 O.2       1 <0>        -0.4595
     13 C10         6.2026    1.9990   -0.0484 C.2       1 <0>         0.5800
     14 O2          7.2148    1.3292    0.0311 O.2       1 <0>        -0.5551
     15 N2          6.2880    3.3407   -0.1438 N.am      1 <0>        -0.7114
     16 C11         7.5985    3.9845   -0.2637 C.3       1 <0>         0.1456
     17 C12         8.1941    4.1924    1.1302 C.3       1 <0>        -0.1287
     18 C13         9.5627    4.8648    1.0049 C.3       1 <0>        -0.1173
     19 C14         9.4040    6.2191    0.3110 C.3       1 <0>        -0.1242
     20 C15         8.8084    6.0112   -1.0829 C.3       1 <0>        -0.1160
     21 C16         7.4398    5.3388   -0.9577 C.3       1 <0>        -0.1271
     22 C17         3.5894   -2.1263   -0.0776 C.3       1 <0>         0.0663
     23 C18         3.5640   -2.6133   -1.5278 C.3       1 <0>        -0.0368
     24 N3          3.5501   -4.0821   -1.5509 N.4       1 <0>        -0.3821
     25 C19         4.8095   -4.5929   -0.9923 C.3       1 <0>        -0.0538
     26 C20         4.7924   -6.1233   -1.0172 C.3       1 <0>         0.0369
     27 O3          4.5941   -6.5708   -2.3612 O.3       1 <0>        -0.3541
     28 C21         3.3906   -6.0795   -2.9579 C.3       1 <0>         0.0363
     29 C22         3.4051   -4.5490   -2.9366 C.3       1 <0>        -0.0434
     30 H1         -0.9608    1.9071    0.0530 H         1 <0>         0.1528
     31 H2          1.1328    3.1717    0.0400 H         1 <0>         0.1594
     32 H3          1.2013   -1.7723   -0.0389 H         1 <0>         0.1401
     33 H4          5.6907   -0.6195   -0.0826 H         1 <0>         0.1840
     34 H5          5.4819    3.8800   -0.1330 H         1 <0>         0.4132
     35 H6          8.2623    3.3506   -0.8516 H         1 <0>         0.0868
     36 H7          7.5303    4.8263    1.7181 H         1 <0>         0.0640
     37 H8          8.3072    3.2276    1.6246 H         1 <0>         0.0669
     38 H9          9.9870    5.0129    1.9980 H         1 <0>         0.0664
     39 H10        10.2265    4.2309    0.4171 H         1 <0>         0.0643
     40 H11         8.7402    6.8530    0.8988 H         1 <0>         0.0639
     41 H12        10.3790    6.6981    0.2217 H         1 <0>         0.0664
     42 H13         8.6953    6.9760   -1.5774 H         1 <0>         0.0695
     43 H14         9.4722    5.3773   -1.6708 H         1 <0>         0.0651
     44 H15         7.0155    5.1907   -1.9507 H         1 <0>         0.0678
     45 H16         6.7760    5.9727   -0.3698 H         1 <0>         0.0699
     46 H17         4.4831   -2.5059    0.4176 H         1 <0>         0.1242
     47 H18         2.7034   -2.4894    0.4432 H         1 <0>         0.1228
     48 H19         2.6703   -2.2337   -2.0230 H         1 <0>         0.1436
     49 H20         4.4500   -2.2502   -2.0486 H         1 <0>         0.1443
     50 H21         5.6460   -4.2288   -1.5889 H         1 <0>         0.1450
     51 H22         4.9180   -4.2472    0.0357 H         1 <0>         0.1436
     52 H23         5.7428   -6.5041   -0.6433 H         1 <0>         0.1449
     53 H24         3.9805   -6.4885   -0.3884 H         1 <0>         0.0834
     54 H25         3.3265   -6.4286   -3.9885 H         1 <0>         0.1447
     55 H26         2.5307   -6.4433   -2.3955 H         1 <0>         0.0833
     56 H27         2.4710   -4.1707   -3.3519 H         1 <0>         0.1453
     57 H28         4.2421   -4.1850   -3.5324 H         1 <0>         0.1424
     58 H29         2.7757   -4.4199   -0.9992 H         1 <0>         0.4251
@<TRIPOS>BOND
     1    1    6 ar
     2    1    2 ar
     3    1   30 1
     4    2    3 ar
     5    2   31 1
     6    3   11 1
     7    3    4 ar
     8    4    5 ar
     9    4    8 1
    10    5    6 ar
    11    5   32 1
    12    6    7 1
    13    8    9 1
    14    8   22 1
    15    9   10 2
    16    9   33 1
    17   10   11 1
    18   10   13 1
    19   11   12 2
    20   13   14 2
    21   13   15 am
    22   15   16 1
    23   15   34 1
    24   16   21 1
    25   16   17 1
    26   16   35 1
    27   17   18 1
    28   17   36 1
    29   17   37 1
    30   18   19 1
    31   18   38 1
    32   18   39 1
    33   19   20 1
    34   19   40 1
    35   19   41 1
    36   20   21 1
    37   20   42 1
    38   20   43 1
    39   21   44 1
    40   21   45 1
    41   22   23 1
    42   22   46 1
    43   22   47 1
    44   23   24 1
    45   23   48 1
    46   23   49 1
    47   24   29 1
    48   24   25 1
    49   24   58 1
    50   25   26 1
    51   25   50 1
    52   25   51 1
    53   26   27 1
    54   26   52 1
    55   26   53 1
    56   27   28 1
    57   28   29 1
    58   28   54 1
    59   28   55 1
    60   29   56 1
    61   29   57 1
@<TRIPOS>MOLECULE
ZINC01721178
   53    55     0     0     0
SMALL
USER_CHARGES

@<TRIPOS>ATOM
      1 C1         -0.0187    1.5258    0.0104 C.3       1 <0>        -0.1543
      2 C2          0.0021   -0.0041    0.0020 C.3       1 <0>        -0.1257
      3 C3          0.7421   -0.5109    1.2415 C.3       1 <0>        -0.1212
      4 C4          0.7628   -2.0407    1.2331 C.3       1 <0>        -0.1135
      5 C5          1.5028   -2.5476    2.4727 C.3       1 <0>        -0.0814
      6 C6          1.5232   -4.0544    2.4644 C.ar      1 <0>        -0.0312
      7 C7          0.4989   -4.7624    3.0640 C.ar      1 <0>        -0.1764
      8 C8          0.5179   -6.1484    3.0523 C.ar      1 <0>         0.1465
      9 C9          1.5640   -6.8286    2.4414 C.ar      1 <0>        -0.1865
     10 C10         2.5924   -6.1183    1.8460 C.ar      1 <0>         0.1582
     11 C11         2.5617   -4.7266    1.8533 C.ar      1 <0>        -0.1585
     12 O1          3.6444   -6.7384    1.2510 O.3       1 <0>        -0.3061
     13 C12         3.5246   -8.1275    0.9375 C.3       1 <0>         0.1192
     14 C13         2.9743   -8.8518    2.1676 C.3       1 <0>        -0.1101
     15 H1          3.6096   -8.6485    3.0296 H         1 <0>         0.0843
     16 C14         1.5548   -8.3320    2.4348 C.3       1 <0>        -0.0316
     17 H2          0.8841   -8.6880    1.6529 H         1 <0>         0.0827
     18 C15         1.0986   -8.8795    3.7877 C.3       1 <0>        -0.0760
     19 C16         1.3184  -10.3662    3.8253 C.2       1 <0>        -0.1194
     20 C17         2.0949  -11.0070    3.0106 C.2       1 <0>        -0.1704
     21 C18         2.9084  -10.3594    1.9182 C.3       1 <0>        -0.0784
     22 C19         0.5895  -11.1610    4.8779 C.3       1 <0>        -0.1221
     23 C20         4.8988   -8.6951    0.5766 C.3       1 <0>        -0.1413
     24 C21         2.5651   -8.3094   -0.2403 C.3       1 <0>        -0.1769
     25 O2         -0.4902   -6.8443    3.6408 O.3       1 <0>        -0.4900
     26 H3          1.0039    1.9031    0.0027 H         1 <0>         0.0537
     27 H4         -0.5459    1.8868   -0.8726 H         1 <0>         0.0535
     28 H5         -0.5289    1.8773    0.9072 H         1 <0>         0.0536
     29 H6         -1.0205   -0.3814    0.0098 H         1 <0>         0.0605
     30 H7          0.5123   -0.3556   -0.8948 H         1 <0>         0.0608
     31 H8          1.7647   -0.1336    1.2338 H         1 <0>         0.0627
     32 H9          0.2319   -0.1594    2.1383 H         1 <0>         0.0624
     33 H10        -0.2598   -2.4180    1.2409 H         1 <0>         0.0634
     34 H11         1.2730   -2.3923    0.3363 H         1 <0>         0.0643
     35 H12         2.5254   -2.1703    2.4649 H         1 <0>         0.0756
     36 H13         0.9926   -2.1961    3.3695 H         1 <0>         0.0756
     37 H14        -0.3149   -4.2366    3.5412 H         1 <0>         0.1290
     38 H15         3.3578   -4.1697    1.3816 H         1 <0>         0.1307
     39 H16         1.6738   -8.4067    4.5838 H         1 <0>         0.0718
     40 H17         0.0391   -8.6650    3.9280 H         1 <0>         0.1010
     41 H18         2.1807  -12.0769    3.1303 H         1 <0>         0.1036
     42 H19         2.4238  -10.5484    0.9603 H         1 <0>         0.0768
     43 H20         3.9182  -10.7695    1.9019 H         1 <0>         0.0792
     44 H21        -0.3743  -11.4855    4.4856 H         1 <0>         0.0658
     45 H22         1.1832  -12.0335    5.1504 H         1 <0>         0.0607
     46 H23         0.4323  -10.5389    5.7590 H         1 <0>         0.0630
     47 H24         5.5759   -8.5726    1.4220 H         1 <0>         0.0671
     48 H25         4.8031   -9.7544    0.3382 H         1 <0>         0.0812
     49 H26         5.2963   -8.1627   -0.2874 H         1 <0>         0.0684
     50 H27         2.9503   -7.7750   -1.1086 H         1 <0>         0.0675
     51 H28         2.4764   -9.3699   -0.4762 H         1 <0>         0.0759
     52 H29         1.5850   -7.9130    0.0249 H         1 <0>         0.0636
     53 H30        -1.2275   -7.0453    3.0484 H         1 <0>         0.3887
@<TRIPOS>BOND
     1    1    2 1
     2    1   26 1
     3    1   27 1
     4    1   28 1
     5    2    3 1
     6    2   29 1
     7    2   30 1
     8    3    4 1
     9    3   31 1
    10    3   32 1
    11    4    5 1
    12    4   33 1
    13    4   34 1
    14    5    6 1
    15    5   35 1
    16    5   36 1
    17    6   11 ar
    18    6    7 ar
    19    7    8 ar
    20    7   37 1
    21    8    9 ar
    22    8   25 1
    23    9   16 1
    24    9   10 ar
    25   10   11 ar
    26   10   12 1
    27   11   38 1
    28   12   13 1
    29   13   14 1
    30   13   23 1
    31   13   24 1
    32   14   15 1
    33   14   21 1
    34   14   16 1
    35   16   17 1
    36   16   18 1
    37   18   19 1
    38   18   39 1
    39   18   40 1
    40   19   20 2
    41   19   22 1
    42   20   21 1
    43   20   41 1
    44   21   42 1
    45   21   43 1
    46   22   44 1
    47   22   45 1
    48   22   46 1
    49   23   47 1
    50   23   48 1
    51   23   49 1
    52   24   50 1
    53   24   51 1
    54   24   52 1
    55   25   53 1
@<TRIPOS>MOLECULE
ZINC01997139
   51    54     0     0     0
SMALL
USER_CHARGES
1-(2,4-dichlorophenyl)-5-(4-iodophenyl)-4-methyl-N-(1-piperidyl)pyrazole-3-carboxamide
@<TRIPOS>ATOM
      1 C1          2.9450    0.0343   -0.6085 C.3       1 <0>        -0.0852
      2 C2          2.5620    1.4508   -0.2652 C.2       1 <0>        -0.1019
      3 C3          3.4036    2.4925    0.0092 C.2       1 <0>         0.0450
      4 N1          2.6159    3.5783    0.2689 N.pl3     1 <0>        -0.2292
      5 N2          1.3770    3.2560    0.1632 N.2       1 <0>        -0.2341
      6 C4          1.2582    1.9829   -0.1616 C.2       1 <0>        -0.0017
      7 C5         -0.0055    1.2480   -0.3719 C.2       1 <0>         0.6243
      8 O1          0.0188    0.0695   -0.6695 O.2       1 <0>        -0.4951
      9 N3         -1.1857    1.8853   -0.2393 N.am      1 <0>        -0.5719
     10 N4         -2.3544    1.2070   -0.4392 N.3       1 <0>        -0.2922
     11 C6         -3.0841    1.7451   -1.5944 C.3       1 <0>         0.0382
     12 C7         -4.3097    0.8732   -1.8765 C.3       1 <0>        -0.1138
     13 C8         -5.2137    0.8567   -0.6407 C.3       1 <0>        -0.1252
     14 C9         -4.4158    0.3379    0.5587 C.3       1 <0>        -0.1137
     15 C10        -3.1871    1.2253    0.7702 C.3       1 <0>         0.0385
     16 C11         3.0893    4.8541    0.6008 C.ar      1 <0>         0.1379
     17 C12         4.0485    5.0036    1.5939 C.ar      1 <0>        -0.0782
     18 C13         4.5178    6.2618    1.9153 C.ar      1 <0>        -0.0882
     19 C14         4.0250    7.3753    1.2569 C.ar      1 <0>        -0.0129
     20 C15         3.0652    7.2307    0.2709 C.ar      1 <0>        -0.0913
     21 C16         2.5959    5.9732   -0.0590 C.ar      1 <0>        -0.0118
     22 Cl1         1.3919    5.7919   -1.2965 Cl        1 <0>        -0.0233
     23 Cl2         4.6129    8.9559    1.6687 Cl        1 <0>        -0.0382
     24 C17         4.8825    2.4508    0.0274 C.ar      1 <0>        -0.0086
     25 C18         5.5469    1.5119    0.8170 C.ar      1 <0>        -0.0879
     26 C19         6.9260    1.4738    0.8251 C.ar      1 <0>        -0.0802
     27 C20         7.6504    2.3726    0.0614 C.ar      1 <0>        -0.0903
     28 C21         6.9969    3.3100   -0.7195 C.ar      1 <0>        -0.0792
     29 C22         5.6181    3.3539   -0.7405 C.ar      1 <0>        -0.0932
     30 I1          9.7444    2.3134    0.0872 I         1 <0>        -0.0334
     31 H1          3.0596   -0.0595   -1.6884 H         1 <0>         0.0743
     32 H2          3.8867   -0.2160   -0.1201 H         1 <0>         0.0669
     33 H3          2.1656   -0.6461   -0.2654 H         1 <0>         0.0896
     34 H4         -1.2051    2.8256   -0.0018 H         1 <0>         0.3863
     35 H5         -3.4052    2.7641   -1.3786 H         1 <0>         0.0401
     36 H6         -2.4313    1.7474   -2.4673 H         1 <0>         0.0813
     37 H7         -3.9885   -0.1428   -2.1060 H         1 <0>         0.0774
     38 H8         -4.8599    1.2811   -2.7244 H         1 <0>         0.0737
     39 H9         -6.0662    0.2021   -0.8218 H         1 <0>         0.0702
     40 H10        -5.5674    1.8667   -0.4336 H         1 <0>         0.0604
     41 H11        -4.0962   -0.6866    0.3676 H         1 <0>         0.0774
     42 H12        -5.0415    0.3640    1.4508 H         1 <0>         0.0741
     43 H13        -2.6091    0.8501    1.6147 H         1 <0>         0.0821
     44 H14        -3.5079    2.2467    0.9749 H         1 <0>         0.0406
     45 H15         4.4304    4.1359    2.1113 H         1 <0>         0.1509
     46 H16         5.2670    6.3778    2.6845 H         1 <0>         0.1549
     47 H17         2.6821    8.1011   -0.2410 H         1 <0>         0.1576
     48 H18         4.9828    0.8135    1.4173 H         1 <0>         0.1393
     49 H19         7.4415    0.7441    1.4319 H         1 <0>         0.1373
     50 H20         7.5674    4.0088   -1.3133 H         1 <0>         0.1349
     51 H21         5.1093    4.0860   -1.3500 H         1 <0>         0.1279
@<TRIPOS>BOND
     1    1    2 1
     2    1   31 1
     3    1   32 1
     4    1   33 1
     5    2    6 1
     6    2    3 2
     7    3    4 1
     8    3   24 1
     9    4    5 1
    10    4   16 1
    11    5    6 2
    12    6    7 1
    13    7    8 2
    14    7    9 am
    15    9   10 1
    16    9   34 1
    17   10   15 1
    18   10   11 1
    19   11   12 1
    20   11   35 1
    21   11   36 1
    22   12   13 1
    23   12   37 1
    24   12   38 1
    25   13   14 1
    26   13   39 1
    27   13   40 1
    28   14   15 1
    29   14   41 1
    30   14   42 1
    31   15   43 1
    32   15   44 1
    33   16   21 ar
    34   16   17 ar
    35   17   18 ar
    36   17   45 1
    37   18   19 ar
    38   18   46 1
    39   19   20 ar
    40   19   23 1
    41   20   21 ar
    42   20   47 1
    43   21   22 1
    44   24   29 ar
    45   24   25 ar
    46   25   26 ar
    47   25   48 1
    48   26   27 ar
    49   26   49 1
    50   27   28 ar
    51   27   30 1
    52   28   29 ar
    53   28   50 1
    54   29   51 1
@<TRIPOS>MOLECULE
ZINC04654958
   68    67     0     0     0
SMALL
USER_CHARGES

@<TRIPOS>ATOM
      1 C1          0.6453    3.0200   -2.1184 C.3       1 <0>        -0.1543
      2 C2          0.9747    1.5406   -1.9090 C.3       1 <0>        -0.1260
      3 C3          1.2342    0.8791   -3.2640 C.3       1 <0>        -0.1214
      4 C4          1.5635   -0.6003   -3.0546 C.3       1 <0>        -0.1145
      5 C5          1.8231   -1.2617   -4.4095 C.3       1 <0>        -0.1025
      6 C6          2.1475   -2.7189   -4.2033 C.2       1 <0>        -0.1582
      7 C7          1.4879   -3.6368   -4.8654 C.2       1 <0>        -0.1534
      8 C8          0.5222   -3.2356   -5.9506 C.3       1 <0>        -0.0836
      9 C9          0.8663   -3.9645   -7.2239 C.2       1 <0>        -0.1512
     10 C10        -0.0571   -4.6399   -7.8620 C.2       1 <0>        -0.1520
     11 C11        -1.4947   -4.5556   -7.4178 C.3       1 <0>        -0.0837
     12 C12        -2.3604   -4.1684   -8.5889 C.2       1 <0>        -0.1522
     13 C13        -3.4010   -4.8991   -8.9041 C.2       1 <0>        -0.1512
     14 C14        -3.8363   -6.0212   -7.9973 C.3       1 <0>        -0.0833
     15 C15        -5.2963   -5.8582   -7.6615 C.2       1 <0>        -0.1536
     16 C16        -6.1304   -6.8470   -7.8682 C.2       1 <0>        -0.1577
     17 C17        -5.6088   -8.1980   -8.2850 C.3       1 <0>        -0.1019
     18 C18        -6.1669   -9.2713   -7.3483 C.3       1 <0>        -0.1140
     19 C19        -5.6374  -10.6430   -7.7715 C.3       1 <0>        -0.1203
     20 C20        -6.1955  -11.7163   -6.8348 C.3       1 <0>        -0.1049
     21 C21        -5.6660  -13.0880   -7.2580 C.3       1 <0>        -0.1404
     22 C22        -6.2157  -14.1452   -6.3354 C.2       1 <0>         0.5101
     23 O1         -6.9578  -13.8323   -5.4286 O.2       1 <0>        -0.5410
     24 N1         -5.8825  -15.4383   -6.5179 N.am      1 <0>        -0.7287
     25 C23        -6.4169  -16.4660   -5.6210 C.3       1 <0>         0.1176
     26 C24        -5.8874  -17.8377   -6.0442 C.3       1 <0>         0.0628
     27 O2         -4.4704  -17.8778   -5.8635 O.3       1 <0>        -0.5723
     28 H1          1.4846    3.5132   -2.6087 H         1 <0>         0.0534
     29 H2         -0.2437    3.1095   -2.7426 H         1 <0>         0.0534
     30 H3          0.4604    3.4912   -1.1531 H         1 <0>         0.0535
     31 H4          1.8637    1.4511   -1.2847 H         1 <0>         0.0605
     32 H5          0.1353    1.0474   -1.4187 H         1 <0>         0.0606
     33 H6          0.3451    0.9686   -3.8882 H         1 <0>         0.0610
     34 H7          2.0735    1.3723   -3.7542 H         1 <0>         0.0613
     35 H8          2.4526   -0.6897   -2.4303 H         1 <0>         0.0616
     36 H9          0.7242   -1.0935   -2.5643 H         1 <0>         0.0620
     37 H10         0.9340   -1.1722   -5.0338 H         1 <0>         0.0756
     38 H11         2.6624   -0.7685   -4.8998 H         1 <0>         0.0688
     39 H12         2.9237   -3.0063   -3.5096 H         1 <0>         0.1088
     40 H13         1.6361   -4.6812   -4.6336 H         1 <0>         0.1086
     41 H14        -0.4926   -3.4932   -5.6473 H         1 <0>         0.0829
     42 H15         0.5897   -2.1606   -6.1177 H         1 <0>         0.0839
     43 H16         1.8742   -3.9300   -7.6103 H         1 <0>         0.1096
     44 H17         0.2118   -5.2572   -8.7064 H         1 <0>         0.1098
     45 H18        -1.8140   -5.5248   -7.0346 H         1 <0>         0.0835
     46 H19        -1.5889   -3.8055   -6.6326 H         1 <0>         0.0833
     47 H20        -2.1230   -3.2885   -9.1684 H         1 <0>         0.1097
     48 H21        -3.9470   -4.6972   -9.8138 H         1 <0>         0.1096
     49 H22        -3.6838   -6.9756   -8.5013 H         1 <0>         0.0839
     50 H23        -3.2476   -5.9965   -7.0803 H         1 <0>         0.0827
     51 H24        -5.6550   -4.9261   -7.2504 H         1 <0>         0.1084
     52 H25        -7.1917   -6.6940   -7.7398 H         1 <0>         0.1091
     53 H26        -5.9227   -8.4090   -9.3073 H         1 <0>         0.0689
     54 H27        -4.5201   -8.1995   -8.2316 H         1 <0>         0.0756
     55 H28        -5.8530   -9.0603   -6.3260 H         1 <0>         0.0636
     56 H29        -7.2556   -9.2698   -7.4017 H         1 <0>         0.0632
     57 H30        -5.9513  -10.8540   -8.7938 H         1 <0>         0.0627
     58 H31        -4.5487  -10.6445   -7.7181 H         1 <0>         0.0625
     59 H32        -5.8816  -11.5053   -5.8125 H         1 <0>         0.0698
     60 H33        -7.2842  -11.7148   -6.8882 H         1 <0>         0.0697
     61 H34        -5.9799  -13.2990   -8.2803 H         1 <0>         0.0930
     62 H35        -4.5773  -13.0895   -7.2046 H         1 <0>         0.0937
     63 H36        -5.2889  -15.6885   -7.2431 H         1 <0>         0.4035
     64 H37        -6.1030  -16.2550   -4.5987 H         1 <0>         0.0751
     65 H38        -7.5056  -16.4645   -5.6744 H         1 <0>         0.0823
     66 H39        -6.3535  -18.6112   -5.4339 H         1 <0>         0.0647
     67 H40        -6.1248  -18.0107   -7.0939 H         1 <0>         0.0540
     68 H41        -4.0659  -18.7201   -6.1124 H         1 <0>         0.3841
@<TRIPOS>BOND
     1    1    2 1
     2    1   28 1
     3    1   29 1
     4    1   30 1
     5    2    3 1
     6    2   31 1
     7    2   32 1
     8    3    4 1
     9    3   33 1
    10    3   34 1
    11    4    5 1
    12    4   35 1
    13    4   36 1
    14    5    6 1
    15    5   37 1
    16    5   38 1
    17    6    7 2
    18    6   39 1
    19    7    8 1
    20    7   40 1
    21    8    9 1
    22    8   41 1
    23    8   42 1
    24    9   10 2
    25    9   43 1
    26   10   11 1
    27   10   44 1
    28   11   12 1
    29   11   45 1
    30   11   46 1
    31   12   13 2
    32   12   47 1
    33   13   14 1
    34   13   48 1
    35   14   15 1
    36   14   49 1
    37   14   50 1
    38   15   16 2
    39   15   51 1
    40   16   17 1
    41   16   52 1
    42   17   18 1
    43   17   53 1
    44   17   54 1
    45   18   19 1
    46   18   55 1
    47   18   56 1
    48   19   20 1
    49   19   57 1
    50   19   58 1
    51   20   21 1
    52   20   59 1
    53   20   60 1
    54   21   22 1
    55   21   61 1
    56   21   62 1
    57   22   23 2
    58   22   24 am
    59   24   25 1
    60   24   63 1
    61   25   26 1
    62   25   64 1
    63   25   65 1
    64   26   27 1
    65   26   66 1
    66   26   67 1
    67   27   68 1
@<TRIPOS>MOLECULE
ZINC13737355
   65    64     0     0     0
SMALL
USER_CHARGES
(5Z,8Z,11Z,14Z)-N-[(2S)-2-hydroxypropyl]icosa-5,8,11,14-tetraenamide
@<TRIPOS>ATOM
      1 C1         13.9875   10.6498    8.9610 C.3       1 <0>        -0.1543
      2 C2         12.4986   10.6884    8.6111 C.3       1 <0>        -0.1259
      3 C3         11.7408    9.6966    9.4959 C.3       1 <0>        -0.1214
      4 C4         10.2519    9.7352    9.1459 C.3       1 <0>        -0.1145
      5 C5          9.4942    8.7433   10.0307 C.3       1 <0>        -0.1025
      6 C6          8.0276    8.7813    9.6860 C.2       1 <0>        -0.1581
      7 C7          7.3920    7.6711    9.4039 C.2       1 <0>        -0.1533
      8 C8          8.0804    6.3425    9.5827 C.3       1 <0>        -0.0837
      9 C9          7.2319    5.4499   10.4512 C.2       1 <0>        -0.1511
     10 C10         6.9056    4.2509   10.0366 C.2       1 <0>        -0.1521
     11 C11         7.5190    3.6963    8.7768 C.3       1 <0>        -0.0838
     12 C12         8.1312    2.3501    9.0665 C.2       1 <0>        -0.1518
     13 C13         7.7991    1.3101    8.3425 C.2       1 <0>        -0.1513
     14 C14         6.9351    1.4874    7.1206 C.3       1 <0>        -0.0835
     15 C15         7.6014    0.8371    5.9356 C.2       1 <0>        -0.1524
     16 C16         6.9479   -0.0429    5.2181 C.2       1 <0>        -0.1568
     17 C17         5.4825   -0.2846    5.4735 C.3       1 <0>        -0.1019
     18 C18         4.7076   -0.1538    4.1608 C.3       1 <0>        -0.0983
     19 C19         3.2199   -0.3992    4.4201 C.3       1 <0>        -0.1411
     20 C20         2.4566   -0.2704    3.1271 C.2       1 <0>         0.5105
     21 O1          3.0447   -0.0082    2.0993 O.2       1 <0>        -0.5402
     22 N1          1.1205   -0.4467    3.1128 N.am      1 <0>        -0.7295
     23 C21         0.3786   -0.3215    1.8558 C.3       1 <0>         0.0852
     24 C22        -1.1092   -0.5669    2.1151 C.3       1 <0>         0.0909
     25 H1         -1.2386   -1.5337    2.6017 H         1 <0>         0.1058
     26 C23        -1.8666   -0.5597    0.7857 C.3       1 <0>        -0.1846
     27 O2         -1.6218    0.4645    2.9610 O.3       1 <0>        -0.5611
     28 H2         14.5274   11.3565    8.3306 H         1 <0>         0.0535
     29 H3         14.1218   10.9209   10.0082 H         1 <0>         0.0534
     30 H4         14.3742    9.6446    8.7935 H         1 <0>         0.0534
     31 H5         12.3643   10.4173    7.5639 H         1 <0>         0.0606
     32 H6         12.1119   11.6937    8.7786 H         1 <0>         0.0605
     33 H7         11.8751    9.9677   10.5430 H         1 <0>         0.0613
     34 H8         12.1275    8.6913    9.3283 H         1 <0>         0.0610
     35 H9         10.1176    9.4641    8.0987 H         1 <0>         0.0620
     36 H10         9.8653   10.7404    9.3134 H         1 <0>         0.0616
     37 H11         9.6284    9.0144   11.0779 H         1 <0>         0.0688
     38 H12         9.8808    7.7380    9.8632 H         1 <0>         0.0756
     39 H13         7.5006    9.7239    9.6716 H         1 <0>         0.1088
     40 H14         6.3747    7.7080    9.0432 H         1 <0>         0.1085
     41 H15         9.0496    6.4964   10.0572 H         1 <0>         0.0838
     42 H16         8.2230    5.8733    8.6092 H         1 <0>         0.0828
     43 H17         6.8929    5.7988   11.4154 H         1 <0>         0.1096
     44 H18         6.1969    3.6598   10.5977 H         1 <0>         0.1098
     45 H19         8.2912    4.3771    8.4185 H         1 <0>         0.0833
     46 H20         6.7477    3.5882    8.0142 H         1 <0>         0.0835
     47 H21         8.8436    2.2427    9.8711 H         1 <0>         0.1098
     48 H22         8.1446    0.3255    8.6213 H         1 <0>         0.1098
     49 H23         6.7994    2.5507    6.9228 H         1 <0>         0.0831
     50 H24         5.9641    1.0228    7.2917 H         1 <0>         0.0839
     51 H25         8.6176    1.0964    5.6778 H         1 <0>         0.1093
     52 H26         7.4593   -0.5951    4.4436 H         1 <0>         0.1103
     53 H27         5.1123    0.4500    6.1887 H         1 <0>         0.0767
     54 H28         5.3448   -1.2872    5.8784 H         1 <0>         0.0707
     55 H29         5.0778   -0.8884    3.4456 H         1 <0>         0.0705
     56 H30         4.8453    0.8488    3.7559 H         1 <0>         0.0708
     57 H31         2.8497    0.3354    5.1352 H         1 <0>         0.0943
     58 H32         3.0822   -1.4019    4.8249 H         1 <0>         0.0943
     59 H33         0.6502   -0.6565    3.9347 H         1 <0>         0.4049
     60 H34         0.7487   -1.0561    1.1406 H         1 <0>         0.0768
     61 H35         0.5162    0.6811    1.4509 H         1 <0>         0.0705
     62 H36        -1.4756   -1.3464    0.1405 H         1 <0>         0.0706
     63 H37        -2.9265   -0.7345    0.9705 H         1 <0>         0.0712
     64 H38        -1.7372    0.4071    0.2991 H         1 <0>         0.0629
     65 H39        -1.5396    1.3540    2.5906 H         1 <0>         0.3786
@<TRIPOS>BOND
     1    1    2 1
     2    1   28 1
     3    1   29 1
     4    1   30 1
     5    2    3 1
     6    2   31 1
     7    2   32 1
     8    3    4 1
     9    3   33 1
    10    3   34 1
    11    4    5 1
    12    4   35 1
    13    4   36 1
    14    5    6 1
    15    5   37 1
    16    5   38 1
    17    6    7 2
    18    6   39 1
    19    7    8 1
    20    7   40 1
    21    8    9 1
    22    8   41 1
    23    8   42 1
    24    9   10 2
    25    9   43 1
    26   10   11 1
    27   10   44 1
    28   11   12 1
    29   11   45 1
    30   11   46 1
    31   12   13 2
    32   12   47 1
    33   13   14 1
    34   13   48 1
    35   14   15 1
    36   14   49 1
    37   14   50 1
    38   15   16 2
    39   15   51 1
    40   16   17 1
    41   16   52 1
    42   17   18 1
    43   17   53 1
    44   17   54 1
    45   18   19 1
    46   18   55 1
    47   18   56 1
    48   19   20 1
    49   19   57 1
    50   19   58 1
    51   20   21 2
    52   20   22 am
    53   22   23 1
    54   22   59 1
    55   23   24 1
    56   23   60 1
    57   23   61 1
    58   24   25 1
    59   24   26 1
    60   24   27 1
    61   26   62 1
    62   26   63 1
    63   26   64 1
    64   27   65 1
@<TRIPOS>MOLECULE
ZINC13737354
   65    64     0     0     0
SMALL
USER_CHARGES
(5Z,8Z,11Z,14Z)-N-[(2R)-2-hydroxypropyl]icosa-5,8,11,14-tetraenamide
@<TRIPOS>ATOM
      1 C1         -8.6319   12.4294   -2.4791 C.3       1 <0>        -0.1543
      2 C2         -8.5211   11.0534   -3.1388 C.3       1 <0>        -0.1259
      3 C3         -9.0181    9.9807   -2.1676 C.3       1 <0>        -0.1214
      4 C4         -8.9073    8.6046   -2.8273 C.3       1 <0>        -0.1145
      5 C5         -9.4044    7.5320   -1.8561 C.3       1 <0>        -0.1025
      6 C6         -9.2952    6.1766   -2.5059 C.2       1 <0>        -0.1580
      7 C7         -8.6720    5.2030   -1.8895 C.2       1 <0>        -0.1533
      8 C8         -8.2086    5.3862   -0.4673 C.3       1 <0>        -0.0837
      9 C9         -8.7426    4.2630    0.3837 C.2       1 <0>        -0.1512
     10 C10        -7.9240    3.5517    1.1186 C.2       1 <0>        -0.1521
     11 C11        -6.4804    3.9631    1.2518 C.3       1 <0>        -0.0838
     12 C12        -6.1201    4.0663    2.7115 C.2       1 <0>        -0.1519
     13 C13        -5.0863    3.4113    3.1788 C.2       1 <0>        -0.1512
     14 C14        -4.1620    2.6885    2.2332 C.3       1 <0>        -0.0835
     15 C15        -2.7406    3.1147    2.4962 C.2       1 <0>        -0.1525
     16 C16        -1.8186    2.2132    2.7274 C.2       1 <0>        -0.1567
     17 C17        -2.1396    0.7493    2.5692 C.3       1 <0>        -0.1019
     18 C18        -1.1027    0.0960    1.6532 C.3       1 <0>        -0.0983
     19 C19        -1.4286   -1.3902    1.4926 C.3       1 <0>        -0.1410
     20 C20        -0.4073   -2.0338    0.5904 C.2       1 <0>         0.5105
     21 O1          0.4925   -1.3691    0.1220 O.2       1 <0>        -0.5403
     22 N1         -0.4940   -3.3479    0.3040 N.am      1 <0>        -0.7292
     23 C21         0.4988   -3.9735   -0.5730 C.3       1 <0>         0.0848
     24 C22         0.1729   -5.4597   -0.7337 C.3       1 <0>         0.0910
     25 H1         -0.8191   -5.5689   -1.1719 H         1 <0>         0.1059
     26 C23         1.2098   -6.1131   -1.6496 C.3       1 <0>        -0.1846
     27 O2          0.2008   -6.0945    0.5463 O.3       1 <0>        -0.5611
     28 H2         -8.2778   13.1936   -3.1710 H         1 <0>         0.0535
     29 H3         -9.6727   12.6263   -2.2220 H         1 <0>         0.0534
     30 H4         -8.0243   12.4486   -1.5744 H         1 <0>         0.0534
     31 H5         -7.4803   10.8565   -3.3959 H         1 <0>         0.0606
     32 H6         -9.1288   11.0341   -4.0435 H         1 <0>         0.0605
     33 H7        -10.0589   10.1775   -1.9105 H         1 <0>         0.0613
     34 H8         -8.4105    9.9999   -1.2629 H         1 <0>         0.0611
     35 H9         -7.8665    8.4078   -3.0844 H         1 <0>         0.0620
     36 H10        -9.5150    8.5854   -3.7320 H         1 <0>         0.0616
     37 H11       -10.4451    7.7288   -1.5990 H         1 <0>         0.0688
     38 H12        -8.7967    7.5512   -0.9514 H         1 <0>         0.0756
     39 H13        -9.7307    6.0079   -3.4797 H         1 <0>         0.1089
     40 H14        -8.4904    4.2691   -2.4006 H         1 <0>         0.1085
     41 H15        -8.5766    6.3383   -0.0850 H         1 <0>         0.0839
     42 H16        -7.1190    5.3790   -0.4364 H         1 <0>         0.0829
     43 H17        -9.8003    4.0444    0.3877 H         1 <0>         0.1096
     44 H18        -8.2837    2.6706    1.6290 H         1 <0>         0.1098
     45 H19        -6.3325    4.9305    0.7718 H         1 <0>         0.0833
     46 H20        -5.8447    3.2187    0.7724 H         1 <0>         0.0834
     47 H21        -6.7142    4.6801    3.3723 H         1 <0>         0.1098
     48 H22        -4.8965    3.3893    4.2418 H         1 <0>         0.1099
     49 H23        -4.4302    2.9326    1.2053 H         1 <0>         0.0830
     50 H24        -4.2532    1.6132    2.3869 H         1 <0>         0.0838
     51 H25        -2.4821    4.1633    2.4942 H         1 <0>         0.1093
     52 H26        -0.8285    2.5192    3.0314 H         1 <0>         0.1103
     53 H27        -3.1316    0.6402    2.1310 H         1 <0>         0.0766
     54 H28        -2.1184    0.2651    3.5455 H         1 <0>         0.0708
     55 H29        -0.1107    0.2051    2.0914 H         1 <0>         0.0705
     56 H30        -1.1239    0.5802    0.6769 H         1 <0>         0.0708
     57 H31        -1.4074   -1.8745    2.4689 H         1 <0>         0.0947
     58 H32        -2.4206   -1.4994    1.0543 H         1 <0>         0.0938
     59 H33        -1.2137   -3.8795    0.6786 H         1 <0>         0.4054
     60 H34         0.4776   -3.4893   -1.5493 H         1 <0>         0.0767
     61 H35         1.4909   -3.8643   -0.1348 H         1 <0>         0.0703
     62 H36         2.2018   -6.0039   -1.2114 H         1 <0>         0.0628
     63 H37         0.9776   -7.1719   -1.7641 H         1 <0>         0.0712
     64 H38         1.1886   -5.6289   -2.6259 H         1 <0>         0.0707
     65 H39         1.0551   -6.0367    0.9955 H         1 <0>         0.3786
@<TRIPOS>BOND
     1    1    2 1
     2    1   28 1
     3    1   29 1
     4    1   30 1
     5    2    3 1
     6    2   31 1
     7    2   32 1
     8    3    4 1
     9    3   33 1
    10    3   34 1
    11    4    5 1
    12    4   35 1
    13    4   36 1
    14    5    6 1
    15    5   37 1
    16    5   38 1
    17    6    7 2
    18    6   39 1
    19    7    8 1
    20    7   40 1
    21    8    9 1
    22    8   41 1
    23    8   42 1
    24    9   10 2
    25    9   43 1
    26   10   11 1
    27   10   44 1
    28   11   12 1
    29   11   45 1
    30   11   46 1
    31   12   13 2
    32   12   47 1
    33   13   14 1
    34   13   48 1
    35   14   15 1
    36   14   49 1
    37   14   50 1
    38   15   16 2
    39   15   51 1
    40   16   17 1
    41   16   52 1
    42   17   18 1
    43   17   53 1
    44   17   54 1
    45   18   19 1
    46   18   55 1
    47   18   56 1
    48   19   20 1
    49   19   57 1
    50   19   58 1
    51   20   21 2
    52   20   22 am
    53   22   23 1
    54   22   59 1
    55   23   24 1
    56   23   60 1
    57   23   61 1
    58   24   25 1
    59   24   26 1
    60   24   27 1
    61   26   62 1
    62   26   63 1
    63   26   64 1
    64   27   65 1
@<TRIPOS>MOLECULE
ZINC13737356
   65    64     0     0     0
SMALL
USER_CHARGES
(5Z,8Z,11Z,14Z)-N-[(1S)-2-hydroxy-1-methyl-ethyl]icosa-5,8,11,14-tetraenamide
@<TRIPOS>ATOM
      1 C1         -9.4694   -2.8708    8.9357 C.3       1 <0>        -0.1543
      2 C2         -9.3751   -3.2290    7.4512 C.3       1 <0>        -0.1260
      3 C3         -8.1110   -4.0551    7.2052 C.3       1 <0>        -0.1214
      4 C4         -8.0167   -4.4133    5.7207 C.3       1 <0>        -0.1145
      5 C5         -6.7526   -5.2394    5.4747 C.3       1 <0>        -0.1026
      6 C6         -6.6597   -5.5922    4.0125 C.2       1 <0>        -0.1580
      7 C7         -5.5641   -5.3304    3.3439 C.2       1 <0>        -0.1533
      8 C8         -4.3410   -4.8296    4.0679 C.3       1 <0>        -0.0837
      9 C9         -3.1634   -5.7078    3.7315 C.2       1 <0>        -0.1512
     10 C10        -2.0561   -5.1736    3.2791 C.2       1 <0>        -0.1520
     11 C11        -1.8950   -3.6754    3.2605 C.3       1 <0>        -0.0837
     12 C12        -0.6188   -3.2986    3.9680 C.2       1 <0>        -0.1522
     13 C13         0.2658   -2.5434    3.3653 C.2       1 <0>        -0.1511
     14 C14        -0.0603   -1.9167    2.0341 C.3       1 <0>        -0.0833
     15 C15         0.2026   -0.4342    2.0989 C.2       1 <0>        -0.1529
     16 C16         0.9800    0.1326    1.2099 C.2       1 <0>        -0.1562
     17 C17         1.4787   -0.6609    0.0297 C.3       1 <0>        -0.1020
     18 C18         1.1642    0.0951   -1.2627 C.3       1 <0>        -0.0981
     19 C19         1.6704   -0.7106   -2.4609 C.3       1 <0>        -0.1415
     20 C20         1.3607    0.0341   -3.7339 C.2       1 <0>         0.5114
     21 O1          0.7912    1.1038   -3.6875 O.2       1 <0>        -0.5401
     22 N1          1.7167   -0.4887   -4.9241 N.am      1 <0>        -0.7256
     23 C21         1.4156    0.2352   -6.1616 C.3       1 <0>         0.1422
     24 H1          0.4643    0.7566   -6.0553 H         1 <0>         0.0983
     25 C22         2.5253    1.2507   -6.4413 C.3       1 <0>        -0.1596
     26 C23         1.3267   -0.7562   -7.3236 C.3       1 <0>         0.0666
     27 O2          2.6064   -1.3550   -7.5377 O.3       1 <0>        -0.5706
     28 H2         -9.5117   -3.7848    9.5280 H         1 <0>         0.0534
     29 H3         -8.5937   -2.2901    9.2257 H         1 <0>         0.0534
     30 H4        -10.3699   -2.2823    9.1110 H         1 <0>         0.0535
     31 H5         -9.3328   -2.3150    6.8589 H         1 <0>         0.0606
     32 H6        -10.2508   -3.8097    7.1612 H         1 <0>         0.0605
     33 H7         -8.1533   -4.9691    7.7975 H         1 <0>         0.0613
     34 H8         -7.2353   -3.4744    7.4952 H         1 <0>         0.0611
     35 H9         -7.9744   -3.4993    5.1284 H         1 <0>         0.0620
     36 H10        -8.8924   -4.9940    5.4307 H         1 <0>         0.0616
     37 H11        -6.7949   -6.1534    6.0671 H         1 <0>         0.0688
     38 H12        -5.8769   -4.6587    5.7647 H         1 <0>         0.0757
     39 H13        -7.4964   -6.0609    3.5159 H         1 <0>         0.1088
     40 H14        -5.5374   -5.4734    2.2737 H         1 <0>         0.1084
     41 H15        -4.5187   -4.8564    5.1430 H         1 <0>         0.0838
     42 H16        -4.1302   -3.8055    3.7599 H         1 <0>         0.0829
     43 H17        -3.2323   -6.7775    3.8634 H         1 <0>         0.1096
     44 H18        -1.2586   -5.8070    2.9195 H         1 <0>         0.1097
     45 H19        -2.7417   -3.2126    3.7674 H         1 <0>         0.0833
     46 H20        -1.8547   -3.3271    2.2285 H         1 <0>         0.0834
     47 H21        -0.4335   -3.6512    4.9719 H         1 <0>         0.1097
     48 H22         1.2288   -2.3698    3.8224 H         1 <0>         0.1098
     49 H23        -1.1104   -2.0895    1.7987 H         1 <0>         0.0829
     50 H24         0.5638   -2.3629    1.2599 H         1 <0>         0.0838
     51 H25        -0.2498    0.1609    2.8784 H         1 <0>         0.1092
     52 H26         1.2636    1.1686    1.3226 H         1 <0>         0.1103
     53 H27         0.9858   -1.6330    0.0111 H         1 <0>         0.0764
     54 H28         2.5562   -0.8014    0.1155 H         1 <0>         0.0706
     55 H29         0.0867    0.2356   -1.3485 H         1 <0>         0.0708
     56 H30         1.6570    1.0671   -1.2442 H         1 <0>         0.0706
     57 H31         2.7479   -0.8511   -2.3751 H         1 <0>         0.0941
     58 H32         1.1776   -1.6826   -2.4795 H         1 <0>         0.0930
     59 H33         2.1722   -1.3443   -4.9612 H         1 <0>         0.4046
     60 H34         2.3012    1.7893   -7.3621 H         1 <0>         0.0633
     61 H35         2.5885    1.9569   -5.6135 H         1 <0>         0.0589
     62 H36         3.4765    0.7293   -6.5476 H         1 <0>         0.0664
     63 H37         0.5982   -1.5311   -7.0852 H         1 <0>         0.0529
     64 H38         1.0158   -0.2307   -8.2266 H         1 <0>         0.0625
     65 H39         2.6245   -1.9961   -8.2615 H         1 <0>         0.3836
@<TRIPOS>BOND
     1    1    2 1
     2    1   28 1
     3    1   29 1
     4    1   30 1
     5    2    3 1
     6    2   31 1
     7    2   32 1
     8    3    4 1
     9    3   33 1
    10    3   34 1
    11    4    5 1
    12    4   35 1
    13    4   36 1
    14    5    6 1
    15    5   37 1
    16    5   38 1
    17    6    7 2
    18    6   39 1
    19    7    8 1
    20    7   40 1
    21    8    9 1
    22    8   41 1
    23    8   42 1
    24    9   10 2
    25    9   43 1
    26   10   11 1
    27   10   44 1
    28   11   12 1
    29   11   45 1
    30   11   46 1
    31   12   13 2
    32   12   47 1
    33   13   14 1
    34   13   48 1
    35   14   15 1
    36   14   49 1
    37   14   50 1
    38   15   16 2
    39   15   51 1
    40   16   17 1
    41   16   52 1
    42   17   18 1
    43   17   53 1
    44   17   54 1
    45   18   19 1
    46   18   55 1
    47   18   56 1
    48   19   20 1
    49   19   57 1
    50   19   58 1
    51   20   21 2
    52   20   22 am
    53   22   23 1
    54   22   59 1
    55   23   24 1
    56   23   25 1
    57   23   26 1
    58   25   60 1
    59   25   61 1
    60   25   62 1
    61   26   27 1
    62   26   63 1
    63   26   64 1
    64   27   65 1
@<TRIPOS>MOLECULE
ZINC13672828
   50    53     0     0     0
SMALL
USER_CHARGES
(2-iodophenyl)-[1-[[(2R)-1-methyl-2-piperidyl]methyl]indol-3-yl]methanone
@<TRIPOS>ATOM
      1 C1          6.1119   -0.0736   -0.8931 C.3       1 <0>        -0.0513
      2 C2          6.2590    1.3057   -2.8771 C.3       1 <0>        -0.0002
      3 C3          5.8963    2.6740   -3.4588 C.3       1 <0>        -0.1482
      4 C4          4.3725    2.8031   -3.5352 C.3       1 <0>        -0.1357
      5 C5          3.7812    2.6099   -2.1361 C.3       1 <0>        -0.1442
      6 C6          4.2049    1.2434   -1.5928 C.3       1 <0>         0.0101
      7 H1          3.8261    0.4588   -2.2477 H         1 <0>         0.1439
      8 C7          3.6326    1.0541   -0.1865 C.3       1 <0>         0.0936
      9 N1          2.1691    1.0795   -0.2474 N.pl3     1 <0>        -0.4754
     10 C8          1.4061    2.1752   -0.0244 C.2       1 <0>         0.0891
     11 C9          0.0853    1.8535   -0.1605 C.2       1 <0>        -0.2105
     12 C10         0.0383    0.4192   -0.5002 C.ar      1 <0>        -0.0699
     13 C11         1.3746   -0.0103   -0.5402 C.ar      1 <0>         0.0905
     14 C12         1.6550   -1.3390   -0.8401 C.ar      1 <0>        -0.1336
     15 C13         0.6250   -2.2188   -1.0942 C.ar      1 <0>        -0.0857
     16 C14        -0.6943   -1.7930   -1.0538 C.ar      1 <0>        -0.1277
     17 C15        -0.9924   -0.4801   -0.7589 C.ar      1 <0>        -0.0658
     18 C16        -1.0600    2.7580   -0.0055 C.2       1 <0>         0.4553
     19 O1         -1.3196    3.5660   -0.8777 O.2       1 <0>        -0.4041
     20 C17        -1.8984    2.6875    1.2101 C.ar      1 <0>        -0.1409
     21 C18        -1.5300    1.8550    2.2689 C.ar      1 <0>        -0.0601
     22 C19        -2.3135    1.7983    3.4024 C.ar      1 <0>        -0.1172
     23 C20        -3.4691    2.5555    3.4877 C.ar      1 <0>        -0.0790
     24 C21        -3.8435    3.3780    2.4407 C.ar      1 <0>        -0.0956
     25 C22        -3.0655    3.4489    1.3024 C.ar      1 <0>        -0.0612
     26 I1         -3.6347    4.6949   -0.2827 I         1 <0>         0.0010
     27 H2          5.6515   -0.9257   -1.3931 H         1 <0>         0.1251
     28 H3          7.1967   -0.1540   -0.9629 H         1 <0>         0.1287
     29 H4          5.8150   -0.0639    0.1557 H         1 <0>         0.1222
     30 H5          7.3431    1.2162   -2.8081 H         1 <0>         0.1327
     31 H6          5.8704    0.5207   -3.5259 H         1 <0>         0.1305
     32 H7          6.2965    3.4596   -2.8178 H         1 <0>         0.0887
     33 H8          6.3207    2.7685   -4.4584 H         1 <0>         0.1142
     34 H9          4.1091    3.7927   -3.9085 H         1 <0>         0.0974
     35 H10         3.9758    2.0426   -4.2078 H         1 <0>         0.0820
     36 H11         2.6937    2.6584   -2.1909 H         1 <0>         0.1142
     37 H12         4.1482    3.3943   -1.4742 H         1 <0>         0.0900
     38 H13         3.9834    1.8586    0.4598 H         1 <0>         0.1134
     39 H14         3.9630    0.0958    0.2142 H         1 <0>         0.1109
     40 H15         1.7845    3.1559    0.2236 H         1 <0>         0.1790
     41 H16         2.6788   -1.6812   -0.8735 H         1 <0>         0.1163
     42 H17         0.8473   -3.2498   -1.3267 H         1 <0>         0.1327
     43 H18        -1.4916   -2.4932   -1.2547 H         1 <0>         0.1328
     44 H19        -2.0205   -0.1508   -0.7280 H         1 <0>         0.1273
     45 H20        -0.6311    1.2602    2.2021 H         1 <0>         0.1335
     46 H21        -2.0272    1.1581    4.2237 H         1 <0>         0.1357
     47 H22        -4.0815    2.5034    4.3758 H         1 <0>         0.1388
     48 H23        -4.7466    3.9659    2.5136 H         1 <0>         0.1383
     49 N2          5.6808    1.1923   -1.5213 N.4       1 <0>        -0.3899
     50 H24         6.0139    1.9781   -0.9504 H         1 <0>         0.4282
@<TRIPOS>BOND
     1    1   27 1
     2    1   28 1
     3    1   29 1
     4    1   49 1
     5    2    3 1
     6    2   30 1
     7    2   31 1
     8    2   49 1
     9    3    4 1
    10    3   32 1
    11    3   33 1
    12    4    5 1
    13    4   34 1
    14    4   35 1
    15    5    6 1
    16    5   36 1
    17    5   37 1
    18    6    7 1
    19    6    8 1
    20    6   49 1
    21    8    9 1
    22    8   38 1
    23    8   39 1
    24    9   13 1
    25    9   10 1
    26   10   11 2
    27   10   40 1
    28   11   12 1
    29   11   18 1
    30   12   17 ar
    31   12   13 ar
    32   13   14 ar
    33   14   15 ar
    34   14   41 1
    35   15   16 ar
    36   15   42 1
    37   16   17 ar
    38   16   43 1
    39   17   44 1
    40   18   19 2
    41   18   20 1
    42   20   25 ar
    43   20   21 ar
    44   21   22 ar
    45   21   45 1
    46   22   23 ar
    47   22   46 1
    48   23   24 ar
    49   23   47 1
    50   24   25 ar
    51   24   48 1
    52   25   26 1
    53   49   50 1
@<TRIPOS>MOLECULE
ZINC06273129
   55    57     0     0     0
SMALL
USER_CHARGES
1,1-dimethylbutyl-trimethyl-BLAH
@<TRIPOS>ATOM
      1 C1         -0.8075   10.5331   -0.5308 C.3       1 <0>        -0.1539
      2 C2          0.3333    9.8975    0.2663 C.3       1 <0>        -0.1292
      3 C3          0.3235    8.3827    0.0514 C.3       1 <0>        -0.1100
      4 C4          1.4642    7.7471    0.8485 C.3       1 <0>        -0.0238
      5 C5          1.2786    8.0522    2.3363 C.3       1 <0>        -0.1413
      6 C6          2.8004    8.3210    0.3730 C.3       1 <0>        -0.1412
      7 C7          1.4546    6.2550    0.6368 C.ar      1 <0>        -0.0347
      8 C8          0.5004    5.6785   -0.1817 C.ar      1 <0>        -0.1547
      9 C9          0.4941    4.3114   -0.3768 C.ar      1 <0>        -0.0800
     10 C10         1.4397    3.5120    0.2427 C.ar      1 <0>        -0.1596
     11 C11         2.3939    4.0852    1.0674 C.ar      1 <0>         0.1427
     12 C12         2.3971    5.4635    1.2597 C.ar      1 <0>        -0.1472
     13 O1          3.3358    3.3416    1.7036 O.3       1 <0>        -0.3093
     14 C13         3.5536    2.0001    1.2620 C.3       1 <0>         0.1209
     15 C14         2.1929    1.3159    1.1160 C.3       1 <0>        -0.1087
     16 H1          1.6490    1.3727    2.0589 H         1 <0>         0.0857
     17 C15         1.4163    2.0281   -0.0006 C.3       1 <0>        -0.0383
     18 H2          1.8783    1.8075   -0.9629 H         1 <0>         0.0863
     19 C16        -0.0183    1.4990    0.0103 C.3       1 <0>        -0.0717
     20 C17         0.0021   -0.0041    0.0020 C.2       1 <0>        -0.1227
     21 C18         1.0382   -0.7191    0.3062 C.2       1 <0>        -0.1625
     22 C19         2.3690   -0.1476    0.7084 C.3       1 <0>        -0.0821
     23 C20        -1.2635   -0.7247   -0.3854 C.3       1 <0>        -0.1228
     24 C21         4.4006    1.2493    2.2914 C.3       1 <0>        -0.1414
     25 C22         4.2724    2.0120   -0.0886 C.3       1 <0>        -0.1776
     26 H3         -1.7594   10.1242   -0.1921 H         1 <0>         0.0529
     27 H4         -0.8005   11.6123   -0.3777 H         1 <0>         0.0533
     28 H5         -0.6753   10.3157   -1.5907 H         1 <0>         0.0528
     29 H6          0.2010   10.1149    1.3262 H         1 <0>         0.0649
     30 H7          1.2852   10.3064   -0.0724 H         1 <0>         0.0649
     31 H8          0.4557    8.1653   -1.0085 H         1 <0>         0.0657
     32 H9         -0.6284    7.9738    0.3901 H         1 <0>         0.0657
     33 H10         2.0913    7.5994    2.9042 H         1 <0>         0.0569
     34 H11         1.2856    9.1314    2.4894 H         1 <0>         0.0628
     35 H12         0.3267    7.6433    2.6751 H         1 <0>         0.0563
     36 H13         2.9326    8.1036   -0.6869 H         1 <0>         0.0561
     37 H14         2.8074    9.4002    0.5262 H         1 <0>         0.0628
     38 H15         3.6131    7.8682    0.9409 H         1 <0>         0.0568
     39 H16        -0.2395    6.2971   -0.6678 H         1 <0>         0.1270
     40 H17        -0.2522    3.8634   -1.0162 H         1 <0>         0.1227
     41 H18         3.1411    5.9154    1.8989 H         1 <0>         0.1267
     42 H19        -0.5454    1.8601   -0.8728 H         1 <0>         0.0760
     43 H20        -0.5285    1.8505    0.9071 H         1 <0>         0.0772
     44 H21         0.9397   -1.7940    0.2689 H         1 <0>         0.1060
     45 H22         2.7682   -0.7137    1.5500 H         1 <0>         0.0780
     46 H23         3.0602   -0.2101   -0.1321 H         1 <0>         0.0794
     47 H24        -1.2727   -0.8891   -1.4629 H         1 <0>         0.0664
     48 H25        -1.3069   -1.6848    0.1290 H         1 <0>         0.0622
     49 H26        -2.1262   -0.1216   -0.1024 H         1 <0>         0.0623
     50 H27         4.5470    0.2209    1.9609 H         1 <0>         0.0805
     51 H28         5.3688    1.7397    2.3924 H         1 <0>         0.0679
     52 H29         3.8896    1.2523    3.2541 H         1 <0>         0.0666
     53 H30         3.6704    2.5566   -0.8159 H         1 <0>         0.0648
     54 H31         5.2410    2.5001    0.0197 H         1 <0>         0.0668
     55 H32         4.4181    0.9877   -0.4317 H         1 <0>         0.0751
@<TRIPOS>BOND
     1    1    2 1
     2    1   26 1
     3    1   27 1
     4    1   28 1
     5    2    3 1
     6    2   29 1
     7    2   30 1
     8    3    4 1
     9    3   31 1
    10    3   32 1
    11    4    5 1
    12    4    6 1
    13    4    7 1
    14    5   33 1
    15    5   34 1
    16    5   35 1
    17    6   36 1
    18    6   37 1
    19    6   38 1
    20    7   12 ar
    21    7    8 ar
    22    8    9 ar
    23    8   39 1
    24    9   10 ar
    25    9   40 1
    26   10   17 1
    27   10   11 ar
    28   11   12 ar
    29   11   13 1
    30   12   41 1
    31   13   14 1
    32   14   15 1
    33   14   24 1
    34   14   25 1
    35   15   16 1
    36   15   22 1
    37   15   17 1
    38   17   18 1
    39   17   19 1
    40   19   20 1
    41   19   42 1
    42   19   43 1
    43   20   21 2
    44   20   23 1
    45   21   22 1
    46   21   44 1
    47   22   45 1
    48   22   46 1
    49   23   47 1
    50   23   48 1
    51   23   49 1
    52   24   50 1
    53   24   51 1
    54   24   52 1
    55   25   53 1
    56   25   54 1
    57   25   55 1
@<TRIPOS>MOLECULE
ZINC03816330
   55    59     0     0     0
SMALL
USER_CHARGES
chloro-(2,4-dichlorophenyl)-N-(1-piperidyl)BLAHcarboxamide
@<TRIPOS>ATOM
      1 C1         -4.5296    0.6626   -0.3188 C.ar      1 <0>        -0.1101
      2 C2         -3.1691    0.4762   -0.4796 C.ar      1 <0>        -0.0823
      3 C3         -2.5215   -0.4951    0.2696 C.ar      1 <0>        -0.0258
      4 C4         -3.2263   -1.2447    1.2194 C.ar      1 <0>        -0.0341
      5 C5         -4.5863   -1.0738    1.3459 C.ar      1 <0>        -0.1032
      6 C6         -5.2363   -0.1203    0.5781 C.ar      1 <0>        -0.0205
      7 Cl1        -6.9511    0.0944    0.7429 Cl        1 <0>        -0.0616
      8 C7         -2.4582   -2.1391    2.1438 C.3       1 <0>        -0.0875
      9 C8         -2.0825   -3.4929    1.5320 C.3       1 <0>        -0.1019
     10 C9         -1.5633   -3.2829    0.1028 C.3       1 <0>        -0.0581
     11 C10        -0.6520   -2.0960    0.0427 C.2       1 <0>        -0.1055
     12 C11        -1.0844   -0.7996    0.1042 C.2       1 <0>         0.0500
     13 N1          0.0021   -0.0041    0.0020 N.pl3     1 <0>        -0.2191
     14 N2          1.0605   -0.7351   -0.1095 N.2       1 <0>        -0.2429
     15 C12         0.7413   -2.0206   -0.0854 C.2       1 <0>         0.0084
     16 C13         1.6769   -3.1593   -0.1816 C.2       1 <0>         0.6246
     17 O1          1.2531   -4.2984   -0.1522 O.2       1 <0>        -0.4947
     18 N3          3.0005   -2.9357   -0.3020 N.am      1 <0>        -0.5718
     19 N4          3.8658   -3.9889   -0.3909 N.3       1 <0>        -0.2922
     20 C14         4.7710   -4.0254    0.7648 C.3       1 <0>         0.0382
     21 C15         5.6247   -5.2942    0.7059 C.3       1 <0>        -0.1137
     22 C16         6.4295   -5.3020   -0.5967 C.3       1 <0>        -0.1252
     23 C17         5.4657   -5.2145   -1.7834 C.3       1 <0>        -0.1137
     24 C18         4.6166   -3.9480   -1.6523 C.3       1 <0>         0.0385
     25 C19        -0.0169    1.3964    0.0097 C.ar      1 <0>         0.1365
     26 C20        -0.7374    2.0771    0.9824 C.ar      1 <0>        -0.0793
     27 C21        -0.7499    3.4579    0.9914 C.ar      1 <0>        -0.0879
     28 C22        -0.0545    4.1642    0.0252 C.ar      1 <0>        -0.0132
     29 C23         0.6598    3.4895   -0.9490 C.ar      1 <0>        -0.0910
     30 C24         0.6805    2.1075   -0.9594 C.ar      1 <0>        -0.0112
     31 Cl2         1.5763    1.2610   -2.1821 Cl        1 <0>        -0.0221
     32 Cl3        -0.0782    5.9000    0.0360 Cl        1 <0>        -0.0380
     33 H1         -5.0418    1.4197   -0.8940 H         1 <0>         0.1393
     34 H2         -2.6156    1.0814   -1.1823 H         1 <0>         0.1298
     35 H3         -5.1456   -1.6811    2.0421 H         1 <0>         0.1416
     36 H4         -1.5433   -1.6270    2.4420 H         1 <0>         0.0726
     37 H5         -3.0597   -2.3159    3.0354 H         1 <0>         0.0772
     38 H6         -1.3051   -3.9612    2.1358 H         1 <0>         0.0759
     39 H7         -2.9614   -4.1372    1.5083 H         1 <0>         0.0744
     40 H8         -1.0179   -4.1713   -0.2157 H         1 <0>         0.0978
     41 H9         -2.4083   -3.1209   -0.5664 H         1 <0>         0.0740
     42 H10         3.3387   -2.0269   -0.3254 H         1 <0>         0.3863
     43 H11         5.4199   -3.1498    0.7457 H         1 <0>         0.0402
     44 H12         4.1860   -4.0237    1.6845 H         1 <0>         0.0816
     45 H13         4.9772   -6.1704    0.7389 H         1 <0>         0.0773
     46 H14         6.3073   -5.3139    1.5555 H         1 <0>         0.0738
     47 H15         7.0061   -6.2246   -0.6631 H         1 <0>         0.0701
     48 H16         7.1060   -4.4476   -0.6132 H         1 <0>         0.0604
     49 H17         4.8157   -6.0894   -1.7895 H         1 <0>         0.0774
     50 H18         6.0347   -5.1766   -2.7123 H         1 <0>         0.0739
     51 H19         3.9194   -3.8901   -2.4882 H         1 <0>         0.0817
     52 H20         5.2664   -3.0729   -1.6600 H         1 <0>         0.0405
     53 H21        -1.2843    1.5268    1.7338 H         1 <0>         0.1511
     54 H22        -1.3065    3.9873    1.7505 H         1 <0>         0.1556
     55 H23         1.2011    4.0431   -1.7019 H         1 <0>         0.1579
@<TRIPOS>BOND
     1    1    6 ar
     2    1    2 ar
     3    1   33 1
     4    2    3 ar
     5    2   34 1
     6    3   12 1
     7    3    4 ar
     8    4    5 ar
     9    4    8 1
    10    5    6 ar
    11    5   35 1
    12    6    7 1
    13    8    9 1
    14    8   36 1
    15    8   37 1
    16    9   10 1
    17    9   38 1
    18    9   39 1
    19   10   11 1
    20   10   40 1
    21   10   41 1
    22   11   15 1
    23   11   12 2
    24   12   13 1
    25   13   14 1
    26   13   25 1
    27   14   15 2
    28   15   16 1
    29   16   17 2
    30   16   18 am
    31   18   19 1
    32   18   42 1
    33   19   24 1
    34   19   20 1
    35   20   21 1
    36   20   43 1
    37   20   44 1
    38   21   22 1
    39   21   45 1
    40   21   46 1
    41   22   23 1
    42   22   47 1
    43   22   48 1
    44   23   24 1
    45   23   49 1
    46   23   50 1
    47   24   51 1
    48   24   52 1
    49   25   30 ar
    50   25   26 ar
    51   26   27 ar
    52   26   53 1
    53   27   28 ar
    54   27   54 1
    55   28   29 ar
    56   28   32 1
    57   29   30 ar
    58   29   55 1
    59   30   31 1
@<TRIPOS>MOLECULE
ZINC33989874
   68    72     0     0     0
SMALL
USER_CHARGES

@<TRIPOS>ATOM
      1 C1         -1.9957   -7.0276    5.7432 C.3       1 <0>        -0.1197
      2 C2         -1.5434   -6.7843    4.3264 C.ar      1 <0>        -0.0677
      3 C3         -1.4083   -5.4913    3.8564 C.ar      1 <0>        -0.1215
      4 C4         -0.9935   -5.2681    2.5568 C.ar      1 <0>        -0.0824
      5 C5         -0.7133   -6.3379    1.7273 C.ar      1 <0>        -0.1099
      6 C6         -0.8476   -7.6308    2.1976 C.ar      1 <0>        -0.0843
      7 C7         -1.2583   -7.8540    3.4985 C.ar      1 <0>        -0.1212
      8 C8         -0.2621   -6.0945    0.3102 C.3       1 <0>         0.1568
      9 N1          1.2018   -6.0592    0.2631 N.pl3     1 <0>        -0.2683
     10 C9          1.9468   -6.0067   -0.8778 C.2       1 <0>         0.0445
     11 C10         3.2582   -5.9874   -0.4930 C.2       1 <0>        -0.1504
     12 C11         3.2367   -6.0311    0.9180 C.2       1 <0>        -0.0220
     13 N2          1.9726   -6.0676    1.2906 N.2       1 <0>        -0.2327
     14 C12         4.4131   -6.0310    1.8118 C.2       1 <0>         0.6055
     15 O1          5.5335   -5.9905    1.3418 O.2       1 <0>        -0.5314
     16 N3          4.2441   -6.0759    3.1482 N.am      1 <0>        -0.7050
     17 C13         5.4106   -6.0758    4.0344 C.3       1 <0>         0.1508
     18 H1          6.3085   -5.8042    3.4794 H         1 <0>         0.1040
     19 C14         5.5862   -7.4740    4.7019 C.3       1 <0>        -0.0829
     20 C15         4.1679   -7.8286    5.2442 C.3       1 <0>        -0.1173
     21 C16         3.9470   -6.8565    6.4257 C.3       1 <0>        -0.1304
     22 C17         5.2526   -6.0062    6.4859 C.3       1 <0>        -0.0915
     23 H2          5.4497   -5.5021    7.4321 H         1 <0>         0.1004
     24 C18         6.3133   -7.0707    6.0331 C.3       1 <0>        -0.1195
     25 C19         5.1910   -5.1014    5.2142 C.3       1 <0>        -0.0711
     26 C20         3.8211   -4.4291    5.1028 C.3       1 <0>        -0.1403
     27 C21         6.3014   -4.0495    5.2510 C.3       1 <0>        -0.1390
     28 C22         6.2781   -8.5398    3.8497 C.3       1 <0>        -0.1191
     29 C23         1.4340   -5.9767   -2.2658 C.ar      1 <0>        -0.0084
     30 C24         0.0977   -5.6604   -2.5119 C.ar      1 <0>        -0.1245
     31 C25        -0.3748   -5.6341   -3.8076 C.ar      1 <0>        -0.0966
     32 C26         0.4744   -5.9213   -4.8630 C.ar      1 <0>        -0.0351
     33 C27         1.8014   -6.2359   -4.6247 C.ar      1 <0>        -0.0644
     34 C28         2.2864   -6.2591   -3.3331 C.ar      1 <0>        -0.0850
     35 C29         2.7193   -6.5478   -5.7785 C.3       1 <0>        -0.1237
     36 Cl1        -0.1273   -5.8874   -6.4910 Cl        1 <0>        -0.0606
     37 H3         -1.1267   -7.0694    6.3998 H         1 <0>         0.0737
     38 H4         -2.6515   -6.2165    6.0596 H         1 <0>         0.0684
     39 H5         -2.5360   -7.9729    5.7948 H         1 <0>         0.0682
     40 H6         -1.6272   -4.6556    4.5045 H         1 <0>         0.1247
     41 H7         -0.8886   -4.2580    2.1894 H         1 <0>         0.1210
     42 H8         -0.6291   -8.4666    1.5494 H         1 <0>         0.1200
     43 H9         -1.3596   -8.8641    3.8671 H         1 <0>         0.1243
     44 H10        -0.6269   -6.8975   -0.3302 H         1 <0>         0.1079
     45 H11        -0.6599   -5.1418   -0.0393 H         1 <0>         0.1043
     46 H12         4.1272   -5.9472   -1.1330 H         1 <0>         0.1652
     47 H13         3.3501   -6.1082    3.5231 H         1 <0>         0.4072
     48 H14         3.4148   -7.6667    4.4731 H         1 <0>         0.0638
     49 H15         4.1412   -8.8613    5.5918 H         1 <0>         0.0639
     50 H16         3.0853   -6.2168    6.2354 H         1 <0>         0.0729
     51 H17         3.8118   -7.4114    7.3541 H         1 <0>         0.0634
     52 H18         6.3793   -7.9048    6.7317 H         1 <0>         0.0730
     53 H19         7.2889   -6.6219    5.8462 H         1 <0>         0.0723
     54 H20         3.0521   -5.1905    4.9730 H         1 <0>         0.0599
     55 H21         3.6203   -3.8609    6.0110 H         1 <0>         0.0587
     56 H22         3.8151   -3.7567    4.2449 H         1 <0>         0.0560
     57 H23         6.2813   -3.4676    4.3295 H         1 <0>         0.0562
     58 H24         6.1462   -3.3870    6.1025 H         1 <0>         0.0587
     59 H25         7.2677   -4.5445    5.3471 H         1 <0>         0.0592
     60 H26         7.2803   -8.2010    3.5873 H         1 <0>         0.0608
     61 H27         6.3452   -9.4696    4.4146 H         1 <0>         0.0581
     62 H28         5.7017   -8.7082    2.9400 H         1 <0>         0.0559
     63 H29        -0.5657   -5.4369   -1.6895 H         1 <0>         0.1353
     64 H30        -1.4091   -5.3893   -3.9992 H         1 <0>         0.1391
     65 H31         3.3229   -6.4999   -3.1487 H         1 <0>         0.1402
     66 H32         3.1892   -5.6284   -6.1278 H         1 <0>         0.0801
     67 H33         3.4886   -7.2476   -5.4519 H         1 <0>         0.0751
     68 H34         2.1441   -6.9930   -6.5903 H         1 <0>         0.0765
@<TRIPOS>BOND
     1    1    2 1
     2    1   37 1
     3    1   38 1
     4    1   39 1
     5    2    7 ar
     6    2    3 ar
     7    3    4 ar
     8    3   40 1
     9    4    5 ar
    10    4   41 1
    11    5    6 ar
    12    5    8 1
    13    6    7 ar
    14    6   42 1
    15    7   43 1
    16    8    9 1
    17    8   44 1
    18    8   45 1
    19    9   13 1
    20    9   10 1
    21   10   11 2
    22   10   29 1
    23   11   12 1
    24   11   46 1
    25   12   13 2
    26   12   14 1
    27   14   15 2
    28   14   16 am
    29   16   17 1
    30   16   47 1
    31   17   18 1
    32   17   25 1
    33   17   19 1
    34   19   24 1
    35   19   20 1
    36   19   28 1
    37   20   21 1
    38   20   48 1
    39   20   49 1
    40   21   22 1
    41   21   50 1
    42   21   51 1
    43   22   23 1
    44   22   24 1
    45   22   25 1
    46   24   52 1
    47   24   53 1
    48   25   26 1
    49   25   27 1
    50   26   54 1
    51   26   55 1
    52   26   56 1
    53   27   57 1
    54   27   58 1
    55   27   59 1
    56   28   60 1
    57   28   61 1
    58   28   62 1
    59   29   34 ar
    60   29   30 ar
    61   30   31 ar
    62   30   63 1
    63   31   32 ar
    64   31   64 1
    65   32   33 ar
    66   32   36 1
    67   33   34 ar
    68   33   35 1
    69   34   65 1
    70   35   66 1
    71   35   67 1
    72   35   68 1
@<TRIPOS>MOLECULE
ZINC36294905
   68    72     0     0     0
SMALL
USER_CHARGES

@<TRIPOS>ATOM
      1 C1         -1.9764   -5.5287    5.9604 C.3       1 <0>        -0.1197
      2 C2         -1.5549   -5.0949    4.5802 C.ar      1 <0>        -0.0676
      3 C3         -1.0265   -3.8327    4.3836 C.ar      1 <0>        -0.1215
      4 C4         -0.6399   -3.4347    3.1175 C.ar      1 <0>        -0.0786
      5 C5         -0.7812   -4.2991    2.0480 C.ar      1 <0>        -0.1109
      6 C6         -1.3087   -5.5616    2.2447 C.ar      1 <0>        -0.0868
      7 C7         -1.6914   -5.9611    3.5116 C.ar      1 <0>        -0.1219
      8 C8         -0.3606   -3.8648    0.6676 C.3       1 <0>         0.1567
      9 N1          1.0704   -4.1227    0.4894 N.pl3     1 <0>        -0.2685
     10 C9          1.7439   -4.0138   -0.6914 C.2       1 <0>         0.0445
     11 C10         3.0472   -4.3359   -0.4342 C.2       1 <0>        -0.1509
     12 C11         3.0955   -4.6348    0.9448 C.2       1 <0>        -0.0217
     13 N2          1.8769   -4.4794    1.4234 N.2       1 <0>        -0.2322
     14 C12         4.2915   -5.0419    1.7107 C.2       1 <0>         0.6078
     15 O1          5.3655   -5.1460    1.1509 O.2       1 <0>        -0.5297
     16 N3          4.1917   -5.2979    3.0302 N.am      1 <0>        -0.7055
     17 C13         5.3776   -5.7015    3.7898 C.3       1 <0>         0.1578
     18 H1          6.2652   -5.2027    3.4005 H         1 <0>         0.0932
     19 C14         5.1907   -5.3758    5.3031 C.3       1 <0>        -0.0818
     20 C15         6.5932   -5.6331    5.9340 C.3       1 <0>        -0.1123
     21 C16         6.7689   -7.1681    5.8834 C.3       1 <0>        -0.1313
     22 C17         5.4559   -7.6937    5.2268 C.3       1 <0>        -0.0923
     23 H2          5.2247   -8.7449    5.3989 H         1 <0>         0.0987
     24 C18         4.4181   -6.6554    5.7820 C.3       1 <0>        -0.1204
     25 C19         5.5550   -7.2362    3.7366 C.3       1 <0>        -0.0711
     26 C20         4.4389   -7.8737    2.9066 C.3       1 <0>        -0.1297
     27 C21         6.9244   -7.5951    3.1562 C.3       1 <0>        -0.1415
     28 C22         4.5344   -4.0310    5.6217 C.3       1 <0>        -0.1215
     29 C23         1.1734   -3.6227   -1.9998 C.ar      1 <0>        -0.0081
     30 C24        -0.0841   -3.0217   -2.0638 C.ar      1 <0>        -0.1252
     31 C25        -0.6110   -2.6593   -3.2859 C.ar      1 <0>        -0.0965
     32 C26         0.1055   -2.8912   -4.4480 C.ar      1 <0>        -0.0352
     33 C27         1.3538   -3.4872   -4.3905 C.ar      1 <0>        -0.0644
     34 C28         1.8932   -3.8482   -3.1729 C.ar      1 <0>        -0.0852
     35 C29         2.1272   -3.7368   -5.6595 C.3       1 <0>        -0.1237
     36 Cl1        -0.5642   -2.4335   -5.9828 Cl        1 <0>        -0.0607
     37 H3         -1.1328   -5.9972    6.4675 H         1 <0>         0.0736
     38 H4         -2.3054   -4.6595    6.5299 H         1 <0>         0.0684
     39 H5         -2.7958   -6.2433    5.8823 H         1 <0>         0.0681
     40 H6         -0.9161   -3.1574    5.2192 H         1 <0>         0.1246
     41 H7         -0.2277   -2.4483    2.9639 H         1 <0>         0.1205
     42 H8         -1.4195   -6.2367    1.4091 H         1 <0>         0.1207
     43 H9         -2.1001   -6.9488    3.6659 H         1 <0>         0.1244
     44 H10        -0.9262   -4.4245   -0.0774 H         1 <0>         0.1079
     45 H11        -0.5556   -2.7992    0.5467 H         1 <0>         0.1044
     46 H12         3.8667   -4.3572   -1.1373 H         1 <0>         0.1649
     47 H13         3.3347   -5.2148    3.4769 H         1 <0>         0.4047
     48 H14         7.3697   -5.1423    5.3471 H         1 <0>         0.0660
     49 H15         6.6162   -5.2818    6.9655 H         1 <0>         0.0683
     50 H16         7.6316   -7.4319    5.2717 H         1 <0>         0.0768
     51 H17         6.8781   -7.5714    6.8901 H         1 <0>         0.0632
     52 H18         4.3356   -6.7006    6.8679 H         1 <0>         0.0718
     53 H19         3.4458   -6.7507    5.2985 H         1 <0>         0.0679
     54 H20         4.4854   -7.4969    1.8849 H         1 <0>         0.0540
     55 H21         4.5638   -8.9565    2.9006 H         1 <0>         0.0515
     56 H22         3.4724   -7.6219    3.3431 H         1 <0>         0.0530
     57 H23         7.6983   -7.0285    3.6741 H         1 <0>         0.0610
     58 H24         7.1062   -8.6618    3.2869 H         1 <0>         0.0551
     59 H25         6.9443   -7.3505    2.0942 H         1 <0>         0.0607
     60 H26         3.5387   -3.9987    5.1793 H         1 <0>         0.0581
     61 H27         4.4558   -3.9120    6.7024 H         1 <0>         0.0620
     62 H28         5.1410   -3.2241    5.2105 H         1 <0>         0.0595
     63 H29        -0.6441   -2.8410   -1.1581 H         1 <0>         0.1356
     64 H30        -1.5843   -2.1940   -3.3366 H         1 <0>         0.1391
     65 H31         2.8692   -4.3087   -3.1287 H         1 <0>         0.1401
     66 H32         2.7518   -2.8713   -5.8806 H         1 <0>         0.0801
     67 H33         2.7576   -4.6171   -5.5336 H         1 <0>         0.0751
     68 H34         1.4317   -3.9026   -6.4823 H         1 <0>         0.0766
@<TRIPOS>BOND
     1    1    2 1
     2    1   37 1
     3    1   38 1
     4    1   39 1
     5    2    7 ar
     6    2    3 ar
     7    3    4 ar
     8    3   40 1
     9    4    5 ar
    10    4   41 1
    11    5    6 ar
    12    5    8 1
    13    6    7 ar
    14    6   42 1
    15    7   43 1
    16    8    9 1
    17    8   44 1
    18    8   45 1
    19    9   13 1
    20    9   10 1
    21   10   11 2
    22   10   29 1
    23   11   12 1
    24   11   46 1
    25   12   13 2
    26   12   14 1
    27   14   15 2
    28   14   16 am
    29   16   17 1
    30   16   47 1
    31   17   18 1
    32   17   25 1
    33   17   19 1
    34   19   24 1
    35   19   20 1
    36   19   28 1
    37   20   21 1
    38   20   48 1
    39   20   49 1
    40   21   22 1
    41   21   50 1
    42   21   51 1
    43   22   23 1
    44   22   24 1
    45   22   25 1
    46   24   52 1
    47   24   53 1
    48   25   26 1
    49   25   27 1
    50   26   54 1
    51   26   55 1
    52   26   56 1
    53   27   57 1
    54   27   58 1
    55   27   59 1
    56   28   60 1
    57   28   61 1
    58   28   62 1
    59   29   34 ar
    60   29   30 ar
    61   30   31 ar
    62   30   63 1
    63   31   32 ar
    64   31   64 1
    65   32   33 ar
    66   32   36 1
    67   33   34 ar
    68   33   35 1
    69   34   65 1
    70   35   66 1
    71   35   67 1
    72   35   68 1
@<TRIPOS>MOLECULE
ZINC01530625
   53    55     0     0     0
SMALL
USER_CHARGES
trimethyl-pentyl-BLAHol
@<TRIPOS>ATOM
      1 C1          1.1312    7.6661    2.8994 C.3       1 <0>        -0.1540
      2 C2          1.1487    6.1362    2.8960 C.3       1 <0>        -0.1262
      3 C3          1.1435    5.6293    1.4524 C.3       1 <0>        -0.1205
      4 C4          1.1610    4.0994    1.4490 C.3       1 <0>        -0.1146
      5 C5          1.1558    3.5925    0.0054 C.3       1 <0>        -0.0805
      6 C6          1.1731    2.0856    0.0021 C.ar      1 <0>        -0.0309
      7 C7         -0.0167    1.3825    0.0096 C.ar      1 <0>        -0.1773
      8 C8          0.0021   -0.0041    0.0020 C.ar      1 <0>         0.1493
      9 C9          1.2101   -0.6850   -0.0134 C.ar      1 <0>        -0.1821
     10 C10         2.4061    0.0193   -0.0126 C.ar      1 <0>         0.1598
     11 C11         2.3764    1.4113   -0.0090 C.ar      1 <0>        -0.1594
     12 O1          3.6146   -0.6005   -0.0010 O.3       1 <0>        -0.3086
     13 C12         3.6845   -2.0092   -0.2471 C.3       1 <0>         0.1227
     14 C13         2.5579   -2.6737    0.5379 C.3       1 <0>        -0.1116
     15 H1          2.6234   -2.3795    1.5854 H         1 <0>         0.0833
     16 C14         1.2282   -2.1827   -0.0438 C.3       1 <0>        -0.0074
     17 H2          1.1717   -2.5044   -1.0837 H         1 <0>         0.0862
     18 C15         0.0991   -2.8232    0.6943 C.2       1 <0>        -0.1575
     19 C16         0.2426   -3.9571    1.3166 C.2       1 <0>        -0.1330
     20 C17         1.5172   -4.7404    1.4011 C.3       1 <0>        -0.0831
     21 C18         2.5770   -4.1958    0.4360 C.3       1 <0>        -0.1091
     22 C19        -0.9695   -4.5278    2.0066 C.3       1 <0>        -0.1201
     23 C20         3.5073   -2.2839   -1.7418 C.3       1 <0>        -0.1757
     24 C21         5.0358   -2.5513    0.2230 C.3       1 <0>        -0.1411
     25 O2         -1.1666   -0.6976    0.0092 O.3       1 <0>        -0.4884
     26 H3          2.0130    8.0407    2.3796 H         1 <0>         0.0535
     27 H4          0.2332    8.0203    2.3932 H         1 <0>         0.0534
     28 H5          1.1349    8.0272    3.9278 H         1 <0>         0.0534
     29 H6          0.2669    5.7616    3.4158 H         1 <0>         0.0608
     30 H7          2.0467    5.7820    3.4022 H         1 <0>         0.0609
     31 H8          2.0253    6.0039    0.9326 H         1 <0>         0.0625
     32 H9          0.2455    5.9835    0.9462 H         1 <0>         0.0622
     33 H10         0.2792    3.7248    1.9688 H         1 <0>         0.0642
     34 H11         2.0590    3.7452    1.9552 H         1 <0>         0.0645
     35 H12         2.0376    3.9671   -0.5144 H         1 <0>         0.0754
     36 H13         0.2578    3.9467   -0.5008 H         1 <0>         0.0752
     37 H14        -0.9583    1.9114    0.0170 H         1 <0>         0.1293
     38 H15         3.3023    1.9672   -0.0154 H         1 <0>         0.1307
     39 H16        -0.8626   -2.3322    0.7121 H         1 <0>         0.1461
     40 H17         1.3121   -5.7820    1.1539 H         1 <0>         0.0732
     41 H18         1.9012   -4.6853    2.4197 H         1 <0>         0.0718
     42 H19         2.3403   -4.5010   -0.5833 H         1 <0>         0.0690
     43 H20         3.5606   -4.5727    0.7164 H         1 <0>         0.0748
     44 H21        -1.0093   -4.1621    3.0327 H         1 <0>         0.0632
     45 H22        -1.8695   -4.2183    1.4753 H         1 <0>         0.0622
     46 H23        -0.9063   -5.6160    2.0110 H         1 <0>         0.0592
     47 H24         4.2972   -1.7810   -2.2998 H         1 <0>         0.0681
     48 H25         3.5615   -3.3574   -1.9228 H         1 <0>         0.0755
     49 H26         2.5371   -1.9090   -2.0676 H         1 <0>         0.0640
     50 H27         5.1499   -2.3661    1.2911 H         1 <0>         0.0669
     51 H28         5.0831   -3.6236    0.0331 H         1 <0>         0.0817
     52 H29         5.8372   -2.0504   -0.3202 H         1 <0>         0.0690
     53 H30        -1.5131   -0.8936   -0.8720 H         1 <0>         0.3891
@<TRIPOS>BOND
     1    1    2 1
     2    1   26 1
     3    1   27 1
     4    1   28 1
     5    2    3 1
     6    2   29 1
     7    2   30 1
     8    3    4 1
     9    3   31 1
    10    3   32 1
    11    4    5 1
    12    4   33 1
    13    4   34 1
    14    5    6 1
    15    5   35 1
    16    5   36 1
    17    6   11 ar
    18    6    7 ar
    19    7    8 ar
    20    7   37 1
    21    8    9 ar
    22    8   25 1
    23    9   16 1
    24    9   10 ar
    25   10   11 ar
    26   10   12 1
    27   11   38 1
    28   12   13 1
    29   13   14 1
    30   13   23 1
    31   13   24 1
    32   14   15 1
    33   14   21 1
    34   14   16 1
    35   16   17 1
    36   16   18 1
    37   18   19 2
    38   18   39 1
    39   19   20 1
    40   19   22 1
    41   20   21 1
    42   20   40 1
    43   20   41 1
    44   21   42 1
    45   21   43 1
    46   22   44 1
    47   22   45 1
    48   22   46 1
    49   23   47 1
    50   23   48 1
    51   23   49 1
    52   24   50 1
    53   24   51 1
    54   24   52 1
    55   25   53 1
@<TRIPOS>MOLECULE
ZINC02568244
   67    68     0     0     0
SMALL
USER_CHARGES

@<TRIPOS>ATOM
      1 C1         -0.0187    1.5258    0.0104 C.3       1 <0>        -0.1543
      2 C2          0.0021   -0.0041    0.0020 C.3       1 <0>        -0.1261
      3 C3          0.7421   -0.5109    1.2415 C.3       1 <0>        -0.1206
      4 C4          0.7628   -2.0407    1.2331 C.3       1 <0>        -0.1209
      5 C5          1.5028   -2.5476    2.4727 C.3       1 <0>        -0.1238
      6 C6          1.5236   -4.0774    2.4642 C.3       1 <0>        -0.1105
      7 C7          2.2636   -4.5842    3.7038 C.3       1 <0>        -0.0238
      8 C8          3.6989   -4.0547    3.6929 C.3       1 <0>        -0.1411
      9 C9          1.5474   -4.0908    4.9626 C.3       1 <0>        -0.1411
     10 C10         2.2840   -6.0911    3.6955 C.ar      1 <0>        -0.0548
     11 C11         1.6895   -6.7844    2.6571 C.ar      1 <0>        -0.1266
     12 C12         1.7065   -8.1667    2.6466 C.ar      1 <0>        -0.0962
     13 C13         2.3175   -8.8590    3.6743 C.ar      1 <0>        -0.1001
     14 C14         2.9146   -8.1659    4.7171 C.ar      1 <0>         0.1097
     15 C15         2.9014   -6.7785    4.7222 C.ar      1 <0>        -0.1386
     16 O1          3.5162   -8.8447    5.7291 O.3       1 <0>        -0.4957
     17 C16         2.3349  -10.3659    3.6627 C.3       1 <0>        -0.0372
     18 H1          2.8571  -10.7300    4.5475 H         1 <0>         0.0871
     19 C17         3.0559  -10.8579    2.4062 C.3       1 <0>        -0.1028
     20 C18         3.0735  -12.3878    2.3944 C.3       1 <0>         0.1051
     21 H2          3.5958  -12.7520    3.2792 H         1 <0>         0.0544
     22 C19         1.6370  -12.9144    2.3973 C.3       1 <0>        -0.1526
     23 C20         0.9160  -12.4223    3.6539 C.3       1 <0>        -0.1149
     24 C21         0.8984  -10.8925    3.6656 C.3       1 <0>        -0.0749
     25 H3          0.3761  -10.5283    2.7809 H         1 <0>         0.0738
     26 C22         0.1773  -10.4004    4.9221 C.3       1 <0>        -0.1093
     27 C23        -1.2924  -10.8217    4.8647 C.3       1 <0>        -0.1205
     28 C24        -2.0135  -10.3296    6.1212 C.3       1 <0>         0.0744
     29 O2         -3.3862  -10.7231    6.0676 O.3       1 <0>        -0.5767
     30 O3          3.7470  -12.8474    1.2209 O.3       1 <0>        -0.5689
     31 H4          1.0039    1.9031    0.0027 H         1 <0>         0.0532
     32 H5         -0.5459    1.8868   -0.8726 H         1 <0>         0.0533
     33 H6         -0.5289    1.8773    0.9072 H         1 <0>         0.0532
     34 H7         -1.0205   -0.3814    0.0098 H         1 <0>         0.0601
     35 H8          0.5123   -0.3556   -0.8948 H         1 <0>         0.0602
     36 H9          1.7647   -0.1336    1.2338 H         1 <0>         0.0604
     37 H10         0.2319   -0.1594    2.1383 H         1 <0>         0.0603
     38 H11        -0.2598   -2.4180    1.2409 H         1 <0>         0.0603
     39 H12         1.2730   -2.3923    0.3363 H         1 <0>         0.0603
     40 H13         2.5254   -2.1703    2.4649 H         1 <0>         0.0651
     41 H14         0.9926   -2.1961    3.3695 H         1 <0>         0.0651
     42 H15         0.5010   -4.4547    2.4720 H         1 <0>         0.0656
     43 H16         2.0337   -4.4289    1.5675 H         1 <0>         0.0657
     44 H17         3.6842   -2.9648    3.6989 H         1 <0>         0.0632
     45 H18         4.2261   -4.4157    4.5760 H         1 <0>         0.0552
     46 H19         4.2091   -4.4062    2.7961 H         1 <0>         0.0563
     47 H20         0.5248   -4.4681    4.9703 H         1 <0>         0.0561
     48 H21         2.0746   -4.4519    5.8456 H         1 <0>         0.0556
     49 H22         1.5326   -3.0009    4.9686 H         1 <0>         0.0631
     50 H23         1.2107   -6.2450    1.8531 H         1 <0>         0.1280
     51 H24         1.2415   -8.7058    1.8345 H         1 <0>         0.1238
     52 H25         3.3697   -6.2365    5.5305 H         1 <0>         0.1255
     53 H26         4.4533   -9.0285    5.5768 H         1 <0>         0.3879
     54 H27         2.5337  -10.4938    1.5215 H         1 <0>         0.0717
     55 H28         4.0793  -10.4828    2.4042 H         1 <0>         0.0687
     56 H29         1.1148  -12.5502    1.5126 H         1 <0>         0.0710
     57 H30         1.6496  -14.0043    2.3890 H         1 <0>         0.0651
     58 H31        -0.1074  -12.7975    3.6559 H         1 <0>         0.0715
     59 H32         1.4382  -12.7865    4.5386 H         1 <0>         0.0650
     60 H33         0.6461  -10.8364    5.8043 H         1 <0>         0.0648
     61 H34         0.2419   -9.3136    4.9760 H         1 <0>         0.0669
     62 H35        -1.7612  -10.3856    3.9825 H         1 <0>         0.0675
     63 H36        -1.3570  -11.9084    4.8108 H         1 <0>         0.0707
     64 H37        -1.5447  -10.7656    7.0034 H         1 <0>         0.0443
     65 H38        -1.9489   -9.2428    6.1751 H         1 <0>         0.0438
     66 H39        -3.9056  -10.4440    6.8341 H         1 <0>         0.3799
     67 H40         3.7960  -13.8103    1.1472 H         1 <0>         0.3786
@<TRIPOS>BOND
     1    1    2 1
     2    1   31 1
     3    1   32 1
     4    1   33 1
     5    2    3 1
     6    2   34 1
     7    2   35 1
     8    3    4 1
     9    3   36 1
    10    3   37 1
    11    4    5 1
    12    4   38 1
    13    4   39 1
    14    5    6 1
    15    5   40 1
    16    5   41 1
    17    6    7 1
    18    6   42 1
    19    6   43 1
    20    7    8 1
    21    7    9 1
    22    7   10 1
    23    8   44 1
    24    8   45 1
    25    8   46 1
    26    9   47 1
    27    9   48 1
    28    9   49 1
    29   10   15 ar
    30   10   11 ar
    31   11   12 ar
    32   11   50 1
    33   12   13 ar
    34   12   51 1
    35   13   14 ar
    36   13   17 1
    37   14   15 ar
    38   14   16 1
    39   15   52 1
    40   16   53 1
    41   17   18 1
    42   17   24 1
    43   17   19 1
    44   19   20 1
    45   19   54 1
    46   19   55 1
    47   20   21 1
    48   20   22 1
    49   20   30 1
    50   22   23 1
    51   22   56 1
    52   22   57 1
    53   23   24 1
    54   23   58 1
    55   23   59 1
    56   24   25 1
    57   24   26 1
    58   26   27 1
    59   26   60 1
    60   26   61 1
    61   27   28 1
    62   27   62 1
    63   27   63 1
    64   28   29 1
    65   28   64 1
    66   28   65 1
    67   29   66 1
    68   30   67 1
@<TRIPOS>MOLECULE
ZINC01485260
   56    60     0     0     0
SMALL
USER_CHARGES
[1-[(1-methyl-2-piperidyl)methyl]indol-3-yl]-(1-naphthyl)methanone
@<TRIPOS>ATOM
      1 C1         -0.1265    3.1679   -1.0534 C.3       1 <0>        -0.0518
      2 C2          0.4962    1.4955   -2.6892 C.3       1 <0>        -0.0004
      3 C3          0.3738    0.0124   -3.0462 C.3       1 <0>        -0.1482
      4 C4          1.0900   -0.8245   -1.9826 C.3       1 <0>        -0.1351
      5 C5          0.4807   -0.5219   -0.6108 C.3       1 <0>        -0.1433
      6 C6          0.6000    0.9767   -0.3243 C.3       1 <0>         0.0100
      7 H1          1.6520    1.2618   -0.3138 H         1 <0>         0.1450
      8 C7         -0.0259    1.2867    1.0369 C.3       1 <0>         0.0900
      9 N1          0.7125    0.5797    2.0863 N.pl3     1 <0>        -0.4708
     10 C8          0.3016   -0.5643    2.6830 C.2       1 <0>         0.1227
     11 C9          1.2231   -0.9575    3.6112 C.2       1 <0>        -0.2284
     12 C10         2.2983    0.0513    3.5850 C.ar      1 <0>        -0.0623
     13 C11         1.9220    0.9891    2.6099 C.ar      1 <0>         0.0807
     14 C12         2.7503    2.0765    2.3542 C.ar      1 <0>        -0.1341
     15 C13         3.9273    2.2244    3.0559 C.ar      1 <0>        -0.0874
     16 C14         4.2972    1.2975    4.0189 C.ar      1 <0>        -0.1280
     17 C15         3.4898    0.2132    4.2867 C.ar      1 <0>        -0.0611
     18 C16         1.1538   -2.1466    4.4700 C.2       1 <0>         0.4707
     19 O1          2.0814   -2.4175    5.2105 O.2       1 <0>        -0.4338
     20 C17        -0.0394   -3.0127    4.4354 C.ar      1 <0>        -0.1447
     21 C18        -0.9800   -2.9650    5.4566 C.ar      1 <0>        -0.0664
     22 C19        -2.1055   -3.7765    5.4182 C.ar      1 <0>        -0.1188
     23 C20        -2.3259   -4.6510    4.3984 C.ar      1 <0>        -0.0850
     24 C21        -1.4134   -4.7568    3.3354 C.ar      1 <0>        -0.0542
     25 C22        -0.2540   -3.9431    3.3295 C.ar      1 <0>        -0.0246
     26 C23         0.6573   -4.0449    2.2715 C.ar      1 <0>        -0.1170
     27 C24         0.4187   -4.9261    1.2593 C.ar      1 <0>        -0.1044
     28 C25        -0.7202   -5.7280    1.2623 C.ar      1 <0>        -0.1189
     29 C26        -1.6272   -5.6544    2.2751 C.ar      1 <0>        -0.0955
     30 H2          0.8896    3.5173   -0.8702 H         1 <0>         0.1254
     31 H3         -0.5540    3.7172   -1.8922 H         1 <0>         0.1292
     32 H4         -0.7336    3.3335   -0.1634 H         1 <0>         0.1225
     33 H5         -0.0249    2.0933   -3.4369 H         1 <0>         0.1331
     34 H6          1.5487    1.7782   -2.6675 H         1 <0>         0.1307
     35 H7         -0.6790   -0.2677   -3.0816 H         1 <0>         0.0889
     36 H8          0.8309   -0.1665   -4.0195 H         1 <0>         0.1144
     37 H9          0.9684   -1.8836   -2.2096 H         1 <0>         0.0974
     38 H10         2.1506   -0.5731   -1.9746 H         1 <0>         0.0821
     39 H11         1.0147   -1.0827    0.1563 H         1 <0>         0.1124
     40 H12        -0.5704   -0.8104   -0.6079 H         1 <0>         0.0909
     41 H13         0.0188    2.3600    1.2214 H         1 <0>         0.1112
     42 H14        -1.0658    0.9602    1.0415 H         1 <0>         0.1156
     43 H15        -0.6153   -1.0884    2.4569 H         1 <0>         0.1820
     44 H16         2.4713    2.8045    1.6069 H         1 <0>         0.1154
     45 H17         4.5675    3.0705    2.8540 H         1 <0>         0.1326
     46 H18         5.2220    1.4262    4.5617 H         1 <0>         0.1333
     47 H19         3.7801   -0.5075    5.0368 H         1 <0>         0.1373
     48 H20        -0.8368   -2.2873    6.2852 H         1 <0>         0.1308
     49 H21        -2.8238   -3.7162    6.2225 H         1 <0>         0.1324
     50 H22        -3.2113   -5.2695    4.4064 H         1 <0>         0.1329
     51 H23         1.5442   -3.4287    2.2574 H         1 <0>         0.1222
     52 H24         1.1224   -5.0037    0.4437 H         1 <0>         0.1243
     53 H25        -0.8866   -6.4185    0.4486 H         1 <0>         0.1270
     54 H26        -2.5061   -6.2820    2.2636 H         1 <0>         0.1325
     55 N2         -0.1302    1.7246   -1.3697 N.4       1 <0>        -0.3897
     56 H27        -1.1013    1.3925   -1.3998 H         1 <0>         0.4284
@<TRIPOS>BOND
     1    1   30 1
     2    1   31 1
     3    1   32 1
     4    1   55 1
     5    2    3 1
     6    2   33 1
     7    2   34 1
     8    2   55 1
     9    3    4 1
    10    3   35 1
    11    3   36 1
    12    4    5 1
    13    4   37 1
    14    4   38 1
    15    5    6 1
    16    5   39 1
    17    5   40 1
    18    6    7 1
    19    6    8 1
    20    6   55 1
    21    8    9 1
    22    8   41 1
    23    8   42 1
    24    9   13 1
    25    9   10 1
    26   10   11 2
    27   10   43 1
    28   11   12 1
    29   11   18 1
    30   12   17 ar
    31   12   13 ar
    32   13   14 ar
    33   14   15 ar
    34   14   44 1
    35   15   16 ar
    36   15   45 1
    37   16   17 ar
    38   16   46 1
    39   17   47 1
    40   18   19 2
    41   18   20 1
    42   20   25 ar
    43   20   21 ar
    44   21   22 ar
    45   21   48 1
    46   22   23 ar
    47   22   49 1
    48   23   24 ar
    49   23   50 1
    50   24   29 ar
    51   24   25 ar
    52   25   26 ar
    53   26   27 ar
    54   26   51 1
    55   27   28 ar
    56   27   52 1
    57   28   29 ar
    58   28   53 1
    59   29   54 1
    60   55   56 1
@<TRIPOS>MOLECULE
ZINC03825191
   56    60     0     0     0
SMALL
USER_CHARGES
[1-[(1-methyl-2-piperidyl)methyl]indol-3-yl]-(1-naphthyl)methanone
@<TRIPOS>ATOM
      1 C1         10.5817    2.6763    0.8681 C.3       1 <0>        -0.0520
      2 C2         10.8994    3.6446    3.0639 C.3       1 <0>        -0.0002
      3 C3         10.8479    4.9538    3.8547 C.3       1 <0>        -0.1484
      4 C4          9.4068    5.4706    3.8836 C.3       1 <0>        -0.1352
      5 C5          8.9116    5.6590    2.4470 C.3       1 <0>        -0.1475
      6 C6          9.0193    4.3294    1.6969 C.3       1 <0>         0.0111
      7 H1          8.3966    3.5828    2.1899 H         1 <0>         0.1442
      8 C7          8.5442    4.5177    0.2548 C.3       1 <0>         0.0896
      9 N1          7.1244    4.8785    0.2515 N.pl3     1 <0>        -0.4710
     10 C8          6.1030    3.9942    0.1592 C.2       1 <0>         0.1200
     11 C9          4.9114    4.6615    0.1811 C.2       1 <0>        -0.2272
     12 C10         5.2377    6.0939    0.3090 C.ar      1 <0>        -0.0630
     13 C11         6.6395    6.1669    0.3483 C.ar      1 <0>         0.0817
     14 C12         7.2544    7.4086    0.4670 C.ar      1 <0>        -0.1333
     15 C13         6.4876    8.5511    0.5452 C.ar      1 <0>        -0.0879
     16 C14         5.1032    8.4771    0.5067 C.ar      1 <0>        -0.1274
     17 C15         4.4753    7.2560    0.3890 C.ar      1 <0>        -0.0619
     18 C16         3.5704    4.0691    0.0996 C.2       1 <0>         0.4702
     19 O1          2.5894    4.7882    0.0463 O.2       1 <0>        -0.4333
     20 C17         3.4117    2.6029    0.0825 C.ar      1 <0>        -0.1431
     21 C18         2.9755    1.9235    1.2130 C.ar      1 <0>        -0.0689
     22 C19         2.8275    0.5436    1.1942 C.ar      1 <0>        -0.1214
     23 C20         3.0993   -0.1928    0.0819 C.ar      1 <0>        -0.0841
     24 C21         3.5444    0.4279   -1.0972 C.ar      1 <0>        -0.0550
     25 C22         3.7103    1.8344   -1.1238 C.ar      1 <0>        -0.0253
     26 C23         4.1542    2.4567   -2.2968 C.ar      1 <0>        -0.1171
     27 C24         4.4215    1.7020   -3.4000 C.ar      1 <0>        -0.1021
     28 C25         4.2593    0.3187   -3.3773 C.ar      1 <0>        -0.1163
     29 C26         3.8295   -0.3186   -2.2536 C.ar      1 <0>        -0.0978
     30 H2         10.3879    2.9251   -0.1753 H         1 <0>         0.1224
     31 H3         11.6004    2.3023    0.9693 H         1 <0>         0.1289
     32 H4          9.8790    1.9100    1.1954 H         1 <0>         0.1258
     33 H5         11.9266    3.2814    3.0293 H         1 <0>         0.1329
     34 H6         10.2676    2.9014    3.5502 H         1 <0>         0.1307
     35 H7         11.4902    5.6933    3.3765 H         1 <0>         0.0888
     36 H8         11.1916    4.7771    4.8739 H         1 <0>         0.1142
     37 H9          9.3726    6.4251    4.4088 H         1 <0>         0.0973
     38 H10         8.7705    4.7495    4.3966 H         1 <0>         0.0816
     39 H11         9.5234    6.4096    1.9466 H         1 <0>         0.0903
     40 H12         7.8720    5.9864    2.4598 H         1 <0>         0.1172
     41 H13         8.6843    3.5888   -0.2981 H         1 <0>         0.1154
     42 H14         9.1221    5.3122   -0.2173 H         1 <0>         0.1122
     43 H15         6.2138    2.9230    0.0780 H         1 <0>         0.1812
     44 H16         8.3318    7.4774    0.4978 H         1 <0>         0.1187
     45 H17         6.9694    9.5133    0.6376 H         1 <0>         0.1329
     46 H18         4.5146    9.3805    0.5689 H         1 <0>         0.1331
     47 H19         3.3971    7.2008    0.3592 H         1 <0>         0.1369
     48 H20         2.7493    2.4739    2.1143 H         1 <0>         0.1296
     49 H21         2.4868    0.0400    2.0868 H         1 <0>         0.1312
     50 H22         2.9712   -1.2649    0.1061 H         1 <0>         0.1324
     51 H23         4.2843    3.5284   -2.3272 H         1 <0>         0.1235
     52 H24         4.7681    2.1827   -4.3029 H         1 <0>         0.1265
     53 H25         4.4781   -0.2570   -4.2645 H         1 <0>         0.1281
     54 H26         3.7087   -1.3919   -2.2505 H         1 <0>         0.1326
     55 N2         10.4338    3.8991    1.6841 N.4       1 <0>        -0.3903
     56 H27        11.0054    4.6460    1.2722 H         1 <0>         0.4284
@<TRIPOS>BOND
     1    1   30 1
     2    1   31 1
     3    1   32 1
     4    1   55 1
     5    2    3 1
     6    2   33 1
     7    2   34 1
     8    2   55 1
     9    3    4 1
    10    3   35 1
    11    3   36 1
    12    4    5 1
    13    4   37 1
    14    4   38 1
    15    5    6 1
    16    5   39 1
    17    5   40 1
    18    6    7 1
    19    6    8 1
    20    6   55 1
    21    8    9 1
    22    8   41 1
    23    8   42 1
    24    9   13 1
    25    9   10 1
    26   10   11 2
    27   10   43 1
    28   11   12 1
    29   11   18 1
    30   12   17 ar
    31   12   13 ar
    32   13   14 ar
    33   14   15 ar
    34   14   44 1
    35   15   16 ar
    36   15   45 1
    37   16   17 ar
    38   16   46 1
    39   17   47 1
    40   18   19 2
    41   18   20 1
    42   20   25 ar
    43   20   21 ar
    44   21   22 ar
    45   21   48 1
    46   22   23 ar
    47   22   49 1
    48   23   24 ar
    49   23   50 1
    50   24   29 ar
    51   24   25 ar
    52   25   26 ar
    53   26   27 ar
    54   26   51 1
    55   27   28 ar
    56   27   52 1
    57   28   29 ar
    58   28   53 1
    59   29   54 1
    60   55   56 1
@<TRIPOS>MOLECULE
ZINC13782506
   61    60     0     0     0
SMALL
USER_CHARGES
(5Z,8Z,11Z,14Z)-N-(2-fluoroethyl)icosa-5,8,11,14-tetraenamide
@<TRIPOS>ATOM
      1 C1          1.8622   -0.7602   -4.9515 C.3       1 <0>        -0.1543
      2 C2          1.3560    0.0455   -3.7534 C.3       1 <0>        -0.1260
      3 C3          1.6704   -0.7106   -2.4609 C.3       1 <0>        -0.1214
      4 C4          1.1642    0.0951   -1.2627 C.3       1 <0>        -0.1145
      5 C5          1.4787   -0.6609    0.0297 C.3       1 <0>        -0.1026
      6 C6          0.9800    0.1326    1.2099 C.2       1 <0>        -0.1578
      7 C7          0.2026   -0.4342    2.0989 C.2       1 <0>        -0.1537
      8 C8         -0.0603   -1.9167    2.0341 C.3       1 <0>        -0.0837
      9 C9          0.2658   -2.5434    3.3653 C.2       1 <0>        -0.1507
     10 C10        -0.6188   -3.2986    3.9680 C.2       1 <0>        -0.1525
     11 C11        -1.8950   -3.6754    3.2605 C.3       1 <0>        -0.0838
     12 C12        -2.0561   -5.1736    3.2791 C.2       1 <0>        -0.1514
     13 C13        -3.1634   -5.7078    3.7315 C.2       1 <0>        -0.1519
     14 C14        -4.3410   -4.8296    4.0679 C.3       1 <0>        -0.0833
     15 C15        -5.5641   -5.3304    3.3439 C.2       1 <0>        -0.1517
     16 C16        -6.6597   -5.5922    4.0125 C.2       1 <0>        -0.1574
     17 C17        -6.7526   -5.2394    5.4747 C.3       1 <0>        -0.1016
     18 C18        -8.0167   -4.4133    5.7207 C.3       1 <0>        -0.0996
     19 C19        -8.1110   -4.0551    7.2052 C.3       1 <0>        -0.1400
     20 C20        -9.3561   -3.2414    7.4475 C.2       1 <0>         0.5134
     21 O1        -10.0952   -2.9743    6.5238 O.2       1 <0>        -0.5326
     22 N1         -9.6482   -2.8105    8.6907 N.am      1 <0>        -0.7346
     23 C21       -10.8586   -2.0195    8.9262 C.3       1 <0>         0.0849
     24 C22       -10.9529   -1.6613   10.4107 C.3       1 <0>         0.0547
     25 F1        -12.1087   -0.9059   10.6357 F         1 <0>        -0.2054
     26 H1          1.3694   -1.7322   -4.9701 H         1 <0>         0.0534
     27 H2          1.6382   -0.2216   -5.8723 H         1 <0>         0.0536
     28 H3          2.9397   -0.9007   -4.8657 H         1 <0>         0.0534
     29 H4          0.2785    0.1860   -3.8391 H         1 <0>         0.0606
     30 H5          1.8488    1.0175   -3.7348 H         1 <0>         0.0606
     31 H6          2.7479   -0.8511   -2.3751 H         1 <0>         0.0613
     32 H7          1.1776   -1.6826   -2.4795 H         1 <0>         0.0610
     33 H8          0.0867    0.2356   -1.3485 H         1 <0>         0.0620
     34 H9          1.6570    1.0671   -1.2442 H         1 <0>         0.0617
     35 H10         0.9858   -1.6330    0.0111 H         1 <0>         0.0756
     36 H11         2.5562   -0.8014    0.1155 H         1 <0>         0.0688
     37 H12         1.2636    1.1686    1.3226 H         1 <0>         0.1089
     38 H13        -0.2498    0.1609    2.8784 H         1 <0>         0.1085
     39 H14        -1.1104   -2.0895    1.7987 H         1 <0>         0.0829
     40 H15         0.5638   -2.3629    1.2599 H         1 <0>         0.0841
     41 H16         1.2288   -2.3698    3.8224 H         1 <0>         0.1097
     42 H17        -0.4335   -3.6512    4.9719 H         1 <0>         0.1098
     43 H18        -2.7417   -3.2126    3.7674 H         1 <0>         0.0833
     44 H19        -1.8547   -3.3271    2.2285 H         1 <0>         0.0835
     45 H20        -1.2586   -5.8070    2.9195 H         1 <0>         0.1098
     46 H21        -3.2323   -6.7775    3.8634 H         1 <0>         0.1099
     47 H22        -4.5187   -4.8564    5.1430 H         1 <0>         0.0834
     48 H23        -4.1302   -3.8055    3.7599 H         1 <0>         0.0831
     49 H24        -5.5374   -5.4734    2.2737 H         1 <0>         0.1095
     50 H25        -7.4964   -6.0609    3.5159 H         1 <0>         0.1106
     51 H26        -6.7949   -6.1534    6.0671 H         1 <0>         0.0708
     52 H27        -5.8769   -4.6587    5.7647 H         1 <0>         0.0768
     53 H28        -7.9744   -3.4993    5.1284 H         1 <0>         0.0716
     54 H29        -8.8924   -4.9940    5.4307 H         1 <0>         0.0713
     55 H30        -8.1533   -4.9691    7.7975 H         1 <0>         0.0958
     56 H31        -7.2353   -3.4744    7.4952 H         1 <0>         0.0954
     57 H32        -9.0570   -3.0242    9.4294 H         1 <0>         0.4029
     58 H33       -10.8163   -1.1055    8.3339 H         1 <0>         0.0801
     59 H34       -11.7343   -2.6002    8.6363 H         1 <0>         0.0801
     60 H35       -10.9952   -2.5753   11.0031 H         1 <0>         0.0819
     61 H36       -10.0772   -1.0806   10.7007 H         1 <0>         0.0819
@<TRIPOS>BOND
     1    1    2 1
     2    1   26 1
     3    1   27 1
     4    1   28 1
     5    2    3 1
     6    2   29 1
     7    2   30 1
     8    3    4 1
     9    3   31 1
    10    3   32 1
    11    4    5 1
    12    4   33 1
    13    4   34 1
    14    5    6 1
    15    5   35 1
    16    5   36 1
    17    6    7 2
    18    6   37 1
    19    7    8 1
    20    7   38 1
    21    8    9 1
    22    8   39 1
    23    8   40 1
    24    9   10 2
    25    9   41 1
    26   10   11 1
    27   10   42 1
    28   11   12 1
    29   11   43 1
    30   11   44 1
    31   12   13 2
    32   12   45 1
    33   13   14 1
    34   13   46 1
    35   14   15 1
    36   14   47 1
    37   14   48 1
    38   15   16 2
    39   15   49 1
    40   16   17 1
    41   16   50 1
    42   17   18 1
    43   17   51 1
    44   17   52 1
    45   18   19 1
    46   18   53 1
    47   18   54 1
    48   19   20 1
    49   19   55 1
    50   19   56 1
    51   20   21 2
    52   20   22 am
    53   22   23 1
    54   22   57 1
    55   23   24 1
    56   23   58 1
    57   23   59 1
    58   24   25 1
    59   24   60 1
    60   24   61 1
@<TRIPOS>MOLECULE
ZINC01530831
   53    54     0     0     0
SMALL
USER_CHARGES
2-(6-isopropenyl-3-methyl-1-cyclohex-2-enyl)-5-pentyl-benzene-1,3-diol
@<TRIPOS>ATOM
      1 C1          6.0203   -0.9384   -2.9419 C.3       1 <0>        -0.1542
      2 C2          4.6861   -0.1896   -2.9262 C.3       1 <0>        -0.1259
      3 C3          4.2546    0.0532   -1.4785 C.3       1 <0>        -0.1210
      4 C4          2.9205    0.8020   -1.4628 C.3       1 <0>        -0.1139
      5 C5          2.4890    1.0448   -0.0151 C.3       1 <0>        -0.0814
      6 C6          1.1749    1.7823    0.0004 C.ar      1 <0>        -0.0518
      7 C7         -0.0126    1.0758    0.0080 C.ar      1 <0>        -0.1513
      8 C8         -1.2240    1.7527    0.0174 C.ar      1 <0>         0.1325
      9 C9         -1.2421    3.1389    0.0294 C.ar      1 <0>        -0.1234
     10 C10        -0.0494    3.8455    0.0218 C.ar      1 <0>         0.1286
     11 C11         1.1594    3.1640    0.0075 C.ar      1 <0>        -0.1501
     12 O1         -0.0639    5.2044    0.0279 O.3       1 <0>        -0.4919
     13 C12        -2.5562    3.8764    0.0444 C.3       1 <0>         0.0013
     14 H1         -2.3680    4.9500    0.0424 H         1 <0>         0.0945
     15 C13        -3.3474    3.5079   -1.1764 C.2       1 <0>        -0.1389
     16 C14        -4.6171    3.2561   -1.1690 C.2       1 <0>        -0.1183
     17 C15        -5.4735    3.2881    0.0629 C.3       1 <0>        -0.0823
     18 C16        -4.7601    4.0513    1.1811 C.3       1 <0>        -0.1101
     19 C17        -3.3331    3.5028    1.3087 C.3       1 <0>        -0.0420
     20 H2         -3.3654    2.4182    1.4118 H         1 <0>         0.0751
     21 C18        -2.6625    4.1108    2.5135 C.2       1 <0>        -0.1094
     22 C19        -2.2156    3.3392    3.4733 C.2       1 <0>        -0.2000
     23 C20        -2.5060    5.6062    2.6143 C.3       1 <0>        -0.1172
     24 C21        -5.2764    2.9097   -2.4791 C.3       1 <0>        -0.1199
     25 O2         -2.3916    1.0573    0.0195 O.3       1 <0>        -0.4851
     26 H3          6.3277   -1.1114   -3.9733 H         1 <0>         0.0537
     27 H4          6.7774   -0.3425   -2.4322 H         1 <0>         0.0536
     28 H5          5.9062   -1.8947   -2.4315 H         1 <0>         0.0536
     29 H6          3.9290   -0.7855   -3.4359 H         1 <0>         0.0608
     30 H7          4.8002    0.7667   -3.4366 H         1 <0>         0.0606
     31 H8          5.0117    0.6491   -0.9688 H         1 <0>         0.0624
     32 H9          4.1406   -0.9031   -0.9681 H         1 <0>         0.0624
     33 H10         2.1634    0.2061   -1.9725 H         1 <0>         0.0638
     34 H11         3.0345    1.7583   -1.9732 H         1 <0>         0.0633
     35 H12         3.2461    1.6407    0.4946 H         1 <0>         0.0746
     36 H13         2.3749    0.0885    0.4953 H         1 <0>         0.0744
     37 H14         0.0021   -0.0041    0.0020 H         1 <0>         0.1286
     38 H15         2.0889    3.7140    0.0016 H         1 <0>         0.1289
     39 H16        -0.0764    5.6015   -0.8537 H         1 <0>         0.3895
     40 H17        -2.8249    3.4487   -2.1197 H         1 <0>         0.0991
     41 H18        -6.4177    3.7821   -0.1662 H         1 <0>         0.0712
     42 H19        -5.6721    2.2680    0.3915 H         1 <0>         0.0728
     43 H20        -4.7243    5.1127    0.9353 H         1 <0>         0.0670
     44 H21        -5.2953    3.9106    2.1201 H         1 <0>         0.0684
     45 H22        -2.3278    2.2675    3.4011 H         1 <0>         0.0909
     46 H23        -1.7350    3.7749    4.3368 H         1 <0>         0.0967
     47 H24        -3.3777    6.0300    3.1129 H         1 <0>         0.0642
     48 H25        -1.6096    5.8398    3.1888 H         1 <0>         0.0618
     49 H26        -2.4174    6.0305    1.6142 H         1 <0>         0.0661
     50 H27        -4.5328    2.9271   -3.2758 H         1 <0>         0.0578
     51 H28        -5.7149    1.9140   -2.4130 H         1 <0>         0.0638
     52 H29        -6.0583    3.6374   -2.6959 H         1 <0>         0.0619
     53 H30        -2.7251    0.8515    0.9035 H         1 <0>         0.3840
@<TRIPOS>BOND
     1    1    2 1
     2    1   26 1
     3    1   27 1
     4    1   28 1
     5    2    3 1
     6    2   29 1
     7    2   30 1
     8    3    4 1
     9    3   31 1
    10    3   32 1
    11    4    5 1
    12    4   33 1
    13    4   34 1
    14    5    6 1
    15    5   35 1
    16    5   36 1
    17    6   11 ar
    18    6    7 ar
    19    7    8 ar
    20    7   37 1
    21    8    9 ar
    22    8   25 1
    23    9   10 ar
    24    9   13 1
    25   10   11 ar
    26   10   12 1
    27   11   38 1
    28   12   39 1
    29   13   14 1
    30   13   19 1
    31   13   15 1
    32   15   16 2
    33   15   40 1
    34   16   17 1
    35   16   24 1
    36   17   18 1
    37   17   41 1
    38   17   42 1
    39   18   19 1
    40   18   43 1
    41   18   44 1
    42   19   20 1
    43   19   21 1
    44   21   22 2
    45   21   23 1
    46   22   45 1
    47   22   46 1
    48   23   47 1
    49   23   48 1
    50   23   49 1
    51   24   50 1
    52   24   51 1
    53   24   52 1
    54   25   53 1
@<TRIPOS>MOLECULE
ZINC01530832
   53    54     0     0     0
SMALL
USER_CHARGES
2-[(1R,6S)-6-isopropenyl-3-methyl-1-cyclohex-2-enyl]-5-pentyl-benzene-1,3-diol
@<TRIPOS>ATOM
      1 C1         -3.3196    6.4132   -5.8020 C.3       1 <0>        -0.1541
      2 C2         -3.2863    6.3150   -4.2755 C.3       1 <0>        -0.1260
      3 C3         -3.3521    4.8447   -3.8575 C.3       1 <0>        -0.1206
      4 C4         -3.3188    4.7465   -2.3310 C.3       1 <0>        -0.1143
      5 C5         -3.3846    3.2762   -1.9130 C.3       1 <0>        -0.0810
      6 C6         -3.3518    3.1795   -0.4094 C.ar      1 <0>        -0.0524
      7 C7         -2.1418    3.0675    0.2483 C.ar      1 <0>        -0.1510
      8 C8         -2.1088    2.9832    1.6331 C.ar      1 <0>         0.1317
      9 C9         -3.2917    3.0003    2.3559 C.ar      1 <0>        -0.1188
     10 C10        -4.5047    3.1074    1.6933 C.ar      1 <0>         0.1296
     11 C11        -4.5322    3.1972    0.3087 C.ar      1 <0>        -0.1551
     12 O1         -5.6660    3.1239    2.3990 O.3       1 <0>        -0.4802
     13 C12        -3.2590    2.9021    3.8593 C.3       1 <0>         0.0081
     14 H1         -2.3157    2.4542    4.1717 H         1 <0>         0.0828
     15 C13        -4.3947    2.0394    4.3262 C.2       1 <0>        -0.1711
     16 C14        -5.4859    2.4980    4.8503 C.2       1 <0>        -0.0915
     17 C15        -5.7636    3.9558    5.0734 C.3       1 <0>        -0.0746
     18 C16        -4.8097    4.8085    4.2339 C.3       1 <0>        -0.1184
     19 C17        -3.3794    4.3035    4.4619 C.3       1 <0>        -0.0402
     20 H2         -3.1716    4.2617    5.5311 H         1 <0>         0.0750
     21 C18        -2.4013    5.2306    3.7874 C.2       1 <0>        -0.1024
     22 C19        -1.2945    5.5726    4.3990 C.2       1 <0>        -0.1962
     23 C20        -2.6965    5.7643    2.4093 C.3       1 <0>        -0.1254
     24 C21        -6.5435    1.5062    5.2615 C.3       1 <0>        -0.1273
     25 O2         -0.9181    2.8787    2.2798 O.3       1 <0>        -0.4872
     26 H3         -2.4663    5.8784   -6.2192 H         1 <0>         0.0534
     27 H4         -4.2433    5.9705   -6.1746 H         1 <0>         0.0534
     28 H5         -3.2728    7.4607   -6.0999 H         1 <0>         0.0537
     29 H6         -4.1396    6.8498   -3.8584 H         1 <0>         0.0608
     30 H7         -2.3626    6.7577   -3.9030 H         1 <0>         0.0609
     31 H8         -2.4988    4.3099   -4.2746 H         1 <0>         0.0620
     32 H9         -4.2758    4.4020   -4.2300 H         1 <0>         0.0620
     33 H10        -4.1721    5.2813   -1.9139 H         1 <0>         0.0639
     34 H11        -2.3951    5.1892   -1.9585 H         1 <0>         0.0639
     35 H12        -4.3083    2.8335   -2.2855 H         1 <0>         0.0737
     36 H13        -2.5313    2.7414   -2.3301 H         1 <0>         0.0737
     37 H14        -1.2209    3.0494   -0.3155 H         1 <0>         0.1279
     38 H15        -5.4769    3.2807   -0.2079 H         1 <0>         0.1281
     39 H16        -6.0488    2.2484    2.5470 H         1 <0>         0.3794
     40 H17        -4.2957    0.9694    4.2180 H         1 <0>         0.1008
     41 H18        -5.6262    4.1924    6.1285 H         1 <0>         0.0657
     42 H19        -6.7919    4.1739    4.7851 H         1 <0>         0.0723
     43 H20        -4.8835    5.8515    4.5417 H         1 <0>         0.0561
     44 H21        -5.0660    4.7190    3.1782 H         1 <0>         0.0970
     45 H22        -1.0829    5.1902    5.3866 H         1 <0>         0.0920
     46 H23        -0.5936    6.2371    3.9156 H         1 <0>         0.0931
     47 H24        -3.1613    6.7467    2.4920 H         1 <0>         0.0570
     48 H25        -1.7675    5.8482    1.8455 H         1 <0>         0.0579
     49 H26        -3.3743    5.0839    1.8937 H         1 <0>         0.0739
     50 H27        -7.2207    1.3298    4.4258 H         1 <0>         0.0665
     51 H28        -6.0694    0.5679    5.5493 H         1 <0>         0.0610
     52 H29        -7.1053    1.9037    6.1067 H         1 <0>         0.0634
     53 H30        -0.6538    1.9688    2.4728 H         1 <0>         0.3868
@<TRIPOS>BOND
     1    1    2 1
     2    1   26 1
     3    1   27 1
     4    1   28 1
     5    2    3 1
     6    2   29 1
     7    2   30 1
     8    3    4 1
     9    3   31 1
    10    3   32 1
    11    4    5 1
    12    4   33 1
    13    4   34 1
    14    5    6 1
    15    5   35 1
    16    5   36 1
    17    6   11 ar
    18    6    7 ar
    19    7    8 ar
    20    7   37 1
    21    8    9 ar
    22    8   25 1
    23    9   10 ar
    24    9   13 1
    25   10   11 ar
    26   10   12 1
    27   11   38 1
    28   12   39 1
    29   13   14 1
    30   13   19 1
    31   13   15 1
    32   15   16 2
    33   15   40 1
    34   16   17 1
    35   16   24 1
    36   17   18 1
    37   17   41 1
    38   17   42 1
    39   18   19 1
    40   18   43 1
    41   18   44 1
    42   19   20 1
    43   19   21 1
    44   21   22 2
    45   21   23 1
    46   22   45 1
    47   22   46 1
    48   23   47 1
    49   23   48 1
    50   23   49 1
    51   24   50 1
    52   24   51 1
    53   24   52 1
    54   25   53 1
@<TRIPOS>MOLECULE
ZINC04097406
   53    54     0     0     0
SMALL
USER_CHARGES
2-(6-isopropenyl-3-methyl-1-cyclohex-2-enyl)-5-pentyl-benzene-1,3-diol
@<TRIPOS>ATOM
      1 C1         -1.4906   -2.6859   10.5600 C.3       1 <0>        -0.1542
      2 C2         -2.1649   -2.1025    9.3167 C.3       1 <0>        -0.1258
      3 C3         -1.1034   -1.7896    8.2602 C.3       1 <0>        -0.1210
      4 C4         -1.7776   -1.2062    7.0169 C.3       1 <0>        -0.1139
      5 C5         -0.7161   -0.8934    5.9604 C.3       1 <0>        -0.0814
      6 C6         -1.3802   -0.3186    4.7357 C.ar      1 <0>        -0.0518
      7 C7         -1.5608    1.0468    4.6257 C.ar      1 <0>        -0.1500
      8 C8         -2.1725    1.5785    3.4992 C.ar      1 <0>         0.1285
      9 C9         -2.6026    0.7383    2.4838 C.ar      1 <0>        -0.1233
     10 C10        -2.4254   -0.6318    2.5991 C.ar      1 <0>         0.1325
     11 C11        -1.8080   -1.1581    3.7250 C.ar      1 <0>        -0.1513
     12 O1         -2.8514   -1.4584    1.6081 O.3       1 <0>        -0.4853
     13 C12        -3.2671    1.3130    1.2593 C.3       1 <0>         0.0017
     14 H1         -3.3137    2.3981    1.3517 H         1 <0>         0.0949
     15 C13        -4.6587    0.7633    1.1444 C.2       1 <0>        -0.1403
     16 C14        -5.1912    0.3635    0.0343 C.2       1 <0>        -0.1173
     17 C15        -4.4878    0.3845   -1.2911 C.3       1 <0>        -0.0824
     18 C16        -3.2691    1.3077   -1.2265 C.3       1 <0>        -0.1100
     19 C17        -2.4506    0.9442    0.0188 C.3       1 <0>        -0.0425
     20 H2         -2.2400   -0.1253    0.0195 H         1 <0>         0.0756
     21 C18        -1.1558    1.7153    0.0169 C.2       1 <0>        -0.1095
     22 C19        -0.0126    1.0758    0.0080 C.2       1 <0>        -0.2004
     23 C20        -1.1763    3.2222    0.0251 C.3       1 <0>        -0.1176
     24 C21        -6.6053   -0.1557    0.0757 C.3       1 <0>        -0.1207
     25 O2         -2.3502    2.9215    3.3917 O.3       1 <0>        -0.4919
     26 H3         -0.9641   -3.6018   10.2917 H         1 <0>         0.0536
     27 H4         -0.7806   -1.9629   10.9613 H         1 <0>         0.0536
     28 H5         -2.2469   -2.9088   11.3126 H         1 <0>         0.0537
     29 H6         -2.6915   -1.1866    9.5849 H         1 <0>         0.0606
     30 H7         -2.8750   -2.8255    8.9153 H         1 <0>         0.0608
     31 H8         -0.5768   -2.7055    7.9919 H         1 <0>         0.0624
     32 H9         -0.3933   -1.0666    8.6615 H         1 <0>         0.0624
     33 H10        -2.3042   -0.2903    7.2851 H         1 <0>         0.0633
     34 H11        -2.4877   -1.9292    6.6155 H         1 <0>         0.0638
     35 H12        -0.1895   -1.8092    5.6921 H         1 <0>         0.0743
     36 H13        -0.0060   -0.1703    6.3617 H         1 <0>         0.0745
     37 H14        -1.2252    1.7010    5.4169 H         1 <0>         0.1290
     38 H15        -1.6658   -2.2250    3.8133 H         1 <0>         0.1285
     39 H16        -2.1877   -1.6292    0.9259 H         1 <0>         0.3841
     40 H17        -5.2528    0.6967    2.0438 H         1 <0>         0.0989
     41 H18        -5.1734    0.7443   -2.0583 H         1 <0>         0.0714
     42 H19        -4.1634   -0.6249   -1.5440 H         1 <0>         0.0730
     43 H20        -3.5982    2.3446   -1.1588 H         1 <0>         0.0672
     44 H21        -2.6585    1.1714   -2.1190 H         1 <0>         0.0683
     45 H22         0.0021   -0.0041    0.0020 H         1 <0>         0.0909
     46 H23         0.9153    1.6285    0.0021 H         1 <0>         0.0967
     47 H24        -1.1861    3.5910   -1.0005 H         1 <0>         0.0642
     48 H25        -2.0687    3.5706    0.5451 H         1 <0>         0.0666
     49 H26        -0.2889    3.5948    0.5368 H         1 <0>         0.0617
     50 H27        -6.5926   -1.2302    0.2583 H         1 <0>         0.0653
     51 H28        -7.1520    0.3425    0.8763 H         1 <0>         0.0592
     52 H29        -7.0941    0.0451   -0.8776 H         1 <0>         0.0600
     53 H30        -3.1891    3.2375    3.7543 H         1 <0>         0.3896
@<TRIPOS>BOND
     1    1    2 1
     2    1   26 1
     3    1   27 1
     4    1   28 1
     5    2    3 1
     6    2   29 1
     7    2   30 1
     8    3    4 1
     9    3   31 1
    10    3   32 1
    11    4    5 1
    12    4   33 1
    13    4   34 1
    14    5    6 1
    15    5   35 1
    16    5   36 1
    17    6   11 ar
    18    6    7 ar
    19    7    8 ar
    20    7   37 1
    21    8    9 ar
    22    8   25 1
    23    9   10 ar
    24    9   13 1
    25   10   11 ar
    26   10   12 1
    27   11   38 1
    28   12   39 1
    29   13   14 1
    30   13   19 1
    31   13   15 1
    32   15   16 2
    33   15   40 1
    34   16   17 1
    35   16   24 1
    36   17   18 1
    37   17   41 1
    38   17   42 1
    39   18   19 1
    40   18   43 1
    41   18   44 1
    42   19   20 1
    43   19   21 1
    44   21   22 2
    45   21   23 1
    46   22   45 1
    47   22   46 1
    48   23   47 1
    49   23   48 1
    50   23   49 1
    51   24   50 1
    52   24   51 1
    53   24   52 1
    54   25   53 1
@<TRIPOS>MOLECULE
ZINC04097407
   53    54     0     0     0
SMALL
USER_CHARGES
2-(6-isopropenyl-3-methyl-1-cyclohex-2-enyl)-5-pentyl-benzene-1,3-diol
@<TRIPOS>ATOM
      1 C1         -3.6844    9.5192    0.9868 C.3       1 <0>        -0.1542
      2 C2         -2.5885    8.4691    0.7938 C.3       1 <0>        -0.1259
      3 C3         -2.8876    7.2525    1.6721 C.3       1 <0>        -0.1209
      4 C4         -1.7918    6.2024    1.4790 C.3       1 <0>        -0.1138
      5 C5         -2.0908    4.9858    2.3573 C.3       1 <0>        -0.0813
      6 C6         -1.0115    3.9515    2.1672 C.ar      1 <0>        -0.0424
      7 C7         -1.1425    2.9907    1.1828 C.ar      1 <0>        -0.1531
      8 C8         -0.1526    2.0337    1.0095 C.ar      1 <0>         0.1562
      9 C9          0.9738    2.0490    1.8175 C.ar      1 <0>        -0.1561
     10 C10         1.1056    3.0175    2.8007 C.ar      1 <0>         0.1411
     11 C11         0.1103    3.9689    2.9738 C.ar      1 <0>        -0.1673
     12 O1          2.2089    3.0354    3.5940 O.3       1 <0>        -0.4827
     13 C12         2.0529    1.0144    1.6277 C.3       1 <0>         0.0012
     14 H1          2.1521    0.7862    0.5665 H         1 <0>         0.0846
     15 C13         3.3548    1.5529    2.1445 C.2       1 <0>        -0.1577
     16 C14         3.8827    1.2119    3.2761 C.2       1 <0>        -0.0892
     17 C15         3.2714    0.2230    4.2251 C.3       1 <0>        -0.0773
     18 C16         1.7932    0.0142    3.8887 C.3       1 <0>        -0.1078
     19 C17         1.6739   -0.2590    2.3870 C.3       1 <0>        -0.0447
     20 H2          2.3493   -1.0674    2.1068 H         1 <0>         0.0826
     21 C18         0.2543   -0.6420    2.0571 C.2       1 <0>        -0.1523
     22 C19        -0.7393    0.1002    2.4792 C.2       1 <0>        -0.1875
     23 C20        -0.0224   -1.8787    1.2416 C.3       1 <0>        -0.1278
     24 C21         5.1930    1.8469    3.6646 C.3       1 <0>        -0.1251
     25 O2         -0.2848    1.0856    0.0449 O.3       1 <0>        -0.5038
     26 H3         -3.4713   10.3859    0.3611 H         1 <0>         0.0535
     27 H4         -4.6479    9.0951    0.7042 H         1 <0>         0.0536
     28 H5         -3.7146    9.8248    2.0327 H         1 <0>         0.0535
     29 H6         -1.6250    8.8932    1.0764 H         1 <0>         0.0605
     30 H7         -2.5583    8.1635   -0.2521 H         1 <0>         0.0609
     31 H8         -3.8511    6.8284    1.3894 H         1 <0>         0.0625
     32 H9         -2.9178    7.5581    2.7179 H         1 <0>         0.0622
     33 H10        -0.8282    6.6265    1.7617 H         1 <0>         0.0632
     34 H11        -1.7615    5.8968    0.4332 H         1 <0>         0.0642
     35 H12        -3.0543    4.5617    2.0747 H         1 <0>         0.0746
     36 H13        -2.1211    5.2913    3.4032 H         1 <0>         0.0744
     37 H14        -2.0179    2.9821    0.5504 H         1 <0>         0.1290
     38 H15         0.2127    4.7237    3.7394 H         1 <0>         0.1274
     39 H16         2.9347    3.5714    3.2463 H         1 <0>         0.3843
     40 H17         3.8844    2.2694    1.5341 H         1 <0>         0.1014
     41 H18         3.7980   -0.7279    4.1448 H         1 <0>         0.0678
     42 H19         3.3582    0.5992    5.2444 H         1 <0>         0.0723
     43 H20         1.4068   -0.8374    4.4486 H         1 <0>         0.0621
     44 H21         1.2290    0.9111    4.1444 H         1 <0>         0.0763
     45 H22        -1.7568   -0.1743    2.2427 H         1 <0>         0.1025
     46 H23        -0.5410    0.9865    3.0636 H         1 <0>         0.1105
     47 H24         0.9207   -2.3489    0.9633 H         1 <0>         0.0686
     48 H25        -0.6166   -2.5771    1.8309 H         1 <0>         0.0734
     49 H26        -0.5716   -1.6046    0.3408 H         1 <0>         0.0675
     50 H27         5.5087    2.5365    2.8817 H         1 <0>         0.0584
     51 H28         5.0693    2.3918    4.6005 H         1 <0>         0.0670
     52 H29         5.9486    1.0719    3.7925 H         1 <0>         0.0633
     53 H30        -0.2056    0.1787    0.3713 H         1 <0>         0.3903
@<TRIPOS>BOND
     1    1    2 1
     2    1   26 1
     3    1   27 1
     4    1   28 1
     5    2    3 1
     6    2   29 1
     7    2   30 1
     8    3    4 1
     9    3   31 1
    10    3   32 1
    11    4    5 1
    12    4   33 1
    13    4   34 1
    14    5    6 1
    15    5   35 1
    16    5   36 1
    17    6   11 ar
    18    6    7 ar
    19    7    8 ar
    20    7   37 1
    21    8    9 ar
    22    8   25 1
    23    9   10 ar
    24    9   13 1
    25   10   11 ar
    26   10   12 1
    27   11   38 1
    28   12   39 1
    29   13   14 1
    30   13   19 1
    31   13   15 1
    32   15   16 2
    33   15   40 1
    34   16   17 1
    35   16   24 1
    36   17   18 1
    37   17   41 1
    38   17   42 1
    39   18   19 1
    40   18   43 1
    41   18   44 1
    42   19   20 1
    43   19   21 1
    44   21   22 2
    45   21   23 1
    46   22   45 1
    47   22   46 1
    48   23   47 1
    49   23   48 1
    50   23   49 1
    51   24   50 1
    52   24   51 1
    53   24   52 1
    54   25   53 1
@<TRIPOS>MOLECULE
ZINC13650623
   68    70     0     0     0
SMALL
USER_CHARGES
(6aR,9R,10aR)-3-(1,1-dimethylheptyl)-9-(hydroxymethyl)-6,6-dimethyl-6a,7,8,9,10,10a-hexahydrobenzo[c]isochromen-1-ol
@<TRIPOS>ATOM
      1 C1         -5.7125   -9.5075   -1.3787 C.3       1 <0>        -0.1543
      2 C2         -4.4057   -8.7758   -1.0659 C.3       1 <0>        -0.1260
      3 C3         -4.6419   -7.2651   -1.1187 C.3       1 <0>        -0.1206
      4 C4         -3.3351   -6.5334   -0.8060 C.3       1 <0>        -0.1207
      5 C5         -3.5712   -5.0226   -0.8588 C.3       1 <0>        -0.1239
      6 C6         -2.2644   -4.2909   -0.5460 C.3       1 <0>        -0.1100
      7 C7         -2.5006   -2.7802   -0.5988 C.3       1 <0>        -0.0224
      8 C8         -3.5614   -2.3934    0.4337 C.3       1 <0>        -0.1418
      9 C9         -2.9828   -2.3879   -1.9969 C.3       1 <0>        -0.1412
     10 C10        -1.2135   -2.0595   -0.2908 C.ar      1 <0>        -0.0197
     11 C11        -0.0664   -2.7811   -0.0198 C.ar      1 <0>        -0.1801
     12 C12         1.1176   -2.1157    0.2593 C.ar      1 <0>         0.1452
     13 C13         1.1537   -0.7281    0.2669 C.ar      1 <0>        -0.1856
     14 C14         0.0021   -0.0041    0.0020 C.ar      1 <0>         0.1586
     15 C15        -1.1818   -0.6803   -0.2801 C.ar      1 <0>        -0.1567
     16 O1         -0.0163    1.3540    0.0095 O.3       1 <0>        -0.3081
     17 C16         1.2268    2.0612    0.0014 C.3       1 <0>         0.1208
     18 C17         2.1511    1.4035    1.0250 C.3       1 <0>        -0.1105
     19 H1          1.6486    1.3672    1.9916 H         1 <0>         0.0811
     20 C18         2.4483   -0.0224    0.5519 C.3       1 <0>        -0.0317
     21 H2          3.0377    0.0228   -0.3639 H         1 <0>         0.0800
     22 C19         3.2666   -0.7384    1.6223 C.3       1 <0>        -0.1159
     23 C20         4.5914    0.0098    1.8080 C.3       1 <0>        -0.0865
     24 H3          5.1470   -0.0013    0.8703 H         1 <0>         0.0748
     25 C21         4.3269    1.4570    2.2226 C.3       1 <0>        -0.1107
     26 C22         3.4681    2.1615    1.1662 C.3       1 <0>        -0.1105
     27 C23         5.4151   -0.6859    2.8936 C.3       1 <0>         0.0799
     28 O2          6.7037   -0.0742    2.9792 O.3       1 <0>        -0.5744
     29 C24         1.8574    1.9827   -1.3904 C.3       1 <0>        -0.1753
     30 C25         0.9918    3.5244    0.3819 C.3       1 <0>        -0.1413
     31 O3          2.2461   -2.8243    0.5264 O.3       1 <0>        -0.4879
     32 H4         -6.4682   -9.2320   -0.6431 H         1 <0>         0.0533
     33 H5         -6.0560   -9.2280   -2.3747 H         1 <0>         0.0532
     34 H6         -5.5443  -10.5838   -1.3411 H         1 <0>         0.0532
     35 H7         -3.6500   -9.0513   -1.8015 H         1 <0>         0.0600
     36 H8         -4.0622   -9.0553   -0.0700 H         1 <0>         0.0601
     37 H9         -5.3976   -6.9895   -0.3832 H         1 <0>         0.0605
     38 H10        -4.9854   -6.9856   -2.1147 H         1 <0>         0.0604
     39 H11        -2.5794   -6.8089   -1.5416 H         1 <0>         0.0600
     40 H12        -2.9916   -6.8128    0.1900 H         1 <0>         0.0603
     41 H13        -4.3270   -4.7471   -0.1232 H         1 <0>         0.0656
     42 H14        -3.9147   -4.7431   -1.8548 H         1 <0>         0.0654
     43 H15        -1.5087   -4.5664   -1.2816 H         1 <0>         0.0653
     44 H16        -1.9209   -4.5704    0.4500 H         1 <0>         0.0660
     45 H17        -3.7296   -1.3171    0.3961 H         1 <0>         0.0576
     46 H18        -4.4924   -2.9147    0.2109 H         1 <0>         0.0639
     47 H19        -3.2179   -2.6729    1.4297 H         1 <0>         0.0567
     48 H20        -2.2271   -2.6634   -2.7324 H         1 <0>         0.0562
     49 H21        -3.9138   -2.9092   -2.2197 H         1 <0>         0.0639
     50 H22        -3.1510   -1.3116   -2.0345 H         1 <0>         0.0575
     51 H23        -0.0922   -3.8608   -0.0251 H         1 <0>         0.1340
     52 H24        -2.0813   -0.1214   -0.4923 H         1 <0>         0.1296
     53 H25         2.7146   -0.7438    2.5622 H         1 <0>         0.0607
     54 H26         3.4659   -1.7624    1.3064 H         1 <0>         0.1049
     55 H27         5.2763    1.9825    2.3254 H         1 <0>         0.0712
     56 H28         3.8034    1.4666    3.1787 H         1 <0>         0.0590
     57 H29         3.9928    2.1646    0.2108 H         1 <0>         0.0674
     58 H30         3.2686    3.1869    1.4775 H         1 <0>         0.0710
     59 H31         4.9046   -0.5936    3.8522 H         1 <0>         0.0440
     60 H32         5.5295   -1.7405    2.6429 H         1 <0>         0.0463
     61 H33         7.2812   -0.4656    3.6489 H         1 <0>         0.3793
     62 H34         1.1830    2.4301   -2.1206 H         1 <0>         0.0664
     63 H35         2.8041    2.5230   -1.3913 H         1 <0>         0.0752
     64 H36         2.0343    0.9392   -1.6508 H         1 <0>         0.0635
     65 H37         0.5545    3.5748    1.3790 H         1 <0>         0.0664
     66 H38         1.9417    4.0589    0.3743 H         1 <0>         0.0815
     67 H39         0.3117    3.9820   -0.3366 H         1 <0>         0.0677
     68 H40         2.7757   -3.0300   -0.2560 H         1 <0>         0.3881
@<TRIPOS>BOND
     1    1    2 1
     2    1   32 1
     3    1   33 1
     4    1   34 1
     5    2    3 1
     6    2   35 1
     7    2   36 1
     8    3    4 1
     9    3   37 1
    10    3   38 1
    11    4    5 1
    12    4   39 1
    13    4   40 1
    14    5    6 1
    15    5   41 1
    16    5   42 1
    17    6    7 1
    18    6   43 1
    19    6   44 1
    20    7    8 1
    21    7    9 1
    22    7   10 1
    23    8   45 1
    24    8   46 1
    25    8   47 1
    26    9   48 1
    27    9   49 1
    28    9   50 1
    29   10   15 ar
    30   10   11 ar
    31   11   12 ar
    32   11   51 1
    33   12   13 ar
    34   12   31 1
    35   13   20 1
    36   13   14 ar
    37   14   15 ar
    38   14   16 1
    39   15   52 1
    40   16   17 1
    41   17   18 1
    42   17   29 1
    43   17   30 1
    44   18   19 1
    45   18   26 1
    46   18   20 1
    47   20   21 1
    48   20   22 1
    49   22   23 1
    50   22   53 1
    51   22   54 1
    52   23   24 1
    53   23   25 1
    54   23   27 1
    55   25   26 1
    56   25   55 1
    57   25   56 1
    58   26   57 1
    59   26   58 1
    60   27   28 1
    61   27   59 1
    62   27   60 1
    63   28   61 1
    64   29   62 1
    65   29   63 1
    66   29   64 1
    67   30   65 1
    68   30   66 1
    69   30   67 1
    70   31   68 1
@<TRIPOS>MOLECULE
ZINC01542930
   63    65     0     0     0
SMALL
USER_CHARGES
1,1-dimethylheptyl-hydroxy-dimethyl-BLAHone
@<TRIPOS>ATOM
      1 C1         -9.6284    4.1758   -7.6257 C.3       1 <0>        -0.1543
      2 C2         -8.8749    3.6863   -6.3874 C.3       1 <0>        -0.1261
      3 C3         -7.3684    3.7682   -6.6416 C.3       1 <0>        -0.1206
      4 C4         -6.6148    3.2788   -5.4033 C.3       1 <0>        -0.1210
      5 C5         -5.1083    3.3607   -5.6576 C.3       1 <0>        -0.1236
      6 C6         -4.3547    2.8713   -4.4192 C.3       1 <0>        -0.1109
      7 C7         -2.8482    2.9532   -4.6735 C.3       1 <0>        -0.0230
      8 C8         -2.4587    4.4033   -4.9675 C.3       1 <0>        -0.1412
      9 C9         -2.4848    2.0744   -5.8721 C.3       1 <0>        -0.1420
     10 C10        -2.1060    2.4711   -3.4538 C.ar      1 <0>        -0.0170
     11 C11        -2.8080    2.0469   -2.3415 C.ar      1 <0>        -0.1777
     12 C12        -2.1230    1.6006   -1.2218 C.ar      1 <0>         0.1464
     13 C13        -0.7345    1.5796   -1.2144 C.ar      1 <0>        -0.1885
     14 C14        -0.0226    1.9869   -2.3363 C.ar      1 <0>         0.1595
     15 C15        -0.7137    2.4186   -3.4651 C.ar      1 <0>        -0.1557
     16 O1          1.3353    1.9948   -2.3676 O.3       1 <0>        -0.3044
     17 C16         2.0477    1.2750   -1.3587 C.3       1 <0>         0.1230
     18 C17         1.4251    1.6113   -0.0029 C.3       1 <0>        -0.1177
     19 H1          1.4168    2.6930    0.1311 H         1 <0>         0.0904
     20 C18        -0.0127    1.0858    0.0080 C.3       1 <0>        -0.0260
     21 H2          0.0021   -0.0041    0.0020 H         1 <0>         0.0902
     22 C19        -0.7089    1.5751    1.2795 C.3       1 <0>        -0.1742
     23 C20         0.1184    1.1202    2.4645 C.2       1 <0>         0.3606
     24 O2         -0.3970    0.5338    3.3857 O.2       1 <0>        -0.4502
     25 C21         1.6012    1.4148    2.4721 C.3       1 <0>        -0.1620
     26 C22         2.2086    0.9644    1.1371 C.3       1 <0>        -0.1085
     27 C23         3.5196    1.6923   -1.3687 C.3       1 <0>        -0.1427
     28 C24         1.9347   -0.2283   -1.6200 C.3       1 <0>        -0.1795
     29 O3         -2.8126    1.1826   -0.1279 O.3       1 <0>        -0.4916
     30 H3         -9.3510    5.2088   -7.8352 H         1 <0>         0.0532
     31 H4         -9.3695    3.5497   -8.4796 H         1 <0>         0.0533
     32 H5        -10.7017    4.1174   -7.4445 H         1 <0>         0.0532
     33 H6         -9.1524    2.6533   -6.1779 H         1 <0>         0.0602
     34 H7         -9.1338    4.3124   -5.5335 H         1 <0>         0.0600
     35 H8         -7.0909    4.8013   -6.8511 H         1 <0>         0.0604
     36 H9         -7.1095    3.1422   -7.4955 H         1 <0>         0.0605
     37 H10        -6.8923    2.2457   -5.1938 H         1 <0>         0.0605
     38 H11        -6.8737    3.9048   -4.5494 H         1 <0>         0.0602
     39 H12        -4.8308    4.3938   -5.8670 H         1 <0>         0.0656
     40 H13        -4.8494    2.7347   -6.5115 H         1 <0>         0.0657
     41 H14        -4.6322    1.8382   -4.2098 H         1 <0>         0.0664
     42 H15        -4.6136    3.4973   -3.5653 H         1 <0>         0.0657
     43 H16        -1.3855    4.4616   -5.1487 H         1 <0>         0.0578
     44 H17        -2.9956    4.7519   -5.8497 H         1 <0>         0.0644
     45 H18        -2.7176    5.0293   -4.1136 H         1 <0>         0.0565
     46 H19        -2.7623    1.0414   -5.6626 H         1 <0>         0.0570
     47 H20        -3.0217    2.4231   -6.7543 H         1 <0>         0.0644
     48 H21        -1.4115    2.1328   -6.0532 H         1 <0>         0.0580
     49 H22        -3.8878    2.0627   -2.3446 H         1 <0>         0.1360
     50 H23        -0.1665    2.7428   -4.3380 H         1 <0>         0.1324
     51 H24        -0.7744    2.5728    1.2608 H         1 <0>         0.0886
     52 H25        -1.7091    1.1462    1.3411 H         1 <0>         0.1193
     53 H26         2.0356    0.9194    3.2244 H         1 <0>         0.0834
     54 H27         1.7607    2.4852    2.6026 H         1 <0>         0.1003
     55 H28         2.1452   -0.1206    1.0543 H         1 <0>         0.0753
     56 H29         3.2518    1.2763    1.0865 H         1 <0>         0.0872
     57 H30         4.0541    1.1579   -0.5834 H         1 <0>         0.0826
     58 H31         3.9592    1.4509   -2.3365 H         1 <0>         0.0700
     59 H32         3.5942    2.7656   -1.1934 H         1 <0>         0.0685
     60 H33         0.8840   -0.5186   -1.6231 H         1 <0>         0.0653
     61 H34         2.3794   -0.4634   -2.5869 H         1 <0>         0.0694
     62 H35         2.4600   -0.7738   -0.8361 H         1 <0>         0.0759
     63 H36        -3.0015    1.8846    0.5098 H         1 <0>         0.3909
@<TRIPOS>BOND
     1    1    2 1
     2    1   30 1
     3    1   31 1
     4    1   32 1
     5    2    3 1
     6    2   33 1
     7    2   34 1
     8    3    4 1
     9    3   35 1
    10    3   36 1
    11    4    5 1
    12    4   37 1
    13    4   38 1
    14    5    6 1
    15    5   39 1
    16    5   40 1
    17    6    7 1
    18    6   41 1
    19    6   42 1
    20    7    8 1
    21    7    9 1
    22    7   10 1
    23    8   43 1
    24    8   44 1
    25    8   45 1
    26    9   46 1
    27    9   47 1
    28    9   48 1
    29   10   15 ar
    30   10   11 ar
    31   11   12 ar
    32   11   49 1
    33   12   13 ar
    34   12   29 1
    35   13   20 1
    36   13   14 ar
    37   14   15 ar
    38   14   16 1
    39   15   50 1
    40   16   17 1
    41   17   18 1
    42   17   27 1
    43   17   28 1
    44   18   19 1
    45   18   26 1
    46   18   20 1
    47   20   21 1
    48   20   22 1
    49   22   23 1
    50   22   51 1
    51   22   52 1
    52   23   24 2
    53   23   25 1
    54   25   26 1
    55   25   53 1
    56   25   54 1
    57   26   55 1
    58   26   56 1
    59   27   57 1
    60   27   58 1
    61   27   59 1
    62   28   60 1
    63   28   61 1
    64   28   62 1
    65   29   63 1
