@<TRIPOS>MOLECULE
ZINC00002779
   17    17     0     0     0
SMALL
USER_CHARGES
3,4-dihydroxy-5-nitro-benzaldehyde
@<TRIPOS>ATOM
      1 C1          1.2046   -0.6743   -0.0131 C.ar      1 <0>         0.0477
      2 C2          1.2252   -2.0742   -0.0208 C.ar      1 <0>        -0.3106
      3 C3          0.0204   -2.7881   -0.0131 C.ar      1 <0>        -0.0197
      4 C4         -1.1805   -2.1079    0.0020 C.ar      1 <0>        -0.0285
      5 C5         -1.1924   -0.7132    0.0153 C.ar      1 <0>         0.3088
      6 C6          0.0021   -0.0041    0.0020 C.ar      1 <0>        -0.1975
      7 N1         -0.0180    1.4760    0.0102 N.pl3     1 <0>         0.0647
      8 O1          1.0284    2.0993    0.0035 O.2       1 <0>        -0.2521
      9 O2         -1.0810    2.0706    0.0184 O.3       1 <0>        -0.1574
     10 O3         -2.3525   -2.7979    0.0099 O.3       1 <0>        -0.4798
     11 C7          2.5064   -2.7919   -0.0364 C.2       1 <0>         0.3970
     12 O4          2.5222   -4.0047   -0.0430 O.2       1 <0>        -0.4948
     13 H1          2.1317   -0.1204   -0.0193 H         1 <0>         0.1367
     14 H2          0.0310   -3.8681   -0.0194 H         1 <0>         0.1286
     15 H3         -2.6828   -3.0018    0.8956 H         1 <0>         0.3696
     16 H4          3.4346   -2.2397   -0.0419 H         1 <0>         0.0919
     17 O5         -2.3749   -0.0467    0.0362 O.3       1 <0>        -0.6048
@<TRIPOS>BOND
     1    1    6 ar
     2    1    2 ar
     3    1   13 1
     4    2    3 ar
     5    2   11 1
     6    3    4 ar
     7    3   14 1
     8    4    5 ar
     9    4   10 1
    10    5    6 ar
    11    5   17 1
    12    6    7 1
    13    7    8 2
    14    7    9 1
    15   10   15 1
    16   11   12 2
    17   11   16 1
@<TRIPOS>MOLECULE
ZINC35342789
   31    32     0     0     0
SMALL
USER_CHARGES

@<TRIPOS>ATOM
      1 C1         -0.1105    1.5007    0.0188 C.3       1 <0>        -0.1249
      2 C2         -0.0659   -0.0056    0.0083 C.ar      1 <0>        -0.0445
      3 C3         -0.3009   -0.6933   -1.1693 C.ar      1 <0>        -0.1312
      4 C4         -0.2617   -2.0719   -1.1862 C.ar      1 <0>        -0.0495
      5 C5          0.0164   -2.7737   -0.0111 C.ar      1 <0>        -0.1767
      6 C6          0.2531   -2.0732    1.1737 C.ar      1 <0>        -0.0779
      7 C7          0.2154   -0.6944    1.1751 C.ar      1 <0>        -0.1283
      8 C8          0.0597   -4.2509   -0.0214 C.2       1 <0>         0.4470
      9 O1         -0.0102   -4.8539   -1.0749 O.2       1 <0>        -0.4318
     10 C9          0.1875   -4.9937    1.2464 C.ar      1 <0>        -0.1456
     11 C10        -0.4132   -4.5029    2.4098 C.ar      1 <0>        -0.0189
     12 C11        -0.2931   -5.1982    3.5927 C.ar      1 <0>        -0.0744
     13 C12         0.4238   -6.3871    3.6335 C.ar      1 <0>         0.1777
     14 C13         1.0259   -6.8822    2.4771 C.ar      1 <0>         0.0810
     15 C14         0.9049   -6.1935    1.2865 C.ar      1 <0>        -0.0297
     16 O2          1.7279   -8.0462    2.5210 O.3       1 <0>        -0.4691
     17 O3          0.5391   -7.0686    4.8022 O.3       1 <0>        -0.4583
     18 N1         -0.9292   -4.6770    4.8234 N.pl3     1 <0>         0.0355
     19 O4         -1.5533   -3.6420    4.7895 O.2       1 <0>        -0.1581
     20 O5         -0.8247   -5.2861    5.8624 O.3       1 <0>        -0.1275
     21 H1          0.8814    1.8951   -0.2020 H         1 <0>         0.0786
     22 H2         -0.8160    1.8486   -0.7357 H         1 <0>         0.0728
     23 H3         -0.4290    1.8479    1.0017 H         1 <0>         0.0734
     24 H4         -0.5158   -0.1493   -2.0772 H         1 <0>         0.1335
     25 H5         -0.4459   -2.6075   -2.1058 H         1 <0>         0.1374
     26 H6          0.4687   -2.6097    2.0858 H         1 <0>         0.1312
     27 H7          0.4023   -0.1513    2.0897 H         1 <0>         0.1338
     28 H8         -0.9710   -3.5785    2.3810 H         1 <0>         0.1729
     29 H9          1.3669   -6.5781    0.3893 H         1 <0>         0.1634
     30 H10         1.1953   -8.8336    2.3438 H         1 <0>         0.3996
     31 H11        -0.1634   -7.7163    4.9507 H         1 <0>         0.4086
@<TRIPOS>BOND
     1    1    2 1
     2    1   21 1
     3    1   22 1
     4    1   23 1
     5    2    7 ar
     6    2    3 ar
     7    3    4 ar
     8    3   24 1
     9    4    5 ar
    10    4   25 1
    11    5    6 ar
    12    5    8 1
    13    6    7 ar
    14    6   26 1
    15    7   27 1
    16    8    9 2
    17    8   10 1
    18   10   15 ar
    19   10   11 ar
    20   11   12 ar
    21   11   28 1
    22   12   13 ar
    23   12   18 1
    24   13   14 ar
    25   13   17 1
    26   14   15 ar
    27   14   16 1
    28   15   29 1
    29   16   30 1
    30   17   31 1
    31   18   19 2
    32   18   20 1
@<TRIPOS>MOLECULE
ZINC00008750
   30    31     0     0     0
SMALL
USER_CHARGES
1-(3,4-dihydroxy-5-nitro-phenyl)-2-phenyl-ethanone
@<TRIPOS>ATOM
      1 C1         -0.0167    1.3781    0.0096 C.ar      1 <0>        -0.1260
      2 C2          1.1709    2.0855    0.0021 C.ar      1 <0>        -0.1198
      3 C3          2.3773    1.4107   -0.0136 C.ar      1 <0>        -0.1088
      4 C4          2.3960    0.0285   -0.0217 C.ar      1 <0>        -0.0666
      5 C5          1.2084   -0.6789   -0.0136 C.ar      1 <0>        -0.1083
      6 C6          0.0021   -0.0041    0.0020 C.ar      1 <0>        -0.1202
      7 C7          3.7112   -0.7071   -0.0387 C.3       1 <0>        -0.1185
      8 C8          4.1354   -0.9447   -1.4651 C.2       1 <0>         0.4115
      9 O1          3.4383   -0.5550   -2.3781 O.2       1 <0>        -0.4710
     10 C9          5.3928   -1.6481   -1.7498 C.ar      1 <0>        -0.2928
     11 C10         5.7860   -1.8751   -3.0743 C.ar      1 <0>         0.0593
     12 C11         6.9674   -2.5309   -3.3383 C.ar      1 <0>        -0.1977
     13 C12         7.7666   -2.9777   -2.2936 C.ar      1 <0>         0.3089
     14 C13         7.3795   -2.7598   -0.9714 C.ar      1 <0>        -0.0241
     15 C14         6.1991   -2.0989   -0.6974 C.ar      1 <0>        -0.0329
     16 O2          8.1651   -3.1991    0.0481 O.3       1 <0>        -0.4794
     17 N1          7.3840   -2.7659   -4.7391 N.pl3     1 <0>         0.0642
     18 O3          6.6845   -2.3749   -5.6563 O.2       1 <0>        -0.2499
     19 O4          8.4263   -3.3504   -4.9745 O.3       1 <0>        -0.1567
     20 H1         -0.9592    1.9054    0.0170 H         1 <0>         0.1183
     21 H2          1.1563    3.1654    0.0081 H         1 <0>         0.1198
     22 H3          3.3051    1.9634   -0.0195 H         1 <0>         0.1199
     23 H4          1.2231   -1.7587   -0.0199 H         1 <0>         0.1201
     24 H5         -0.9258   -0.5567    0.0079 H         1 <0>         0.1197
     25 H6          4.4053   -0.1597    0.4288 H         1 <0>         0.0949
     26 H7          3.5989   -1.6640    0.4711 H         1 <0>         0.1046
     27 H8          5.1645   -1.5327   -3.8885 H         1 <0>         0.1384
     28 H9          5.8983   -1.9296    0.3260 H         1 <0>         0.1270
     29 H10         7.9608   -4.0969    0.3434 H         1 <0>         0.3700
     30 O5          8.9280   -3.6280   -2.5603 O.3       1 <0>        -0.6039
@<TRIPOS>BOND
     1    1    6 ar
     2    1    2 ar
     3    1   20 1
     4    2    3 ar
     5    2   21 1
     6    3    4 ar
     7    3   22 1
     8    4    5 ar
     9    4    7 1
    10    5    6 ar
    11    5   23 1
    12    6   24 1
    13    7    8 1
    14    7   25 1
    15    7   26 1
    16    8    9 2
    17    8   10 1
    18   10   15 ar
    19   10   11 ar
    20   11   12 ar
    21   11   27 1
    22   12   13 ar
    23   12   17 1
    24   13   14 ar
    25   13   30 1
    26   14   15 ar
    27   14   16 1
    28   15   28 1
    29   16   29 1
    30   17   18 2
    31   17   19 1
@<TRIPOS>MOLECULE
ZINC00002775
   21    21     0     0     0
SMALL
USER_CHARGES

@<TRIPOS>ATOM
      1 C1          0.0131    1.3573   -0.0542 C.ar      1 <0>         0.0478
      2 C2          1.2052    2.0894    0.0378 C.ar      1 <0>        -0.2355
      3 C3          2.4287    1.4152    0.1567 C.ar      1 <0>        -0.0474
      4 C4          2.4521    0.0356    0.1823 C.ar      1 <0>        -0.0088
      5 C5          1.2610   -0.6849    0.0902 C.ar      1 <0>         0.3083
      6 C6          0.0476   -0.0185   -0.0277 C.ar      1 <0>        -0.1959
      7 N1         -1.2118   -0.7903   -0.1244 N.pl3     1 <0>         0.0677
      8 O1         -2.2687   -0.2122   -0.2266 O.2       1 <0>        -0.2438
      9 O2         -1.1835   -1.9987   -0.1013 O.3       1 <0>        -0.1528
     10 O3          1.2878   -2.0423    0.1153 O.3       1 <0>        -0.5955
     11 O4          3.6369   -0.6219    0.2971 O.3       1 <0>        -0.4769
     12 C7          1.1725    3.5537    0.0095 C.2       1 <0>         0.1202
     13 C8          2.2411    4.2565   -0.5010 C.2       1 <0>        -0.0805
     14 C9          3.3190    3.5594   -1.1357 C.1       1 <0>         0.2670
     15 N2          4.1741    3.0064   -1.6392 N.1       1 <0>        -0.4150
     16 C10         2.2744    5.6843   -0.3972 C.1       1 <0>         0.2771
     17 N3          2.3008    6.8170   -0.3148 N.1       1 <0>        -0.4286
     18 H1         -0.9320    1.8726   -0.1414 H         1 <0>         0.1408
     19 H2          3.3502    1.9739    0.2276 H         1 <0>         0.1274
     20 H3          3.9028   -0.7970    1.2102 H         1 <0>         0.3717
     21 H4          0.3104    4.0821    0.3889 H         1 <0>         0.1526
@<TRIPOS>BOND
     1    1    6 ar
     2    1    2 ar
     3    1   18 1
     4    2    3 ar
     5    2   12 1
     6    3    4 ar
     7    3   19 1
     8    4    5 ar
     9    4   11 1
    10    5    6 ar
    11    5   10 1
    12    6    7 1
    13    7    8 2
    14    7    9 1
    15   11   20 1
    16   12   13 2
    17   12   21 1
    18   13   14 1
    19   13   16 1
    20   14   15 3
    21   16   17 3
@<TRIPOS>MOLECULE
ZINC00002775
   22    22     0     0     0
SMALL
USER_CHARGES

@<TRIPOS>ATOM
      1 C1          0.0131    1.3573   -0.0542 C.ar      1 <0>        -0.0119
      2 C2          1.2052    2.0894    0.0378 C.ar      1 <0>        -0.0891
      3 C3          2.4287    1.4152    0.1567 C.ar      1 <0>        -0.0633
      4 C4          2.4521    0.0356    0.1823 C.ar      1 <0>         0.0901
      5 C5          1.2610   -0.6849    0.0902 C.ar      1 <0>         0.1762
      6 C6          0.0476   -0.0185   -0.0277 C.ar      1 <0>        -0.0692
      7 N1         -1.2118   -0.7903   -0.1244 N.pl3     1 <0>         0.0338
      8 O1         -2.2687   -0.2122   -0.2266 O.2       1 <0>        -0.1543
      9 O2         -1.1835   -1.9987   -0.1013 O.3       1 <0>        -0.1281
     10 O3          1.2878   -2.0423    0.1153 O.3       1 <0>        -0.4578
     11 O4          3.6369   -0.6219    0.2971 O.3       1 <0>        -0.4678
     12 C7          1.1725    3.5537    0.0095 C.2       1 <0>         0.0540
     13 C8          2.2411    4.2565   -0.5010 C.2       1 <0>         0.0238
     14 C9          3.3190    3.5594   -1.1357 C.1       1 <0>         0.2381
     15 N2          4.1741    3.0064   -1.6392 N.1       1 <0>        -0.3696
     16 C10         2.2744    5.6843   -0.3972 C.1       1 <0>         0.2490
     17 N3          2.3008    6.8170   -0.3148 N.1       1 <0>        -0.3713
     18 H1         -0.9320    1.8726   -0.1414 H         1 <0>         0.1740
     19 H2          3.3502    1.9739    0.2276 H         1 <0>         0.1576
     20 H3          3.9028   -0.7970    1.2102 H         1 <0>         0.3997
     21 H4          0.3104    4.0821    0.3889 H         1 <0>         0.1770
     22 H5          1.2185   -2.4207    1.0025 H         1 <0>         0.4090
@<TRIPOS>BOND
     1    1    6 ar
     2    1    2 ar
     3    1   18 1
     4    2    3 ar
     5    2   12 1
     6    3    4 ar
     7    3   19 1
     8    4    5 ar
     9    4   11 1
    10    5    6 ar
    11    5   10 1
    12    6    7 1
    13    7    8 2
    14    7    9 1
    15   10   22 1
    16   11   20 1
    17   12   13 2
    18   12   21 1
    19   13   14 1
    20   13   16 1
    21   14   15 3
    22   16   17 3
@<TRIPOS>MOLECULE
ZINC27897048
   18    18     0     0     0
SMALL
USER_CHARGES
3,4-dihydroxy-5-(trifluoromethyl)benzaldehyde
@<TRIPOS>ATOM
      1 C1          1.2046   -0.6743   -0.0131 C.ar      1 <0>         0.0067
      2 C2          1.2252   -2.0742   -0.0203 C.ar      1 <0>        -0.2983
      3 C3          0.0205   -2.7881   -0.0122 C.ar      1 <0>        -0.0563
      4 C4         -1.1805   -2.1079    0.0029 C.ar      1 <0>         0.0094
      5 C5         -1.1924   -0.7132    0.0154 C.ar      1 <0>         0.2811
      6 C6          0.0021   -0.0041    0.0020 C.ar      1 <0>        -0.3414
      7 C7         -0.0184    1.5028    0.0103 C.3       1 <0>         0.5312
      8 F1          1.2941    1.9870    0.0004 F         1 <0>        -0.1998
      9 F2         -0.6950    1.9662   -1.1231 F         1 <0>        -0.1849
     10 F3         -0.6732    1.9539    1.1613 F         1 <0>        -0.1847
     11 O1         -2.3749   -0.0467    0.0355 O.3       1 <0>        -0.6786
     12 O2         -2.3525   -2.7979    0.0113 O.3       1 <0>        -0.5180
     13 C8          2.5064   -2.7919   -0.0359 C.2       1 <0>         0.3902
     14 O3          2.5222   -4.0047   -0.0422 O.2       1 <0>        -0.5026
     15 H1          2.1317   -0.1204   -0.0197 H         1 <0>         0.1191
     16 H2          0.0310   -3.8681   -0.0181 H         1 <0>         0.1173
     17 H3         -3.3097   -2.2560    0.0233 H         1 <0>         0.4240
     18 H4          3.4517   -2.2295   -0.0419 H         1 <0>         0.0858
@<TRIPOS>BOND
     1    1    6 ar
     2    1    2 ar
     3    1   15 1
     4    2    3 ar
     5    2   13 1
     6    3    4 ar
     7    3   16 1
     8    4    5 ar
     9    4   12 1
    10    5    6 ar
    11    5   11 1
    12    6    7 1
    13    7    8 1
    14    7    9 1
    15    7   10 1
    16   12   17 1
    17   13   14 2
    18   13   18 1
@<TRIPOS>MOLECULE
ZINC35645588
   30    30     0     0     0
SMALL
USER_CHARGES

@<TRIPOS>ATOM
      1 C1         -2.5802   -5.1648    0.3776 C.3       1 <0>        -0.2165
      2 C2         -1.9417   -3.9387    0.9777 C.2       1 <0>         0.3902
      3 O1         -1.1888   -4.0479    1.9232 O.2       1 <0>        -0.4300
      4 C3         -2.2297   -2.6165    0.4204 C.2       1 <0>        -0.2597
      5 C4         -1.2252   -1.8952   -0.2096 C.2       1 <0>         0.0273
      6 C5          0.0361   -2.4968   -0.4489 C.ar      1 <0>        -0.0786
      7 C6          0.1195   -3.8686   -0.7369 C.ar      1 <0>        -0.0461
      8 C7          1.3347   -4.4465   -0.9676 C.ar      1 <0>        -0.0599
      9 C8          2.4959   -3.6833   -0.9189 C.ar      1 <0>         0.1694
     10 C9          2.4291   -2.3179   -0.6333 C.ar      1 <0>         0.0884
     11 C10         1.2066   -1.7218   -0.4047 C.ar      1 <0>        -0.0492
     12 O2          3.5677   -1.5758   -0.5864 O.3       1 <0>        -0.4689
     13 O3          3.6987   -4.2675   -1.1493 O.3       1 <0>        -0.4570
     14 N1          1.4166   -5.8931   -1.2707 N.pl3     1 <0>         0.0346
     15 O4          0.4089   -6.5597   -1.3134 O.2       1 <0>        -0.1588
     16 O5          2.4911   -6.4079   -1.4755 O.3       1 <0>        -0.1251
     17 C11        -3.5769   -2.0548    0.5274 C.2       1 <0>         0.4037
     18 O6         -3.8069   -0.9435    0.0977 O.2       1 <0>        -0.4476
     19 C12        -4.6785   -2.8566    1.1714 C.3       1 <0>        -0.2059
     20 H1         -2.1777   -6.0564    0.8584 H         1 <0>         0.0979
     21 H2         -3.6586   -5.1248    0.5308 H         1 <0>         0.1066
     22 H3         -2.3661   -5.2000   -0.6906 H         1 <0>         0.0984
     23 H4         -1.4044   -0.8757   -0.5176 H         1 <0>         0.1628
     24 H5         -0.7786   -4.4672   -0.7755 H         1 <0>         0.1649
     25 H6          1.1501   -0.6653   -0.1880 H         1 <0>         0.1642
     26 H7          3.8176   -1.1848   -1.4347 H         1 <0>         0.3995
     27 H8          3.9678   -4.2607   -2.0781 H         1 <0>         0.4074
     28 H9         -4.2676   -3.7843    1.5697 H         1 <0>         0.0810
     29 H10        -5.1226   -2.2785    1.9817 H         1 <0>         0.1015
     30 H11        -5.4422   -3.0869    0.4285 H         1 <0>         0.1053
@<TRIPOS>BOND
     1    1    2 1
     2    1   20 1
     3    1   21 1
     4    1   22 1
     5    2    3 2
     6    2    4 1
     7    4    5 2
     8    4   17 1
     9    5    6 1
    10    5   23 1
    11    6   11 ar
    12    6    7 ar
    13    7    8 ar
    14    7   24 1
    15    8    9 ar
    16    8   14 1
    17    9   10 ar
    18    9   13 1
    19   10   11 ar
    20   10   12 1
    21   11   25 1
    22   12   26 1
    23   13   27 1
    24   14   15 2
    25   14   16 1
    26   17   18 2
    27   17   19 1
    28   19   28 1
    29   19   29 1
    30   19   30 1
@<TRIPOS>MOLECULE
ZINC19300052
   17    17     0     0     0
SMALL
USER_CHARGES

@<TRIPOS>ATOM
      1 C1         -0.0167    1.3782    0.0096 C.ar      1 <0>         0.0621
      2 C2          1.1693    2.0887    0.0021 C.ar      1 <0>        -0.1603
      3 C3          2.3791    1.4201   -0.0134 C.ar      1 <0>        -0.0323
      4 C4          2.4050    0.0347   -0.0211 C.ar      1 <0>         0.0041
      5 C5          1.2113   -0.6805   -0.0131 C.ar      1 <0>         0.3104
      6 C6          0.0021   -0.0041    0.0020 C.ar      1 <0>        -0.1863
      7 N1         -1.2696   -0.7616    0.0105 N.pl3     1 <0>         0.0670
      8 O1         -2.3247   -0.1714    0.0241 O.2       1 <0>        -0.2309
      9 O2         -1.2532   -1.9704    0.0039 O.3       1 <0>        -0.1398
     10 O3          1.2315   -2.0402   -0.0210 O.3       1 <0>        -0.5827
     11 O4          3.5943   -0.6246   -0.0368 O.3       1 <0>        -0.4711
     12 N2          1.1435    3.5687    0.0103 N.pl3     1 <0>         0.0678
     13 O5          0.0862    4.1548    0.0235 O.2       1 <0>        -0.1960
     14 O6          2.1798    4.1914    0.0037 O.3       1 <0>        -0.1944
     15 H1         -0.9598    1.9042    0.0260 H         1 <0>         0.1567
     16 H2          3.3041    1.9775   -0.0200 H         1 <0>         0.1475
     17 H3          3.9474   -0.8200    0.8419 H         1 <0>         0.3781
@<TRIPOS>BOND
     1    1    6 ar
     2    1    2 ar
     3    1   15 1
     4    2    3 ar
     5    2   12 1
     6    3    4 ar
     7    3   16 1
     8    4    5 ar
     9    4   11 1
    10    5    6 ar
    11    5   10 1
    12    6    7 1
    13    7    8 2
    14    7    9 1
    15   11   17 1
    16   12   13 2
    17   12   14 1
@<TRIPOS>MOLECULE
ZINC36295151
   31    31     0     0     0
SMALL
USER_CHARGES

@<TRIPOS>ATOM
      1 C1         -0.5786    1.3995    0.0449 C.3       1 <0>         0.0827
      2 N1         -0.2827   -0.0351    0.0197 N.am      1 <0>        -0.6117
      3 C2          0.0113   -0.7445    1.2673 C.3       1 <0>         0.0637
      4 C3         -0.2810   -0.7023   -1.1514 C.2       1 <0>         0.5712
      5 O1         -0.5251   -0.1133   -2.1874 O.2       1 <0>        -0.5191
      6 C4          0.0162   -2.1431   -1.1767 C.2       1 <0>        -0.1110
      7 C5          0.0180   -2.8252   -2.3739 C.2       1 <0>         0.0654
      8 C6          0.1483   -4.2837   -2.3854 C.ar      1 <0>        -0.0898
      9 C7          0.8551   -4.9188   -3.4166 C.ar      1 <0>        -0.0147
     10 C8          0.9759   -6.2898   -3.4239 C.ar      1 <0>        -0.0678
     11 C9          0.3989   -7.0476   -2.4121 C.ar      1 <0>         0.1733
     12 C10        -0.3066   -6.4240   -1.3823 C.ar      1 <0>         0.0896
     13 C11        -0.4284   -5.0497   -1.3621 C.ar      1 <0>        -0.0592
     14 O2         -0.8699   -7.1707   -0.3952 O.3       1 <0>        -0.4691
     15 O3          0.5216   -8.3996   -2.4257 O.3       1 <0>        -0.4578
     16 N2          1.7222   -6.9590   -4.5130 N.pl3     1 <0>         0.0342
     17 O4          2.2246   -6.3014   -5.3944 O.2       1 <0>        -0.1543
     18 O5          1.8294   -8.1632   -4.5211 O.3       1 <0>        -0.1283
     19 C12         0.3036   -2.8364    0.0428 C.1       1 <0>         0.2486
     20 N3          0.5315   -3.3865    1.0103 N.1       1 <0>        -0.4017
     21 H1          0.3475    1.9635   -0.0660 H         1 <0>         0.0621
     22 H2         -1.2542    1.6456   -0.7743 H         1 <0>         0.0835
     23 H3         -1.0493    1.6567    0.9938 H         1 <0>         0.0751
     24 H4         -0.0364   -0.0457    2.1025 H         1 <0>         0.0877
     25 H5         -0.7211   -1.5381    1.4153 H         1 <0>         0.0660
     26 H6          1.0101   -1.1774    1.2124 H         1 <0>         0.0666
     27 H7         -0.0767   -2.2841   -3.3038 H         1 <0>         0.1793
     28 H8          1.3040   -4.3326   -4.2047 H         1 <0>         0.1733
     29 H9         -0.9702   -4.5657   -0.5629 H         1 <0>         0.1539
     30 H10        -0.2887   -7.3242    0.3623 H         1 <0>         0.3999
     31 H11         1.3015   -8.7285   -1.9582 H         1 <0>         0.4083
@<TRIPOS>BOND
     1    1    2 1
     2    1   21 1
     3    1   22 1
     4    1   23 1
     5    2    3 1
     6    2    4 am
     7    3   24 1
     8    3   25 1
     9    3   26 1
    10    4    5 2
    11    4    6 1
    12    6    7 2
    13    6   19 1
    14    7    8 1
    15    7   27 1
    16    8   13 ar
    17    8    9 ar
    18    9   10 ar
    19    9   28 1
    20   10   11 ar
    21   10   16 1
    22   11   12 ar
    23   11   15 1
    24   12   13 ar
    25   12   14 1
    26   13   29 1
    27   14   30 1
    28   15   31 1
    29   16   17 2
    30   16   18 1
    31   19   20 3
@<TRIPOS>MOLECULE
ZINC36295151
   30    30     0     0     0
SMALL
USER_CHARGES

@<TRIPOS>ATOM
      1 C1         -0.4163    1.5840    0.2975 C.3       1 <0>         0.0887
      2 N1         -0.3246    0.1383    0.0791 N.am      1 <0>        -0.6219
      3 C2          0.0352   -0.7487    1.1882 C.3       1 <0>         0.0689
      4 C3         -0.5712   -0.3757   -1.1421 C.2       1 <0>         0.5829
      5 O1         -0.7748    0.3661   -2.0845 O.2       1 <0>        -0.5391
      6 C4         -0.5942   -1.8341   -1.3355 C.2       1 <0>        -0.2033
      7 C5         -0.6717   -2.3593   -2.6070 C.2       1 <0>         0.1320
      8 C6         -0.8656   -3.7987   -2.7940 C.ar      1 <0>        -0.2386
      9 C7         -0.3086   -4.4449   -3.9069 C.ar      1 <0>         0.0452
     10 C8         -0.4924   -5.7979   -4.0792 C.ar      1 <0>        -0.1961
     11 C9         -1.2292   -6.5266   -3.1534 C.ar      1 <0>         0.3082
     12 C10        -1.7874   -5.8917   -2.0433 C.ar      1 <0>        -0.0116
     13 C11        -1.6039   -4.5368   -1.8577 C.ar      1 <0>        -0.0423
     14 O2         -2.5083   -6.6097   -1.1409 O.3       1 <0>        -0.4789
     15 O3         -1.4069   -7.8609   -3.3298 O.3       1 <0>        -0.5983
     16 N2          0.0960   -6.4788   -5.2544 N.pl3     1 <0>         0.0683
     17 O4          0.7370   -5.8465   -6.0612 O.2       1 <0>        -0.2446
     18 O5         -0.0643   -7.6673   -5.4075 O.3       1 <0>        -0.1534
     19 C12        -0.5360   -2.7076   -0.2023 C.1       1 <0>         0.2755
     20 N3         -0.4898   -3.4006    0.6967 N.1       1 <0>        -0.4431
     21 H1          0.5545    2.0423    0.1090 H         1 <0>         0.0550
     22 H2         -1.1561    2.0078   -0.3816 H         1 <0>         0.0775
     23 H3         -0.7157    1.7776    1.3275 H         1 <0>         0.0676
     24 H4         -0.8710   -1.1573    1.6353 H         1 <0>         0.0585
     25 H5          0.6557   -1.5635    0.8152 H         1 <0>         0.0785
     26 H6          0.5887   -0.1851    1.9393 H         1 <0>         0.0742
     27 H7         -0.5896   -1.7094   -3.4656 H         1 <0>         0.1543
     28 H8          0.2639   -3.8811   -4.6286 H         1 <0>         0.1398
     29 H9         -2.0315   -4.0453   -0.9963 H         1 <0>         0.1235
     30 H10        -1.9804   -6.9767   -0.4186 H         1 <0>         0.3724
@<TRIPOS>BOND
     1    1    2 1
     2    1   21 1
     3    1   22 1
     4    1   23 1
     5    2    3 1
     6    2    4 am
     7    3   24 1
     8    3   25 1
     9    3   26 1
    10    4    5 2
    11    4    6 1
    12    6    7 2
    13    6   19 1
    14    7    8 1
    15    7   27 1
    16    8   13 ar
    17    8    9 ar
    18    9   10 ar
    19    9   28 1
    20   10   11 ar
    21   10   16 1
    22   11   12 ar
    23   11   15 1
    24   12   13 ar
    25   12   14 1
    26   13   29 1
    27   14   30 1
    28   16   17 2
    29   16   18 1
    30   19   20 3
@<TRIPOS>MOLECULE
ZINC27985035
   16    16     0     0     0
SMALL
USER_CHARGES
3,4-dihydroxy-5-nitro-benzonitrile
@<TRIPOS>ATOM
      1 C1          1.2057   -0.6752   -0.0131 C.ar      1 <0>         0.0171
      2 C2          1.2265   -2.0724   -0.0208 C.ar      1 <0>        -0.1288
      3 C3          0.0249   -2.7858   -0.0131 C.ar      1 <0>        -0.0699
      4 C4         -1.1781   -2.1064    0.0020 C.ar      1 <0>         0.0462
      5 C5         -1.1913   -0.7128    0.0153 C.ar      1 <0>         0.2796
      6 C6          0.0021   -0.0041    0.0020 C.ar      1 <0>        -0.1856
      7 N1         -0.0180    1.4760    0.0102 N.pl3     1 <0>         0.0666
      8 O1          1.0284    2.0993    0.0035 O.2       1 <0>        -0.2528
      9 O2         -1.0810    2.0706    0.0184 O.3       1 <0>        -0.1573
     10 O3         -2.3749   -0.0464    0.0363 O.3       1 <0>        -0.6244
     11 O4         -2.3494   -2.7976    0.0099 O.3       1 <0>        -0.5089
     12 C7          2.4761   -2.7715   -0.0369 C.1       1 <0>         0.2883
     13 N2          3.4675   -3.3261   -0.0498 N.1       1 <0>        -0.4651
     14 H1          2.1329   -0.1213   -0.0193 H         1 <0>         0.1345
     15 H2          0.0365   -3.8657   -0.0194 H         1 <0>         0.1268
     16 H3         -3.3071   -2.2567    0.0219 H         1 <0>         0.4338
@<TRIPOS>BOND
     1    1    6 ar
     2    1    2 ar
     3    1   14 1
     4    2    3 ar
     5    2   12 1
     6    3    4 ar
     7    3   15 1
     8    4    5 ar
     9    4   11 1
    10    5    6 ar
    11    5   10 1
    12    6    7 1
    13    7    8 2
    14    7    9 1
    15   11   16 1
    16   12   13 3
@<TRIPOS>MOLECULE
ZINC27977563
   17    17     0     0     0
SMALL
USER_CHARGES
3,4-dihydroxy-5-nitro-benzoic acid
@<TRIPOS>ATOM
      1 C1          2.4740    3.7175    0.0042 C.ar      1 <0>        -0.0150
      2 C2          1.2383    3.0645    0.0067 C.ar      1 <0>        -0.2006
      3 C3          0.0568    3.8114    0.0220 C.ar      1 <0>        -0.0428
      4 C4          0.1159    5.1912    0.0293 C.ar      1 <0>        -0.0048
      5 C5          1.3519    5.8361    0.0215 C.ar      1 <0>         0.2671
      6 C6          2.5255    5.0942    0.0058 C.ar      1 <0>        -0.1933
      7 N1          3.8351    5.7840   -0.0030 N.pl3     1 <0>         0.0774
      8 O1          4.8655    5.1346   -0.0167 O.2       1 <0>        -0.2730
      9 O2          3.8824    7.0011    0.0035 O.3       1 <0>        -0.1857
     10 O3          1.4083    7.1927    0.0287 O.3       1 <0>        -0.6707
     11 O4         -1.0317    5.9210    0.0446 O.3       1 <0>        -0.5150
     12 C7          1.1811    1.5909   -0.0007 C.2       1 <0>         0.5106
     13 O5          2.2090    0.9430   -0.0140 O.co2     1 <0>        -0.6479
     14 O6         -0.0110    0.9628    0.0073 O.co2     1 <0>        -0.7751
     15 H1          3.3884    3.1428   -0.0031 H         1 <0>         0.1289
     16 H2         -0.9001    3.3106    0.0277 H         1 <0>         0.1259
     17 H3         -0.9846    7.0200    0.0504 H         1 <0>         0.4139
@<TRIPOS>BOND
     1    1    6 ar
     2    1    2 ar
     3    1   15 1
     4    2    3 ar
     5    2   12 1
     6    3    4 ar
     7    3   16 1
     8    4    5 ar
     9    4   11 1
    10    5    6 ar
    11    5   10 1
    12    6    7 1
    13    7    8 2
    14    7    9 1
    15   11   17 1
    16   12   13 2
    17   12   14 1
@<TRIPOS>MOLECULE
ZINC27977563
   18    18     0     0     0
SMALL
USER_CHARGES
3,4-dihydroxy-5-nitro-benzoic acid
@<TRIPOS>ATOM
      1 C1          2.4740    3.7175    0.0042 C.ar      1 <0>        -0.0265
      2 C2          1.2383    3.0645    0.0067 C.ar      1 <0>        -0.1116
      3 C3          0.0568    3.8114    0.0220 C.ar      1 <0>        -0.0260
      4 C4          0.1159    5.1912    0.0293 C.ar      1 <0>         0.0975
      5 C5          1.3519    5.8361    0.0215 C.ar      1 <0>         0.1478
      6 C6          2.5255    5.0942    0.0058 C.ar      1 <0>        -0.1222
      7 N1          3.8351    5.7840   -0.0030 N.pl3     1 <0>         0.0569
      8 O1          4.8655    5.1346   -0.0167 O.2       1 <0>        -0.1204
      9 O2          3.8824    7.0011    0.0035 O.3       1 <0>        -0.2213
     10 O3          1.4083    7.1927    0.0287 O.3       1 <0>        -0.5240
     11 O4         -1.0317    5.9210    0.0446 O.3       1 <0>        -0.4957
     12 C7          1.1811    1.5909   -0.0007 C.2       1 <0>         0.4967
     13 O5          2.2090    0.9430   -0.0140 O.co2     1 <0>        -0.6179
     14 O6         -0.0110    0.9628    0.0073 O.co2     1 <0>        -0.7406
     15 H1          3.3884    3.1428   -0.0031 H         1 <0>         0.1620
     16 H2         -0.9001    3.3106    0.0277 H         1 <0>         0.1629
     17 H3         -0.9846    7.0200    0.0504 H         1 <0>         0.4354
     18 H4          2.3829    7.7027    0.0226 H         1 <0>         0.4470
@<TRIPOS>BOND
     1    1    6 ar
     2    1    2 ar
     3    1   15 1
     4    2    3 ar
     5    2   12 1
     6    3    4 ar
     7    3   16 1
     8    4    5 ar
     9    4   11 1
    10    5    6 ar
    11    5   10 1
    12    6    7 1
    13    7    8 2
    14    7    9 1
    15   10   18 1
    16   11   17 1
    17   12   13 2
    18   12   14 1
@<TRIPOS>MOLECULE
ZINC01641376
   25    25     0     0     0
SMALL
USER_CHARGES

@<TRIPOS>ATOM
      1 C1         -0.0187    1.5258    0.0104 C.3       1 <0>        -0.1428
      2 C2          0.0021   -0.0041    0.0020 C.3       1 <0>        -0.1392
      3 C3          0.7421   -0.5109    1.2415 C.3       1 <0>        -0.1426
      4 C4         -1.4117   -0.5257    0.0127 C.2       1 <0>         0.4011
      5 O1         -2.3059    0.1552    0.4689 O.2       1 <0>        -0.4452
      6 C5         -1.7068   -1.8584   -0.5292 C.ar      1 <0>        -0.1645
      7 C6         -0.6753   -2.6484   -1.0509 C.ar      1 <0>        -0.0638
      8 C7         -0.9547   -3.8976   -1.5578 C.ar      1 <0>        -0.1435
      9 C8         -2.2585   -4.3772   -1.5538 C.ar      1 <0>         0.1151
     10 C9         -3.2917   -3.5964   -1.0358 C.ar      1 <0>         0.0690
     11 C10        -3.0199   -2.3451   -0.5202 C.ar      1 <0>        -0.0723
     12 O2         -4.5666   -4.0699   -1.0344 O.3       1 <0>        -0.4839
     13 O3         -2.5278   -5.6094   -2.0559 O.3       1 <0>        -0.4858
     14 H1          1.0039    1.9031    0.0027 H         1 <0>         0.0656
     15 H2         -0.5459    1.8868   -0.8726 H         1 <0>         0.0582
     16 H3         -0.5289    1.8773    0.9072 H         1 <0>         0.0660
     17 H4          0.5123   -0.3556   -0.8948 H         1 <0>         0.0986
     18 H5          0.7568   -1.6008    1.2356 H         1 <0>         0.0621
     19 H6          1.7647   -0.1336    1.2338 H         1 <0>         0.0720
     20 H7          0.2319   -0.1594    2.1383 H         1 <0>         0.0623
     21 H8          0.3391   -2.2778   -1.0560 H         1 <0>         0.1420
     22 H9         -0.1582   -4.5060   -1.9601 H         1 <0>         0.1424
     23 H10        -3.8184   -1.7413   -0.1152 H         1 <0>         0.1450
     24 H11        -4.8028   -4.5612   -0.2356 H         1 <0>         0.3901
     25 H12        -2.4730   -6.3207   -1.4031 H         1 <0>         0.3942
@<TRIPOS>BOND
     1    1    2 1
     2    1   14 1
     3    1   15 1
     4    1   16 1
     5    2    3 1
     6    2    4 1
     7    2   17 1
     8    3   18 1
     9    3   19 1
    10    3   20 1
    11    4    5 2
    12    4    6 1
    13    6   11 ar
    14    6    7 ar
    15    7    8 ar
    16    7   21 1
    17    8    9 ar
    18    8   22 1
    19    9   10 ar
    20    9   13 1
    21   10   11 ar
    22   10   12 1
    23   11   23 1
    24   12   24 1
    25   13   25 1
@<TRIPOS>MOLECULE
ZINC35342787
   37    37     0     0     0
SMALL
USER_CHARGES

@<TRIPOS>ATOM
      1 C1          0.4732    1.0649   -0.3870 C.3       1 <0>        -0.1693
      2 C2          0.3053   -0.4530   -0.4791 C.3       1 <0>         0.1113
      3 N1         -1.0729   -0.8135   -0.1375 N.am      1 <0>        -0.6035
      4 C3         -2.0933   -0.8832   -1.1865 C.3       1 <0>         0.0856
      5 C4         -2.1916   -2.3182   -1.7079 C.3       1 <0>        -0.1771
      6 C5         -1.4022   -1.0811    1.1417 C.2       1 <0>         0.5720
      7 O1         -0.5818   -0.9254    2.0263 O.2       1 <0>        -0.5185
      8 C6         -2.7540   -1.5616    1.4683 C.2       1 <0>        -0.1140
      9 C7         -3.1328   -1.7106    2.7846 C.2       1 <0>         0.0642
     10 C8         -4.4138   -2.3406    3.1110 C.ar      1 <0>        -0.0894
     11 C9         -5.1157   -1.9528    4.2614 C.ar      1 <0>        -0.0140
     12 C10        -6.3196   -2.5468    4.5648 C.ar      1 <0>        -0.0683
     13 C11        -6.8423   -3.5308    3.7344 C.ar      1 <0>         0.1737
     14 C12        -6.1505   -3.9231    2.5879 C.ar      1 <0>         0.0896
     15 C13        -4.9458   -3.3296    2.2712 C.ar      1 <0>        -0.0611
     16 O2         -6.6664   -4.8872    1.7794 O.3       1 <0>        -0.4689
     17 O3         -8.0302   -4.1128    4.0399 O.3       1 <0>        -0.4577
     18 N2         -7.0595   -2.1366    5.7794 N.pl3     1 <0>         0.0342
     19 O4         -6.6061   -1.2810    6.5033 O.2       1 <0>        -0.1543
     20 O5         -8.1172   -2.6572    6.0476 O.3       1 <0>        -0.1284
     21 C14        -3.6758   -1.8744    0.4181 C.1       1 <0>         0.2499
     22 N3         -4.4071   -2.1226   -0.4150 N.1       1 <0>        -0.3992
     23 H1          1.4987    1.3332   -0.6411 H         1 <0>         0.0700
     24 H2         -0.2121    1.5491   -1.0828 H         1 <0>         0.0556
     25 H3          0.2526    1.3940    0.6285 H         1 <0>         0.0628
     26 H4          0.5259   -0.7820   -1.4946 H         1 <0>         0.0807
     27 H5          0.9906   -0.9372    0.2167 H         1 <0>         0.0885
     28 H6         -3.0565   -0.5785   -0.7772 H         1 <0>         0.0845
     29 H7         -1.8192   -0.2173   -2.0048 H         1 <0>         0.0905
     30 H8         -2.9507   -2.3700   -2.4884 H         1 <0>         0.0762
     31 H9         -1.2284   -2.6229   -2.1172 H         1 <0>         0.0634
     32 H10        -2.4657   -2.9841   -0.8896 H         1 <0>         0.0566
     33 H11        -2.4851   -1.3627    3.5757 H         1 <0>         0.1782
     34 H12        -4.7116   -1.1889    4.9091 H         1 <0>         0.1733
     35 H13        -4.4118   -3.6292    1.3815 H         1 <0>         0.1547
     36 H14        -7.2392   -4.5475    1.0783 H         1 <0>         0.3998
     37 H15        -8.7977   -3.6624    3.6615 H         1 <0>         0.4083
@<TRIPOS>BOND
     1    1    2 1
     2    1   23 1
     3    1   24 1
     4    1   25 1
     5    2    3 1
     6    2   26 1
     7    2   27 1
     8    3    4 1
     9    3    6 am
    10    4    5 1
    11    4   28 1
    12    4   29 1
    13    5   30 1
    14    5   31 1
    15    5   32 1
    16    6    7 2
    17    6    8 1
    18    8    9 2
    19    8   21 1
    20    9   10 1
    21    9   33 1
    22   10   15 ar
    23   10   11 ar
    24   11   12 ar
    25   11   34 1
    26   12   13 ar
    27   12   18 1
    28   13   14 ar
    29   13   17 1
    30   14   15 ar
    31   14   16 1
    32   15   35 1
    33   16   36 1
    34   17   37 1
    35   18   19 2
    36   18   20 1
    37   21   22 3
