@<TRIPOS>MOLECULE
ZINC00002779
   17    17     0     0     0
SMALL
USER_CHARGES
3,4-dihydroxy-5-nitro-benzaldehyde
@<TRIPOS>ATOM
      1 C1          1.2046   -0.6743   -0.0131 C.ar      1 <0>         0.0477
      2 C2          1.2252   -2.0742   -0.0208 C.ar      1 <0>        -0.3106
      3 C3          0.0204   -2.7881   -0.0131 C.ar      1 <0>        -0.0197
      4 C4         -1.1805   -2.1079    0.0020 C.ar      1 <0>        -0.0285
      5 C5         -1.1924   -0.7132    0.0153 C.ar      1 <0>         0.3088
      6 C6          0.0021   -0.0041    0.0020 C.ar      1 <0>        -0.1975
      7 N1         -0.0180    1.4760    0.0102 N.pl3     1 <0>         0.0647
      8 O1          1.0284    2.0993    0.0035 O.2       1 <0>        -0.2521
      9 O2         -1.0810    2.0706    0.0184 O.3       1 <0>        -0.1574
     10 O3         -2.3525   -2.7979    0.0099 O.3       1 <0>        -0.4798
     11 C7          2.5064   -2.7919   -0.0364 C.2       1 <0>         0.3970
     12 O4          2.5222   -4.0047   -0.0430 O.2       1 <0>        -0.4948
     13 H1          2.1317   -0.1204   -0.0193 H         1 <0>         0.1367
     14 H2          0.0310   -3.8681   -0.0194 H         1 <0>         0.1286
     15 H3         -2.6828   -3.0018    0.8956 H         1 <0>         0.3696
     16 H4          3.4346   -2.2397   -0.0419 H         1 <0>         0.0919
     17 O5         -2.3749   -0.0467    0.0362 O.3       1 <0>        -0.6048
@<TRIPOS>BOND
     1    1    6 ar
     2    1    2 ar
     3    1   13 1
     4    2    3 ar
     5    2   11 1
     6    3    4 ar
     7    3   14 1
     8    4    5 ar
     9    4   10 1
    10    5    6 ar
    11    5   17 1
    12    6    7 1
    13    7    8 2
    14    7    9 1
    15   10   15 1
    16   11   12 2
    17   11   16 1
@<TRIPOS>MOLECULE
ZINC13730965
   18    18     0     0     0
SMALL
USER_CHARGES

@<TRIPOS>ATOM
      1 C1         -0.0169    1.3955    0.0097 C.ar      1 <0>        -0.0366
      2 C2          1.1665    2.0998    0.0022 C.ar      1 <0>        -0.1075
      3 C3          2.3803    1.4251   -0.0135 C.ar      1 <0>         0.1339
      4 C4          2.4077    0.0301   -0.0212 C.ar      1 <0>         0.1196
      5 C5          1.2268   -0.6837   -0.0133 C.ar      1 <0>        -0.0005
      6 C6          0.0021   -0.0041    0.0020 C.ar      1 <0>        -0.1422
      7 C7         -1.2584   -0.7578    0.0105 C.2       1 <0>         0.3778
      8 O1         -2.3179   -0.1674    0.0242 O.2       1 <0>        -0.4223
      9 N1          1.2542   -2.1636   -0.0220 N.pl3     1 <0>         0.0197
     10 O2          1.2759   -2.7739    1.0214 O.2       1 <0>        -0.1297
     11 O3          1.2547   -2.7620   -1.0725 O.3       1 <0>        -0.1142
     12 O4          3.5987   -0.6263   -0.0370 O.3       1 <0>        -0.4735
     13 O5          3.5435    2.1248   -0.0217 O.3       1 <0>        -0.4718
     14 H1         -0.9592    1.9229    0.0261 H         1 <0>         0.1661
     15 H2          1.1507    3.1796    0.0081 H         1 <0>         0.1624
     16 H3         -1.2419   -1.8376    0.0045 H         1 <0>         0.1105
     17 H4          3.9523   -0.8209    0.8417 H         1 <0>         0.4044
     18 H5          3.8895    2.3231    0.8592 H         1 <0>         0.4037
@<TRIPOS>BOND
     1    1    6 ar
     2    1    2 ar
     3    1   14 1
     4    2    3 ar
     5    2   15 1
     6    3    4 ar
     7    3   13 1
     8    4    5 ar
     9    4   12 1
    10    5    6 ar
    11    5    9 1
    12    6    7 1
    13    7    8 2
    14    7   16 1
    15    9   10 2
    16    9   11 1
    17   12   17 1
    18   13   18 1
@<TRIPOS>MOLECULE
ZINC13730965
   17    17     0     0     0
SMALL
USER_CHARGES

@<TRIPOS>ATOM
      1 C1         -0.0169    1.3955    0.0097 C.ar      1 <0>         0.0054
      2 C2          1.1665    2.0998    0.0022 C.ar      1 <0>        -0.2469
      3 C3          2.3803    1.4251   -0.0135 C.ar      1 <0>         0.2932
      4 C4          2.4077    0.0301   -0.0212 C.ar      1 <0>         0.0000
      5 C5          1.2268   -0.6837   -0.0133 C.ar      1 <0>         0.0475
      6 C6          0.0021   -0.0041    0.0020 C.ar      1 <0>        -0.2975
      7 C7         -1.2584   -0.7578    0.0105 C.2       1 <0>         0.3894
      8 O1         -2.3179   -0.1674    0.0242 O.2       1 <0>        -0.4830
      9 N1          1.2542   -2.1636   -0.0220 N.pl3     1 <0>         0.0323
     10 O2          1.2759   -2.7739    1.0214 O.2       1 <0>        -0.1626
     11 O3          1.2547   -2.7620   -1.0725 O.3       1 <0>        -0.1487
     12 O4          3.5987   -0.6263   -0.0370 O.3       1 <0>        -0.4805
     13 O5          3.5435    2.1248   -0.0217 O.3       1 <0>        -0.6570
     14 H1         -0.9592    1.9229    0.0261 H         1 <0>         0.1311
     15 H2          1.1507    3.1796    0.0081 H         1 <0>         0.1253
     16 H3         -1.2419   -1.8376    0.0045 H         1 <0>         0.0775
     17 H4          3.9523   -0.8209    0.8417 H         1 <0>         0.3747
@<TRIPOS>BOND
     1    1    6 ar
     2    1    2 ar
     3    1   14 1
     4    2    3 ar
     5    2   15 1
     6    3    4 ar
     7    3   13 1
     8    4    5 ar
     9    4   12 1
    10    5    6 ar
    11    5    9 1
    12    6    7 1
    13    7    8 2
    14    7   16 1
    15    9   10 2
    16    9   11 1
    17   12   17 1
@<TRIPOS>MOLECULE
ZINC20232356
   17    17     0     0     0
SMALL
USER_CHARGES
4,5-dihydroxy-2-nitro-benzaldehyde
@<TRIPOS>ATOM
      1 C1         -2.4980    1.0812   -0.0677 C.ar      1 <0>        -0.0667
      2 C2         -1.2951    1.7913    0.0361 C.ar      1 <0>        -0.2386
      3 C3         -1.3176    3.1872    0.1370 C.ar      1 <0>         0.0265
      4 C4         -2.5198    3.8588    0.1228 C.ar      1 <0>        -0.1964
      5 C5         -3.7120    3.1539    0.0198 C.ar      1 <0>         0.2388
      6 C6         -3.6983    1.7620   -0.0753 C.ar      1 <0>         0.0449
      7 O1         -4.8683    1.0759   -0.1760 O.3       1 <0>        -0.5107
      8 O2         -4.8941    3.8212    0.0113 O.3       1 <0>        -0.6873
      9 N1         -0.0494    3.9417    0.2530 N.pl3     1 <0>         0.0425
     10 O3         -0.0716    5.1438    0.4479 O.2       1 <0>        -0.1672
     11 O4          1.0163    3.3604    0.1536 O.3       1 <0>        -0.1984
     12 C7         -0.0142    1.0728    0.0453 C.2       1 <0>         0.3565
     13 O5          0.0008   -0.1398    0.0658 O.2       1 <0>        -0.4900
     14 H1         -2.4861    0.0039   -0.1420 H         1 <0>         0.1338
     15 H2         -2.5358    4.9362    0.1962 H         1 <0>         0.1364
     16 H3         -5.8252    1.6184   -0.1821 H         1 <0>         0.4313
     17 H4          0.9315    1.6344    0.0336 H         1 <0>         0.1445
@<TRIPOS>BOND
     1    1    6 ar
     2    1    2 ar
     3    1   14 1
     4    2    3 ar
     5    2   12 1
     6    3    4 ar
     7    3    9 1
     8    4    5 ar
     9    4   15 1
    10    5    6 ar
    11    5    8 1
    12    6    7 1
    13    7   16 1
    14    9   10 2
    15    9   11 1
    16   12   13 2
    17   12   17 1
@<TRIPOS>MOLECULE
ZINC03814480
   28    28     0     0     0
SMALL
USER_CHARGES
3,4,5-trihydroxy-N-propyl-benzamide
@<TRIPOS>ATOM
      1 C1         -7.4263    1.1159    0.0433 C.3       1 <0>        -0.1509
      2 C2         -6.1106    1.8969    0.0413 C.3       1 <0>        -0.1370
      3 C3         -4.9358    0.9168    0.0304 C.3       1 <0>         0.1162
      4 N1         -3.6760    1.6646    0.0285 N.am      1 <0>        -0.7260
      5 C4         -2.5008    1.0049    0.0194 C.2       1 <0>         0.5604
      6 O1         -2.4861   -0.2108    0.0127 O.2       1 <0>        -0.5286
      7 C5         -1.2314    1.7584    0.0174 C.ar      1 <0>        -0.1122
      8 C6         -0.0126    1.0758    0.0080 C.ar      1 <0>        -0.0781
      9 C7          1.1747    1.7838    0.0004 C.ar      1 <0>         0.0922
     10 C8          1.1565    3.1759    0.0077 C.ar      1 <0>         0.0828
     11 C9         -0.0569    3.8586    0.0230 C.ar      1 <0>         0.0914
     12 C10        -1.2469    3.1553    0.0305 C.ar      1 <0>        -0.1069
     13 O2         -0.0714    5.2185    0.0300 O.3       1 <0>        -0.4808
     14 O3          2.3250    3.8696    0.0002 O.3       1 <0>        -0.4733
     15 O4          2.3615    1.1199   -0.0145 O.3       1 <0>        -0.4798
     16 H1         -8.2633    1.8141    0.0511 H         1 <0>         0.0618
     17 H2         -7.4807    0.4934   -0.8498 H         1 <0>         0.0588
     18 H3         -7.4722    0.4837    0.9301 H         1 <0>         0.0591
     19 H4         -6.0562    2.5193    0.9344 H         1 <0>         0.0700
     20 H5         -6.0647    2.5290   -0.8455 H         1 <0>         0.0695
     21 H6         -4.9901    0.2943   -0.8627 H         1 <0>         0.0716
     22 H7         -4.9817    0.2847    0.9172 H         1 <0>         0.0716
     23 H8         -3.6877    2.6345    0.0338 H         1 <0>         0.4008
     24 H9          0.0021   -0.0041    0.0020 H         1 <0>         0.1523
     25 H10        -2.1879    3.6853    0.0420 H         1 <0>         0.1405
     26 H11        -0.0841    5.6163   -0.8513 H         1 <0>         0.3920
     27 H12         2.6549    4.0749   -0.8853 H         1 <0>         0.3898
     28 H13         2.6963    0.9326   -0.9022 H         1 <0>         0.3929
@<TRIPOS>BOND
     1    1    2 1
     2    1   16 1
     3    1   17 1
     4    1   18 1
     5    2    3 1
     6    2   19 1
     7    2   20 1
     8    3    4 1
     9    3   21 1
    10    3   22 1
    11    4    5 am
    12    4   23 1
    13    5    6 2
    14    5    7 1
    15    7   12 ar
    16    7    8 ar
    17    8    9 ar
    18    8   24 1
    19    9   10 ar
    20    9   15 1
    21   10   11 ar
    22   10   14 1
    23   11   12 ar
    24   11   13 1
    25   12   25 1
    26   13   26 1
    27   14   27 1
    28   15   28 1
