@<TRIPOS>MOLECULE
ZINC00006694
   36    38     0     0     0
SMALL
USER_CHARGES

@<TRIPOS>ATOM
      1 C1         -0.1617    1.4828    0.2281 C.3       1 <0>        -0.0921
      2 C2         -0.0604   -0.0148    0.0940 C.2       1 <0>         0.1007
      3 C3         -1.1028   -0.8718   -0.0533 C.2       1 <0>        -0.2318
      4 C4         -0.5364   -2.2230   -0.1438 C.2       1 <0>         0.1705
      5 N1          0.7646   -2.0994   -0.0488 N.2       1 <0>        -0.2993
      6 O1          1.0742   -0.7272    0.0940 O.3       1 <0>        -0.0739
      7 C5         -1.2932   -3.4879   -0.3106 C.ar      1 <0>        -0.0439
      8 C6         -2.3762   -3.5448   -1.1859 C.ar      1 <0>        -0.0815
      9 C7         -3.0766   -4.7243   -1.3371 C.ar      1 <0>        -0.1186
     10 C8         -2.7058   -5.8485   -0.6216 C.ar      1 <0>        -0.0972
     11 C9         -1.6317   -5.7978    0.2486 C.ar      1 <0>        -0.1194
     12 C10        -0.9202   -4.6253    0.4030 C.ar      1 <0>        -0.0832
     13 C11        -2.5407   -0.5114   -0.1109 C.ar      1 <0>         0.0521
     14 C12        -3.4016   -0.9038    0.9123 C.ar      1 <0>        -0.1202
     15 C13        -4.7384   -0.5658    0.8535 C.ar      1 <0>        -0.0125
     16 C14        -5.2242    0.1611   -0.2184 C.ar      1 <0>        -0.6744
     17 C15        -4.3743    0.5528   -1.2371 C.ar      1 <0>        -0.0138
     18 C16        -3.0344    0.2257   -1.1856 C.ar      1 <0>        -0.1298
     19 S1         -6.9320    0.5891   -0.2869 S.o2      1 <0>         2.7001
     20 O2         -7.2432    0.8001   -1.6573 O.2       1 <0>        -0.9615
     21 O3         -7.6213   -0.3617    0.5132 O.2       1 <0>        -0.9612
     22 N2         -7.1004    2.0535    0.4677 N.pl3     1 <0>        -1.2497
     23 H1          0.8374    1.9071    0.3269 H         1 <0>         0.0912
     24 H2         -0.6456    1.8949   -0.6573 H         1 <0>         0.0993
     25 H3         -0.7502    1.7294    1.1118 H         1 <0>         0.0990
     26 H4         -2.6670   -2.6674   -1.7445 H         1 <0>         0.1260
     27 H5         -3.9161   -4.7695   -2.0151 H         1 <0>         0.1318
     28 H6         -3.2572   -6.7692   -0.7425 H         1 <0>         0.1300
     29 H7         -1.3468   -6.6785    0.8050 H         1 <0>         0.1317
     30 H8         -0.0788   -4.5881    1.0791 H         1 <0>         0.1284
     31 H9         -3.0234   -1.4716    1.7496 H         1 <0>         0.1342
     32 H10        -5.4065   -0.8696    1.6458 H         1 <0>         0.1467
     33 H11        -4.7590    1.1195   -2.0720 H         1 <0>         0.1473
     34 H12        -2.3708    0.5364   -1.9789 H         1 <0>         0.1359
     35 H13        -6.3238    2.4987    0.8413 H         1 <0>         0.4168
     36 H14        -7.9756    2.4661    0.5360 H         1 <0>         0.4220
@<TRIPOS>BOND
     1    1    2 1
     2    1   23 1
     3    1   24 1
     4    1   25 1
     5    2    6 1
     6    2    3 2
     7    3    4 1
     8    3   13 1
     9    4    5 2
    10    4    7 1
    11    5    6 1
    12    7   12 ar
    13    7    8 ar
    14    8    9 ar
    15    8   26 1
    16    9   10 ar
    17    9   27 1
    18   10   11 ar
    19   10   28 1
    20   11   12 ar
    21   11   29 1
    22   12   30 1
    23   13   18 ar
    24   13   14 ar
    25   14   15 ar
    26   14   31 1
    27   15   16 ar
    28   15   32 1
    29   16   17 ar
    30   16   19 1
    31   17   18 ar
    32   17   33 1
    33   18   34 1
    34   19   20 2
    35   19   21 2
    36   19   22 1
    37   22   35 1
    38   22   36 1
