@<TRIPOS>MOLECULE
ZINC03807804
   42    45     0     0     0
SMALL
USER_CHARGES

@<TRIPOS>ATOM
      1 C1         -0.1404    1.0961   -0.4391 C.ar      1 <0>        -0.1020
      2 C2          0.9979    1.8788   -0.4898 C.ar      1 <0>        -0.1176
      3 C3          2.2443    1.2953   -0.3597 C.ar      1 <0>        -0.1015
      4 C4          2.3524   -0.0709   -0.1784 C.ar      1 <0>        -0.0957
      5 C5          1.2140   -0.8534   -0.1268 C.ar      1 <0>        -0.0879
      6 C6         -0.0323   -0.2701   -0.2583 C.ar      1 <0>        -0.1206
      7 C7          3.7112   -0.7071   -0.0376 C.3       1 <0>         0.3033
      8 C8          3.5548   -2.1991    0.1055 C.ar      1 <0>        -0.0980
      9 C9          4.1018   -3.0454   -0.8408 C.ar      1 <0>        -0.0924
     10 C10         3.9584   -4.4140   -0.7096 C.ar      1 <0>        -0.1192
     11 C11         3.2684   -4.9364    0.3683 C.ar      1 <0>        -0.1040
     12 C12         2.7222   -4.0902    1.3152 C.ar      1 <0>        -0.1220
     13 C13         2.8693   -2.7218    1.1862 C.ar      1 <0>        -0.0909
     14 C14         4.5372   -0.4037   -1.2609 C.ar      1 <0>        -0.0899
     15 C15         5.7856    0.1744   -1.1262 C.ar      1 <0>        -0.0993
     16 C16         6.5434    0.4528   -2.2482 C.ar      1 <0>        -0.1105
     17 C17         6.0533    0.1533   -3.5058 C.ar      1 <0>        -0.0985
     18 C18         4.8053   -0.4246   -3.6418 C.ar      1 <0>        -0.1111
     19 C19         4.0487   -0.7087   -2.5187 C.ar      1 <0>        -0.0192
     20 Cl1         2.4837   -1.4408   -2.6883 Cl        1 <0>        -0.0484
     21 N1          4.3811   -0.1702    1.1495 N.pl3     1 <0>        -0.4460
     22 C20         5.5751   -0.5924    1.6690 C.2       1 <0>        -0.0513
     23 C21         5.8188    0.1680    2.7534 C.2       1 <0>        -0.0258
     24 N2          4.8014    1.0309    2.8923 N.2       1 <0>        -0.4890
     25 C22         3.9390    0.8376    1.9322 C.2       1 <0>         0.1875
     26 H1         -1.1143    1.5526   -0.5363 H         1 <0>         0.1257
     27 H2          0.9135    2.9461   -0.6315 H         1 <0>         0.1275
     28 H3          3.1337    1.9067   -0.4001 H         1 <0>         0.1221
     29 H4          1.2985   -1.9209    0.0142 H         1 <0>         0.1329
     30 H5         -0.9216   -0.8816   -0.2183 H         1 <0>         0.1255
     31 H6          4.6409   -2.6372   -1.6830 H         1 <0>         0.1253
     32 H7          4.3851   -5.0750   -1.4493 H         1 <0>         0.1258
     33 H8          3.1557   -6.0056    0.4705 H         1 <0>         0.1257
     34 H9          2.1828   -4.4983    2.1571 H         1 <0>         0.1266
     35 H10         2.4458   -2.0608    1.9279 H         1 <0>         0.1217
     36 H11         6.1689    0.4089   -0.1441 H         1 <0>         0.1411
     37 H12         7.5185    0.9047   -2.1424 H         1 <0>         0.1336
     38 H13         6.6456    0.3714   -4.3821 H         1 <0>         0.1361
     39 H14         4.4225   -0.6582   -4.6243 H         1 <0>         0.1382
     40 H15         6.2011   -1.3835    1.2836 H         1 <0>         0.1702
     41 H16         6.6821    0.0956    3.3983 H         1 <0>         0.1703
     42 H17         3.0222    1.3901    1.7888 H         1 <0>         0.2017
@<TRIPOS>BOND
     1    1    6 ar
     2    1    2 ar
     3    1   26 1
     4    2    3 ar
     5    2   27 1
     6    3    4 ar
     7    3   28 1
     8    4    5 ar
     9    4    7 1
    10    5    6 ar
    11    5   29 1
    12    6   30 1
    13    7    8 1
    14    7   14 1
    15    7   21 1
    16    8   13 ar
    17    8    9 ar
    18    9   10 ar
    19    9   31 1
    20   10   11 ar
    21   10   32 1
    22   11   12 ar
    23   11   33 1
    24   12   13 ar
    25   12   34 1
    26   13   35 1
    27   14   19 ar
    28   14   15 ar
    29   15   16 ar
    30   15   36 1
    31   16   17 ar
    32   16   37 1
    33   17   18 ar
    34   17   38 1
    35   18   19 ar
    36   18   39 1
    37   19   20 1
    38   21   25 1
    39   21   22 1
    40   22   23 2
    41   22   40 1
    42   23   24 1
    43   23   41 1
    44   24   25 2
    45   25   42 1
@<TRIPOS>MOLECULE
ZINC03807804
   43    46     0     0     0
SMALL
USER_CHARGES

@<TRIPOS>ATOM
      1 C1          0.5987    1.7832    1.4981 C.ar      1 <0>        -0.0892
      2 C2          0.3739    1.0091    0.3751 C.ar      1 <0>        -0.1131
      3 C3          1.3811    0.2033   -0.1220 C.ar      1 <0>        -0.1073
      4 C4          2.6134    0.1720    0.5037 C.ar      1 <0>        -0.1169
      5 C5          2.8385    0.9468    1.6262 C.ar      1 <0>        -0.0809
      6 C6          1.8308    1.7515    2.1240 C.ar      1 <0>        -0.1100
      7 C7          3.7112   -0.7071   -0.0376 C.3       1 <0>         0.3108
      8 C8          4.1045   -0.2308   -1.4122 C.ar      1 <0>        -0.1114
      9 C9          4.1390   -1.1216   -2.4687 C.ar      1 <0>        -0.1224
     10 C10         4.4997   -0.6846   -3.7296 C.ar      1 <0>        -0.1050
     11 C11         4.8255    0.6431   -3.9340 C.ar      1 <0>        -0.0966
     12 C12         4.7901    1.5341   -2.8777 C.ar      1 <0>        -0.1040
     13 C13         4.4252    1.0980   -1.6177 C.ar      1 <0>        -0.0870
     14 C14         4.9061   -0.6400    0.8783 C.ar      1 <0>        -0.1243
     15 C15         6.0946   -0.0984    0.4255 C.ar      1 <0>        -0.0806
     16 C16         7.1906   -0.0368    1.2654 C.ar      1 <0>        -0.1064
     17 C17         7.0990   -0.5167    2.5588 C.ar      1 <0>        -0.0779
     18 C18         5.9114   -1.0584    3.0126 C.ar      1 <0>        -0.1060
     19 C19         4.8121   -1.1151    2.1740 C.ar      1 <0>        -0.0235
     20 Cl1         3.3179   -1.7894    2.7455 Cl        1 <0>        -0.0546
     21 N1          3.2345   -2.0901   -0.1178 N.pl3     1 <0>        -0.3928
     22 C20         1.9543   -2.5219    0.1018 C.2       1 <0>         0.0325
     23 C21         1.9573   -3.8567   -0.0767 C.2       1 <0>         0.0033
     24 N2          3.2053   -4.2297   -0.3965 N.pl3     1 <0>        -0.4715
     25 C22         3.9747   -3.1761   -0.4280 C.cat     1 <0>         0.2859
     26 H1         -0.1868    2.4161    1.8838 H         1 <0>         0.1340
     27 H2         -0.5889    1.0335   -0.1137 H         1 <0>         0.1343
     28 H3          1.2053   -0.4020   -0.9989 H         1 <0>         0.1246
     29 H4          3.8010    0.9218    2.1154 H         1 <0>         0.1290
     30 H5          2.0066    2.3566    3.0012 H         1 <0>         0.1338
     31 H6          3.8845   -2.1589   -2.3090 H         1 <0>         0.1110
     32 H7          4.5274   -1.3807   -4.5549 H         1 <0>         0.1325
     33 H8          5.1080    0.9843   -4.9190 H         1 <0>         0.1349
     34 H9          5.0450    2.5713   -3.0374 H         1 <0>         0.1371
     35 H10         4.3939    1.7949   -0.7931 H         1 <0>         0.1317
     36 H11         6.1669    0.2763   -0.5848 H         1 <0>         0.1476
     37 H12         8.1191    0.3861    0.9110 H         1 <0>         0.1431
     38 H13         7.9558   -0.4686    3.2145 H         1 <0>         0.1451
     39 H14         5.8400   -1.4335    4.0228 H         1 <0>         0.1446
     40 H15         1.1050   -1.9099    0.3675 H         1 <0>         0.2211
     41 H16         1.1044   -4.5120    0.0207 H         1 <0>         0.2258
     42 H17         5.0293   -3.1735   -0.6609 H         1 <0>         0.2540
     43 H18         3.4903   -5.1387   -0.5793 H         1 <0>         0.4647
@<TRIPOS>BOND
     1    1    6 ar
     2    1    2 ar
     3    1   26 1
     4    2    3 ar
     5    2   27 1
     6    3    4 ar
     7    3   28 1
     8    4    5 ar
     9    4    7 1
    10    5    6 ar
    11    5   29 1
    12    6   30 1
    13    7    8 1
    14    7   14 1
    15    7   21 1
    16    8   13 ar
    17    8    9 ar
    18    9   10 ar
    19    9   31 1
    20   10   11 ar
    21   10   32 1
    22   11   12 ar
    23   11   33 1
    24   12   13 ar
    25   12   34 1
    26   13   35 1
    27   14   19 ar
    28   14   15 ar
    29   15   16 ar
    30   15   36 1
    31   16   17 ar
    32   16   37 1
    33   17   18 ar
    34   17   38 1
    35   18   19 ar
    36   18   39 1
    37   19   20 1
    38   21   25 1
    39   21   22 1
    40   22   23 2
    41   22   40 1
    42   23   24 1
    43   23   41 1
    44   24   25 2
    45   24   43 1
    46   25   42 1
@<TRIPOS>MOLECULE
ZINC05226729
   45    48     0     0     0
SMALL
USER_CHARGES
N-[(1S)-1-(4-pyridyl)ethyl]adamantane-1-carboxamide
@<TRIPOS>ATOM
      1 C1         -0.8378    7.7899   -1.5687 C.3       1 <0>        -0.1585
      2 C2         -2.1322    7.2589   -0.9495 C.3       1 <0>         0.1814
      3 H1         -2.2169    7.6155    0.0771 H         1 <0>         0.1014
      4 C3         -3.3105    7.7497   -1.7506 C.ar      1 <0>        -0.0474
      5 C4         -3.6679    7.1312   -2.9389 C.ar      1 <0>        -0.1702
      6 C5         -4.7571    7.6065   -3.6444 C.ar      1 <0>         0.1052
      7 N1         -5.4468    8.6407   -3.2043 N.ar      1 <0>        -0.4839
      8 C6         -5.1329    9.2562   -2.0811 C.ar      1 <0>         0.1056
      9 C7         -4.0594    8.8341   -1.3198 C.ar      1 <0>        -0.1618
     10 N2         -2.1123    5.7940   -0.9575 N.am      1 <0>        -0.7258
     11 C8         -1.5100    5.1227    0.0440 C.2       1 <0>         0.5264
     12 O1         -0.9845    5.7313    0.9519 O.2       1 <0>        -0.5329
     13 C9         -1.4896    3.6159    0.0357 C.3       1 <0>        -0.0687
     14 C10        -0.7734    3.1225   -1.2231 C.3       1 <0>        -0.0994
     15 C11        -0.7527    1.5927   -1.2315 C.3       1 <0>        -0.0841
     16 C12        -0.0127    1.0858    0.0080 C.3       1 <0>        -0.1105
     17 C13        -0.7288    1.5792    1.2668 C.3       1 <0>        -0.0871
     18 C14        -0.7496    3.1091    1.2752 C.3       1 <0>        -0.0873
     19 C15        -2.1642    1.0497    1.2777 C.3       1 <0>        -0.1106
     20 C16        -2.9042    1.5565    0.0381 C.3       1 <0>        -0.0842
     21 C17        -2.1881    1.0631   -1.2207 C.3       1 <0>        -0.1100
     22 C18        -2.9250    3.0863    0.0466 C.3       1 <0>        -0.0998
     23 H2         -0.7531    7.4333   -2.5952 H         1 <0>         0.0605
     24 H3         -0.8525    8.8798   -1.5627 H         1 <0>         0.0695
     25 H4          0.0145    7.4349   -0.9892 H         1 <0>         0.0695
     26 H5         -3.1043    6.2866   -3.3069 H         1 <0>         0.1322
     27 H6         -5.0445    7.1277   -4.5689 H         1 <0>         0.1582
     28 H7         -5.7213   10.1001   -1.7524 H         1 <0>         0.1594
     29 H8         -3.8073    9.3423   -0.4008 H         1 <0>         0.1384
     30 H9         -2.5327    5.3073   -1.6837 H         1 <0>         0.3994
     31 H10         0.2491    3.4998   -1.2308 H         1 <0>         0.0686
     32 H11        -1.3006    3.4836   -2.1062 H         1 <0>         0.0645
     33 H12        -0.2425    1.2411   -2.1283 H         1 <0>         0.0749
     34 H13         0.0021   -0.0041    0.0020 H         1 <0>         0.0650
     35 H14         1.0099    1.4631    0.0003 H         1 <0>         0.0635
     36 H15        -0.2017    1.2182    2.1499 H         1 <0>         0.0749
     37 H16        -1.2598    3.4606    2.1720 H         1 <0>         0.0695
     38 H17         0.2730    3.4864    1.2675 H         1 <0>         0.0697
     39 H18        -2.6744    1.4012    2.1745 H         1 <0>         0.0634
     40 H19        -2.1494   -0.0402    1.2717 H         1 <0>         0.0650
     41 H20        -3.9268    1.1792    0.0459 H         1 <0>         0.0747
     42 H21        -2.7153    1.4241   -2.1037 H         1 <0>         0.0629
     43 H22        -2.1733   -0.0268   -1.2266 H         1 <0>         0.0660
     44 H23        -3.4522    3.4474   -0.8365 H         1 <0>         0.0645
     45 H24        -3.4352    3.4378    0.9434 H         1 <0>         0.0680
@<TRIPOS>BOND
     1    1    2 1
     2    1   23 1
     3    1   24 1
     4    1   25 1
     5    2    3 1
     6    2    4 1
     7    2   10 1
     8    4    9 ar
     9    4    5 ar
    10    5    6 ar
    11    5   26 1
    12    6    7 ar
    13    6   27 1
    14    7    8 ar
    15    8    9 ar
    16    8   28 1
    17    9   29 1
    18   10   11 am
    19   10   30 1
    20   11   12 2
    21   11   13 1
    22   13   18 1
    23   13   22 1
    24   13   14 1
    25   14   15 1
    26   14   31 1
    27   14   32 1
    28   15   21 1
    29   15   16 1
    30   15   33 1
    31   16   17 1
    32   16   34 1
    33   16   35 1
    34   17   18 1
    35   17   19 1
    36   17   36 1
    37   18   37 1
    38   18   38 1
    39   19   20 1
    40   19   39 1
    41   19   40 1
    42   20   21 1
    43   20   22 1
    44   20   41 1
    45   21   42 1
    46   21   43 1
    47   22   44 1
    48   22   45 1
@<TRIPOS>MOLECULE
ZINC05226732
   45    48     0     0     0
SMALL
USER_CHARGES
N-[(1R)-1-(4-pyridyl)ethyl]adamantane-1-carboxamide
@<TRIPOS>ATOM
      1 C1         -3.3127    7.7483   -0.1082 C.3       1 <0>        -0.1584
      2 C2         -2.1322    7.2589   -0.9495 C.3       1 <0>         0.1814
      3 H1         -1.2017    7.6325   -0.5220 H         1 <0>         0.1015
      4 C3         -2.2763    7.7671   -2.3609 C.ar      1 <0>        -0.0473
      5 C4         -3.1195    7.1333   -3.2608 C.ar      1 <0>        -0.1703
      6 C5         -3.2293    7.6305   -4.5456 C.ar      1 <0>         0.1053
      7 N1         -2.5367    8.6880   -4.9211 N.ar      1 <0>        -0.4840
      8 C6         -1.7220    9.3130   -4.0937 C.ar      1 <0>         0.1057
      9 C7         -1.5645    8.8760   -2.7921 C.ar      1 <0>        -0.1618
     10 N2         -2.1123    5.7940   -0.9575 N.am      1 <0>        -0.7258
     11 C8         -1.5100    5.1227    0.0440 C.2       1 <0>         0.5264
     12 O1         -0.9845    5.7313    0.9519 O.2       1 <0>        -0.5329
     13 C9         -1.4896    3.6159    0.0357 C.3       1 <0>        -0.0687
     14 C10        -0.7734    3.1225   -1.2231 C.3       1 <0>        -0.0998
     15 C11        -0.7527    1.5927   -1.2315 C.3       1 <0>        -0.0842
     16 C12        -0.0127    1.0858    0.0080 C.3       1 <0>        -0.1106
     17 C13        -0.7288    1.5792    1.2668 C.3       1 <0>        -0.0871
     18 C14        -0.7496    3.1091    1.2752 C.3       1 <0>        -0.0873
     19 C15        -2.1642    1.0497    1.2777 C.3       1 <0>        -0.1106
     20 C16        -2.9042    1.5565    0.0381 C.3       1 <0>        -0.0842
     21 C17        -2.1881    1.0631   -1.2207 C.3       1 <0>        -0.1100
     22 C18        -2.9250    3.0863    0.0466 C.3       1 <0>        -0.0994
     23 H2         -4.2431    7.3747   -0.5356 H         1 <0>         0.0605
     24 H3         -3.2084    7.3807    0.9127 H         1 <0>         0.0695
     25 H4         -3.3275    8.8382   -0.1022 H         1 <0>         0.0695
     26 H5         -3.6859    6.2642   -2.9605 H         1 <0>         0.1322
     27 H6         -3.8865    7.1446   -5.2516 H         1 <0>         0.1582
     28 H7         -1.1712   10.1760   -4.4374 H         1 <0>         0.1594
     29 H8         -0.8958    9.3921   -2.1192 H         1 <0>         0.1384
     30 H9         -2.5327    5.3073   -1.6837 H         1 <0>         0.3994
     31 H10         0.2491    3.4998   -1.2308 H         1 <0>         0.0680
     32 H11        -1.3006    3.4836   -2.1062 H         1 <0>         0.0645
     33 H12        -0.2425    1.2411   -2.1283 H         1 <0>         0.0747
     34 H13         0.0021   -0.0041    0.0020 H         1 <0>         0.0650
     35 H14         1.0099    1.4631    0.0003 H         1 <0>         0.0634
     36 H15        -0.2017    1.2182    2.1499 H         1 <0>         0.0749
     37 H16        -1.2598    3.4606    2.1720 H         1 <0>         0.0697
     38 H17         0.2730    3.4864    1.2675 H         1 <0>         0.0695
     39 H18        -2.6744    1.4012    2.1745 H         1 <0>         0.0635
     40 H19        -2.1494   -0.0402    1.2717 H         1 <0>         0.0650
     41 H20        -3.9268    1.1792    0.0459 H         1 <0>         0.0749
     42 H21        -2.7153    1.4241   -2.1037 H         1 <0>         0.0629
     43 H22        -2.1733   -0.0268   -1.2266 H         1 <0>         0.0660
     44 H23        -3.4522    3.4474   -0.8365 H         1 <0>         0.0645
     45 H24        -3.4352    3.4378    0.9434 H         1 <0>         0.0686
@<TRIPOS>BOND
     1    1    2 1
     2    1   23 1
     3    1   24 1
     4    1   25 1
     5    2    3 1
     6    2    4 1
     7    2   10 1
     8    4    9 ar
     9    4    5 ar
    10    5    6 ar
    11    5   26 1
    12    6    7 ar
    13    6   27 1
    14    7    8 ar
    15    8    9 ar
    16    8   28 1
    17    9   29 1
    18   10   11 am
    19   10   30 1
    20   11   12 2
    21   11   13 1
    22   13   18 1
    23   13   22 1
    24   13   14 1
    25   14   15 1
    26   14   31 1
    27   14   32 1
    28   15   21 1
    29   15   16 1
    30   15   33 1
    31   16   17 1
    32   16   34 1
    33   16   35 1
    34   17   18 1
    35   17   19 1
    36   17   36 1
    37   18   37 1
    38   18   38 1
    39   19   20 1
    40   19   39 1
    41   19   40 1
    42   20   21 1
    43   20   22 1
    44   20   41 1
    45   21   42 1
    46   21   43 1
    47   22   44 1
    48   22   45 1
@<TRIPOS>MOLECULE
ZINC04058072
   42    45     0     0     0
SMALL
USER_CHARGES

@<TRIPOS>ATOM
      1 C1         -0.0167    1.3823    0.0096 C.ar      1 <0>        -0.1554
      2 C2          1.1808    2.0721    0.0019 C.ar      1 <0>         0.1001
      3 N1          2.3308    1.4269   -0.0130 N.ar      1 <0>        -0.4794
      4 C3          2.3867    0.1094   -0.0206 C.ar      1 <0>         0.1001
      5 C4          1.2303   -0.6473   -0.0132 C.ar      1 <0>        -0.1554
      6 C5          0.0021   -0.0041    0.0020 C.ar      1 <0>        -0.0649
      7 C6         -1.2819   -0.7930    0.0105 C.3       1 <0>         0.1587
      8 N2         -1.7116   -1.0413   -1.3678 N.am      1 <0>        -0.7267
      9 C7         -2.8430   -1.7337   -1.6066 C.2       1 <0>         0.5243
     10 O1         -3.5054   -2.1512   -0.6804 O.2       1 <0>        -0.5335
     11 C8         -3.2851   -1.9890   -3.0245 C.3       1 <0>        -0.0682
     12 C9         -3.5117   -0.6538   -3.7364 C.3       1 <0>        -0.0997
     13 C10        -3.9605   -0.9131   -5.1759 C.3       1 <0>        -0.0843
     14 C11        -5.2641   -1.7141   -5.1673 C.3       1 <0>        -0.1106
     15 C12        -5.0375   -3.0493   -4.4554 C.3       1 <0>        -0.0871
     16 C13        -4.5887   -2.7900   -3.0159 C.3       1 <0>        -0.0876
     17 C14        -3.9562   -3.8428   -5.1917 C.3       1 <0>        -0.1106
     18 C15        -2.6527   -3.0418   -5.2003 C.3       1 <0>        -0.0843
     19 C16        -2.8792   -1.7065   -5.9122 C.3       1 <0>        -0.1101
     20 C17        -2.2038   -2.7825   -3.7608 C.3       1 <0>        -0.0997
     21 H1         -0.9553    1.9163    0.0259 H         1 <0>         0.1375
     22 H2          1.1748    3.1521    0.0078 H         1 <0>         0.1591
     23 H3          3.3473   -0.3840   -0.0331 H         1 <0>         0.1591
     24 H4          1.2825   -1.7260   -0.0195 H         1 <0>         0.1375
     25 H5         -1.1205   -1.7443    0.5177 H         1 <0>         0.0816
     26 H6         -2.0522   -0.2277    0.5351 H         1 <0>         0.0816
     27 H7         -1.1819   -0.7073   -2.1086 H         1 <0>         0.4015
     28 H8         -4.2820   -0.0885   -3.2118 H         1 <0>         0.0684
     29 H9         -2.5830   -0.0832   -3.7425 H         1 <0>         0.0648
     30 H10        -4.1220    0.0382   -5.6831 H         1 <0>         0.0748
     31 H11        -6.0344   -1.1488   -4.6427 H         1 <0>         0.0635
     32 H12        -5.5838   -1.8988   -6.1928 H         1 <0>         0.0650
     33 H13        -5.9662   -3.6199   -4.4492 H         1 <0>         0.0750
     34 H14        -4.4272   -3.7413   -2.5087 H         1 <0>         0.0697
     35 H15        -5.3590   -2.2247   -2.4913 H         1 <0>         0.0697
     36 H16        -3.7948   -4.7940   -4.6845 H         1 <0>         0.0635
     37 H17        -4.2760   -4.0275   -6.2172 H         1 <0>         0.0650
     38 H18        -1.8823   -3.6070   -5.7249 H         1 <0>         0.0748
     39 H19        -3.1990   -1.8913   -6.9377 H         1 <0>         0.0660
     40 H20        -1.9506   -1.1359   -5.9183 H         1 <0>         0.0628
     41 H21        -1.2752   -2.2119   -3.7669 H         1 <0>         0.0648
     42 H22        -2.0424   -3.7337   -3.2536 H         1 <0>         0.0684
@<TRIPOS>BOND
     1    1    6 ar
     2    1    2 ar
     3    1   21 1
     4    2    3 ar
     5    2   22 1
     6    3    4 ar
     7    4    5 ar
     8    4   23 1
     9    5    6 ar
    10    5   24 1
    11    6    7 1
    12    7    8 1
    13    7   25 1
    14    7   26 1
    15    8    9 am
    16    8   27 1
    17    9   10 2
    18    9   11 1
    19   11   16 1
    20   11   20 1
    21   11   12 1
    22   12   13 1
    23   12   28 1
    24   12   29 1
    25   13   19 1
    26   13   14 1
    27   13   30 1
    28   14   15 1
    29   14   31 1
    30   14   32 1
    31   15   16 1
    32   15   17 1
    33   15   33 1
    34   16   34 1
    35   16   35 1
    36   17   18 1
    37   17   36 1
    38   17   37 1
    39   18   19 1
    40   18   20 1
    41   18   38 1
    42   19   39 1
    43   19   40 1
    44   20   41 1
    45   20   42 1
@<TRIPOS>MOLECULE
ZINC04715271
   57    61     0     0     0
SMALL
USER_CHARGES

@<TRIPOS>ATOM
      1 C1         -0.0187    1.5258    0.0104 C.3       1 <0>        -0.1412
      2 C2          0.0021   -0.0041    0.0020 C.3       1 <0>        -0.0497
      3 C3         -1.4158   -0.5383    0.0747 C.3       1 <0>        -0.1025
      4 C4         -2.0766    0.0985    1.3072 C.3       1 <0>        -0.1193
      5 C5         -1.2974   -0.2005    2.5849 C.3       1 <0>        -0.0650
      6 H1         -1.3396   -1.2738    2.7698 H         1 <0>         0.0659
      7 C6          0.1760    0.2126    2.4648 C.3       1 <0>        -0.0700
      8 H2          0.2558    1.2920    2.3361 H         1 <0>         0.0841
      9 C7          0.7512   -0.5278    1.2565 C.3       1 <0>        -0.0818
     10 H3          0.6133   -1.6041    1.3599 H         1 <0>         0.0777
     11 C8          2.2065   -0.1932    0.9115 C.3       1 <0>        -0.1153
     12 C9          2.3041   -0.5750   -0.5908 C.3       1 <0>        -0.1174
     13 C10         0.8628   -0.5037   -1.1540 C.3       1 <0>        -0.0032
     14 H4          0.5320   -1.4927   -1.4713 H         1 <0>         0.0851
     15 C11         0.8003    0.4639   -2.3077 C.2       1 <0>         0.0993
     16 C12         1.5964    1.6028   -2.4669 C.2       1 <0>        -0.2662
     17 C13         1.2374    2.2032   -3.6252 C.2       1 <0>         0.0550
     18 N1          0.2492    1.4701   -4.1794 N.pl3     1 <0>        -0.4815
     19 H5         -0.2034    1.6619   -5.0156 H         1 <0>         0.4379
     20 N2         -0.0041    0.3805   -3.3362 N.2       1 <0>        -0.2958
     21 C14         0.9009   -0.2238    3.7428 C.3       1 <0>        -0.0838
     22 C15         0.2069    0.3714    4.9330 C.2       1 <0>        -0.1541
     23 C16        -1.0539    0.6915    4.9320 C.2       1 <0>        -0.1053
     24 C17        -1.9443    0.5134    3.7599 C.3       1 <0>        -0.0151
     25 C18        -3.2133   -0.2280    4.1900 C.3       1 <0>        -0.1037
     26 C19        -3.8438    0.4949    5.3819 C.3       1 <0>        -0.1180
     27 C20        -2.8812    0.4656    6.5703 C.3       1 <0>         0.1081
     28 H6         -2.6211   -0.5673    6.8017 H         1 <0>         0.0590
     29 C21        -1.6478    1.2798    6.2008 C.3       1 <0>        -0.1151
     30 O1         -3.5083    1.0647    7.7060 O.3       1 <0>        -0.5701
     31 C22        -2.3616    1.9110    3.2980 C.3       1 <0>        -0.1507
     32 H7          1.0039    1.9031    0.0027 H         1 <0>         0.0587
     33 H8         -0.5459    1.8868   -0.8726 H         1 <0>         0.0499
     34 H9         -0.5289    1.8773    0.9072 H         1 <0>         0.0623
     35 H10        -1.9639   -0.2608   -0.8257 H         1 <0>         0.0639
     36 H11        -1.3990   -1.6229    0.1810 H         1 <0>         0.0629
     37 H12        -2.1262    1.1782    1.1657 H         1 <0>         0.0739
     38 H13        -3.0892   -0.2919    1.4090 H         1 <0>         0.0602
     39 H14         2.4017    0.8699    1.0528 H         1 <0>         0.0694
     40 H15         2.8924   -0.7950    1.5078 H         1 <0>         0.0664
     41 H16         2.9463    0.1323   -1.1156 H         1 <0>         0.0730
     42 H17         2.6969   -1.5864   -0.6950 H         1 <0>         0.0678
     43 H18         2.3620    1.9433   -1.7854 H         1 <0>         0.1456
     44 H19         1.6649    3.1073   -4.0330 H         1 <0>         0.1739
     45 H20         0.8840   -1.3111    3.8176 H         1 <0>         0.0725
     46 H21         1.9336    0.1236    3.7122 H         1 <0>         0.0710
     47 H22         0.7807    0.5415    5.8320 H         1 <0>         0.1021
     48 H23        -3.9210   -0.2485    3.3612 H         1 <0>         0.0730
     49 H24        -2.9588   -1.2484    4.4766 H         1 <0>         0.0637
     50 H25        -4.0523    1.5296    5.1096 H         1 <0>         0.0738
     51 H26        -4.7743   -0.0018    5.6565 H         1 <0>         0.0684
     52 H27        -0.9271    1.2004    7.0146 H         1 <0>         0.0659
     53 H28        -1.9021    2.3268    6.0359 H         1 <0>         0.0822
     54 H29        -2.9542    1.0807    8.4984 H         1 <0>         0.3777
     55 H30        -3.0710    1.8249    2.4749 H         1 <0>         0.0628
     56 H31        -2.8292    2.4430    4.1265 H         1 <0>         0.0571
     57 H32        -1.4819    2.4608    2.9634 H         1 <0>         0.0547
@<TRIPOS>BOND
     1    1    2 1
     2    1   32 1
     3    1   33 1
     4    1   34 1
     5    2    9 1
     6    2   13 1
     7    2    3 1
     8    3    4 1
     9    3   35 1
    10    3   36 1
    11    4    5 1
    12    4   37 1
    13    4   38 1
    14    5    6 1
    15    5   24 1
    16    5    7 1
    17    7    8 1
    18    7    9 1
    19    7   21 1
    20    9   10 1
    21    9   11 1
    22   11   12 1
    23   11   39 1
    24   11   40 1
    25   12   13 1
    26   12   41 1
    27   12   42 1
    28   13   14 1
    29   13   15 1
    30   15   20 2
    31   15   16 1
    32   16   17 2
    33   16   43 1
    34   17   18 1
    35   17   44 1
    36   18   19 1
    37   18   20 1
    38   21   22 1
    39   21   45 1
    40   21   46 1
    41   22   23 2
    42   22   47 1
    43   23   29 1
    44   23   24 1
    45   24   25 1
    46   24   31 1
    47   25   26 1
    48   25   48 1
    49   25   49 1
    50   26   27 1
    51   26   50 1
    52   26   51 1
    53   27   28 1
    54   27   29 1
    55   27   30 1
    56   29   52 1
    57   29   53 1
    58   30   54 1
    59   31   55 1
    60   31   56 1
    61   31   57 1
@<TRIPOS>MOLECULE
ZINC00608101
   37    39     0     0     0
SMALL
USER_CHARGES

@<TRIPOS>ATOM
      1 C1         -0.0167    1.3792    0.0096 C.ar      1 <0>        -0.1022
      2 C2          1.1708    2.0869    0.0021 C.ar      1 <0>        -0.0574
      3 C3          2.3773    1.4131   -0.0135 C.ar      1 <0>        -0.0993
      4 C4          2.3974    0.0294   -0.0212 C.ar      1 <0>        -0.0134
      5 C5          1.2096   -0.6792   -0.0132 C.ar      1 <0>        -0.0985
      6 C6          0.0021   -0.0041    0.0020 C.ar      1 <0>        -0.0092
      7 Cl1        -1.4893   -0.8926    0.0121 Cl        1 <0>        -0.0352
      8 Cl2         3.9130   -0.8168   -0.0414 Cl        1 <0>        -0.0549
      9 C7          3.6714    2.1853   -0.0227 C.3       1 <0>         0.1207
     10 H1          4.4207    1.6456    0.5564 H         1 <0>         0.0945
     11 C8          4.1592    2.3459   -1.4640 C.3       1 <0>         0.0719
     12 N1          5.4746    2.9910   -1.4653 N.pl3     1 <0>        -0.4112
     13 C9          5.7191    4.3369   -1.5139 C.2       1 <0>         0.0326
     14 C10         7.0569    4.4907   -1.4946 C.2       1 <0>         0.0038
     15 N2          7.6139    3.2720   -1.4358 N.pl3     1 <0>        -0.4720
     16 C11         6.6721    2.3690   -1.4129 C.cat     1 <0>         0.2853
     17 O1          3.4606    3.4751    0.5553 O.3       1 <0>        -0.3561
     18 C12         4.6108    4.0135    1.2103 C.3       1 <0>         0.1116
     19 C13         4.2765    5.3681    1.7798 C.2       1 <0>        -0.1111
     20 C14         3.0088    5.8995    1.6296 C.2       1 <0>        -0.1434
     21 C15         2.7412    7.1199    2.1542 C.2       1 <0>        -0.1551
     22 S1          4.3079    7.5582    2.8894 S.3       1 <0>         0.1267
     23 C16         5.2130    6.0827    2.4525 C.2       1 <0>        -0.1319
     24 Cl3         6.8638    5.6705    2.7971 Cl        1 <0>         0.0182
     25 H2         -0.9592    1.9062    0.0260 H         1 <0>         0.1498
     26 H3          1.1557    3.1667    0.0080 H         1 <0>         0.1528
     27 H4          1.2248   -1.7590   -0.0191 H         1 <0>         0.1536
     28 H5          4.2350    1.3651   -1.9333 H         1 <0>         0.1335
     29 H6          3.4522    2.9613   -2.0204 H         1 <0>         0.1398
     30 H7          4.9812    5.1241   -1.5594 H         1 <0>         0.2239
     31 H8          7.5881    5.4307   -1.5217 H         1 <0>         0.2262
     32 H9          6.8251    1.3010   -1.3629 H         1 <0>         0.2597
     33 H10         4.9159    3.3458    2.0161 H         1 <0>         0.0728
     34 H11         5.4250    4.1120    0.4923 H         1 <0>         0.0578
     35 H12         2.2434    5.3501    1.1017 H         1 <0>         0.1511
     36 H13         1.8193    7.6820    2.1326 H         1 <0>         0.1980
     37 H14         8.5665    3.0907   -1.4106 H         1 <0>         0.4667
@<TRIPOS>BOND
     1    1    6 ar
     2    1    2 ar
     3    1   25 1
     4    2    3 ar
     5    2   26 1
     6    3    4 ar
     7    3    9 1
     8    4    5 ar
     9    4    8 1
    10    5    6 ar
    11    5   27 1
    12    6    7 1
    13    9   10 1
    14    9   11 1
    15    9   17 1
    16   11   12 1
    17   11   28 1
    18   11   29 1
    19   12   16 1
    20   12   13 1
    21   13   14 2
    22   13   30 1
    23   14   15 1
    24   14   31 1
    25   15   16 2
    26   15   37 1
    27   16   32 1
    28   17   18 1
    29   18   19 1
    30   18   33 1
    31   18   34 1
    32   19   23 2
    33   19   20 1
    34   20   21 2
    35   20   35 1
    36   21   22 1
    37   21   36 1
    38   22   23 1
    39   23   24 1
@<TRIPOS>MOLECULE
ZINC00608101
   36    38     0     0     0
SMALL
USER_CHARGES

@<TRIPOS>ATOM
      1 C1         -0.0167    1.3792    0.0096 C.ar      1 <0>        -0.1050
      2 C2          1.1708    2.0869    0.0021 C.ar      1 <0>        -0.0625
      3 C3          2.3773    1.4131   -0.0135 C.ar      1 <0>        -0.0818
      4 C4          2.3974    0.0294   -0.0212 C.ar      1 <0>        -0.0166
      5 C5          1.2096   -0.6792   -0.0132 C.ar      1 <0>        -0.1009
      6 C6          0.0021   -0.0041    0.0020 C.ar      1 <0>        -0.0177
      7 Cl1        -1.4893   -0.8926    0.0121 Cl        1 <0>        -0.0495
      8 Cl2         3.9130   -0.8168   -0.0414 Cl        1 <0>        -0.0496
      9 C7          3.6714    2.1853   -0.0227 C.3       1 <0>         0.1190
     10 H1          4.4207    1.6456    0.5564 H         1 <0>         0.0889
     11 C8          4.1592    2.3459   -1.4640 C.3       1 <0>         0.0886
     12 N1          5.4746    2.9910   -1.4653 N.pl3     1 <0>        -0.4620
     13 C9          5.7192    4.3368   -1.5144 C.2       1 <0>        -0.0489
     14 C10         7.0569    4.4907   -1.4949 C.2       1 <0>        -0.0255
     15 N2          7.6139    3.2720   -1.4355 N.2       1 <0>        -0.4871
     16 C11         6.6721    2.3690   -1.4124 C.2       1 <0>         0.1806
     17 O1          3.4606    3.4751    0.5553 O.3       1 <0>        -0.3650
     18 C12         4.6108    4.0135    1.2103 C.3       1 <0>         0.1029
     19 C13         4.2765    5.3681    1.7798 C.2       1 <0>        -0.1006
     20 C14         3.0088    5.8995    1.6296 C.2       1 <0>        -0.1344
     21 C15         2.7412    7.1199    2.1542 C.2       1 <0>        -0.1658
     22 S1          4.3079    7.5582    2.8894 S.3       1 <0>         0.0961
     23 C16         5.2130    6.0827    2.4525 C.2       1 <0>        -0.1240
     24 Cl3         6.8638    5.6705    2.7971 Cl        1 <0>         0.0236
     25 H2         -0.9592    1.9062    0.0260 H         1 <0>         0.1449
     26 H3          1.1557    3.1667    0.0080 H         1 <0>         0.1508
     27 H4          1.2248   -1.7590   -0.0191 H         1 <0>         0.1492
     28 H5          4.2350    1.3651   -1.9333 H         1 <0>         0.1064
     29 H6          3.4522    2.9613   -2.0204 H         1 <0>         0.1058
     30 H7          4.9812    5.1240   -1.5603 H         1 <0>         0.1730
     31 H8          7.5881    5.4307   -1.5223 H         1 <0>         0.1694
     32 H9          6.8251    1.3011   -1.3620 H         1 <0>         0.2020
     33 H10         4.9159    3.3458    2.0161 H         1 <0>         0.0633
     34 H11         5.4250    4.1120    0.4923 H         1 <0>         0.0901
     35 H12         2.2434    5.3501    1.1017 H         1 <0>         0.1488
     36 H13         1.8193    7.6820    2.1326 H         1 <0>         0.1935
@<TRIPOS>BOND
     1    1    6 ar
     2    1    2 ar
     3    1   25 1
     4    2    3 ar
     5    2   26 1
     6    3    4 ar
     7    3    9 1
     8    4    5 ar
     9    4    8 1
    10    5    6 ar
    11    5   27 1
    12    6    7 1
    13    9   10 1
    14    9   11 1
    15    9   17 1
    16   11   12 1
    17   11   28 1
    18   11   29 1
    19   12   16 1
    20   12   13 1
    21   13   14 2
    22   13   30 1
    23   14   15 1
    24   14   31 1
    25   15   16 2
    26   16   32 1
    27   17   18 1
    28   18   19 1
    29   18   33 1
    30   18   34 1
    31   19   23 2
    32   19   20 1
    33   20   21 2
    34   20   35 1
    35   21   22 1
    36   21   36 1
    37   22   23 1
    38   23   24 1
@<TRIPOS>MOLECULE
ZINC00897385
   37    39     0     0     0
SMALL
USER_CHARGES

@<TRIPOS>ATOM
      1 C1         -0.0167    1.3792    0.0096 C.ar      1 <0>        -0.1028
      2 C2          1.1708    2.0869    0.0021 C.ar      1 <0>        -0.0583
      3 C3          2.3773    1.4131   -0.0135 C.ar      1 <0>        -0.0996
      4 C4          2.3974    0.0294   -0.0212 C.ar      1 <0>        -0.0136
      5 C5          1.2096   -0.6792   -0.0132 C.ar      1 <0>        -0.0986
      6 C6          0.0021   -0.0041    0.0020 C.ar      1 <0>        -0.0090
      7 Cl1        -1.4893   -0.8926    0.0121 Cl        1 <0>        -0.0354
      8 Cl2         3.9130   -0.8168   -0.0414 Cl        1 <0>        -0.0512
      9 C7          3.6714    2.1853   -0.0227 C.3       1 <0>         0.1198
     10 H1          4.4087    1.6516   -0.6224 H         1 <0>         0.0979
     11 C8          4.1883    2.3314    1.4099 C.3       1 <0>         0.0726
     12 N1          5.5035    2.9765    1.3911 N.pl3     1 <0>        -0.4121
     13 C9          6.7157    2.3471    1.3010 C.2       1 <0>         0.0238
     14 C10         7.6569    3.3102    1.3165 C.2       1 <0>         0.0083
     15 N2          7.0363    4.4953    1.4134 N.pl3     1 <0>        -0.4753
     16 C11         5.7461    4.3035    1.4534 C.cat     1 <0>         0.2926
     17 O1          3.4490    3.4808   -0.5834 O.3       1 <0>        -0.3577
     18 C12         4.5859    4.0259   -1.2561 C.3       1 <0>         0.1165
     19 C13         4.2402    5.3862   -1.8049 C.2       1 <0>        -0.1156
     20 C14         2.9791    5.9204   -1.6147 C.2       1 <0>        -0.1446
     21 C15         2.7012    7.1463   -2.1209 C.2       1 <0>        -0.1537
     22 S1          4.2483    7.5860   -2.8958 S.3       1 <0>         0.1305
     23 C16         5.1632    6.1081   -2.4884 C.2       1 <0>        -0.1348
     24 Cl3         6.8068    5.6998   -2.8700 Cl        1 <0>         0.0204
     25 H2         -0.9592    1.9062    0.0260 H         1 <0>         0.1496
     26 H3          1.1557    3.1667    0.0080 H         1 <0>         0.1523
     27 H4          1.2248   -1.7590   -0.0191 H         1 <0>         0.1536
     28 H5          3.4928    2.9411    1.9867 H         1 <0>         0.1365
     29 H6          4.2735    1.3459    1.8677 H         1 <0>         0.1370
     30 H7          6.8848    1.2827    1.2312 H         1 <0>         0.2239
     31 H8          8.7243    3.1554    1.2607 H         1 <0>         0.2266
     32 H9          4.9966    5.0777    1.5270 H         1 <0>         0.2586
     33 H10         5.4144    4.1173   -0.5537 H         1 <0>         0.0461
     34 H11         4.8745    3.3665   -2.0746 H         1 <0>         0.0779
     35 H12         2.2265    5.3686   -1.0711 H         1 <0>         0.1526
     36 H13         1.7819    7.7107   -2.0695 H         1 <0>         0.1988
     37 H14         7.4769    5.3589    1.4449 H         1 <0>         0.4665
@<TRIPOS>BOND
     1    1    6 ar
     2    1    2 ar
     3    1   25 1
     4    2    3 ar
     5    2   26 1
     6    3    4 ar
     7    3    9 1
     8    4    5 ar
     9    4    8 1
    10    5    6 ar
    11    5   27 1
    12    6    7 1
    13    9   10 1
    14    9   11 1
    15    9   17 1
    16   11   12 1
    17   11   28 1
    18   11   29 1
    19   12   16 1
    20   12   13 1
    21   13   14 2
    22   13   30 1
    23   14   15 1
    24   14   31 1
    25   15   16 2
    26   15   37 1
    27   16   32 1
    28   17   18 1
    29   18   19 1
    30   18   33 1
    31   18   34 1
    32   19   23 2
    33   19   20 1
    34   20   21 2
    35   20   35 1
    36   21   22 1
    37   21   36 1
    38   22   23 1
    39   23   24 1
@<TRIPOS>MOLECULE
ZINC00897385
   36    38     0     0     0
SMALL
USER_CHARGES

@<TRIPOS>ATOM
      1 C1         -0.0167    1.3792    0.0096 C.ar      1 <0>        -0.1048
      2 C2          1.1708    2.0869    0.0021 C.ar      1 <0>        -0.0623
      3 C3          2.3773    1.4131   -0.0135 C.ar      1 <0>        -0.0818
      4 C4          2.3974    0.0294   -0.0212 C.ar      1 <0>        -0.0166
      5 C5          1.2096   -0.6792   -0.0132 C.ar      1 <0>        -0.1012
      6 C6          0.0021   -0.0041    0.0020 C.ar      1 <0>        -0.0177
      7 Cl1        -1.4893   -0.8926    0.0121 Cl        1 <0>        -0.0495
      8 Cl2         3.9130   -0.8168   -0.0414 Cl        1 <0>        -0.0503
      9 C7          3.6714    2.1853   -0.0227 C.3       1 <0>         0.1189
     10 H1          4.4087    1.6516   -0.6224 H         1 <0>         0.0890
     11 C8          4.1883    2.3314    1.4099 C.3       1 <0>         0.0884
     12 N1          5.5035    2.9765    1.3911 N.pl3     1 <0>        -0.4626
     13 C9          6.7157    2.3471    1.3014 C.2       1 <0>        -0.0585
     14 C10         7.6569    3.3102    1.3168 C.2       1 <0>        -0.0242
     15 N2          7.0363    4.4953    1.4131 N.2       1 <0>        -0.4866
     16 C11         5.7461    4.3036    1.4530 C.2       1 <0>         0.1882
     17 O1          3.4490    3.4808   -0.5834 O.3       1 <0>        -0.3653
     18 C12         4.5859    4.0259   -1.2561 C.3       1 <0>         0.1057
     19 C13         4.2402    5.3862   -1.8049 C.2       1 <0>        -0.1032
     20 C14         2.9791    5.9204   -1.6147 C.2       1 <0>        -0.1342
     21 C15         2.7012    7.1463   -2.1209 C.2       1 <0>        -0.1663
     22 S1          4.2483    7.5860   -2.8958 S.3       1 <0>         0.0968
     23 C16         5.1632    6.1081   -2.4884 C.2       1 <0>        -0.1205
     24 Cl3         6.8068    5.6998   -2.8700 Cl        1 <0>         0.0236
     25 H2         -0.9592    1.9062    0.0260 H         1 <0>         0.1451
     26 H3          1.1557    3.1667    0.0080 H         1 <0>         0.1515
     27 H4          1.2248   -1.7590   -0.0191 H         1 <0>         0.1490
     28 H5          3.4928    2.9411    1.9867 H         1 <0>         0.1075
     29 H6          4.2735    1.3459    1.8677 H         1 <0>         0.1049
     30 H7          6.8848    1.2827    1.2322 H         1 <0>         0.1729
     31 H8          8.7243    3.1554    1.2612 H         1 <0>         0.1698
     32 H9          4.9966    5.0777    1.5260 H         1 <0>         0.2009
     33 H10         5.4144    4.1173   -0.5537 H         1 <0>         0.0867
     34 H11         4.8745    3.3665   -2.0746 H         1 <0>         0.0640
     35 H12         2.2265    5.3686   -1.0711 H         1 <0>         0.1491
     36 H13         1.7819    7.7107   -2.0695 H         1 <0>         0.1937
@<TRIPOS>BOND
     1    1    6 ar
     2    1    2 ar
     3    1   25 1
     4    2    3 ar
     5    2   26 1
     6    3    4 ar
     7    3    9 1
     8    4    5 ar
     9    4    8 1
    10    5    6 ar
    11    5   27 1
    12    6    7 1
    13    9   10 1
    14    9   11 1
    15    9   17 1
    16   11   12 1
    17   11   28 1
    18   11   29 1
    19   12   16 1
    20   12   13 1
    21   13   14 2
    22   13   30 1
    23   14   15 1
    24   14   31 1
    25   15   16 2
    26   16   32 1
    27   17   18 1
    28   18   19 1
    29   18   33 1
    30   18   34 1
    31   19   23 2
    32   19   20 1
    33   20   21 2
    34   20   35 1
    35   21   22 1
    36   21   36 1
    37   22   23 1
    38   23   24 1
@<TRIPOS>MOLECULE
ZINC07041604
   59    62     0     0     0
SMALL
USER_CHARGES
17-(1-aminoethyl)-10,13-dimethyl-2,3,4,7,8,9,11,12,14,15,16,17-dodecahydro-1H-cyclopenta[a]phenanthren-3-ol
@<TRIPOS>ATOM
      1 C1         -4.0284   -2.9240    3.0733 C.3       1 <0>        -0.1989
      2 C2         -3.5049   -4.3183    3.4238 C.3       1 <0>         0.0343
      3 H1         -3.0359   -4.7617    2.5454 H         1 <0>         0.1428
      4 C3         -2.4803   -4.2088    4.5458 C.3       1 <0>        -0.1135
      5 H2         -2.2199   -5.1906    4.9339 H         1 <0>         0.0980
      6 C4         -3.0335   -3.3097    5.6832 C.3       1 <0>        -0.1312
      7 C5         -2.3448   -1.9277    5.5273 C.3       1 <0>        -0.1230
      8 C6         -1.6782   -2.0079    4.1451 C.3       1 <0>        -0.1000
      9 H3         -2.4745   -1.8624    3.3849 H         1 <0>         0.0929
     10 C7         -1.2024   -3.4727    4.0993 C.3       1 <0>        -0.0327
     11 C8         -0.6483   -3.8482    2.7525 C.3       1 <0>        -0.1112
     12 C9          0.0253   -2.6428    2.0742 C.3       1 <0>        -0.1105
     13 C10         0.5737   -1.6755    3.1129 C.3       1 <0>        -0.0724
     14 H4          1.2093   -2.2167    3.8188 H         1 <0>         0.0786
     15 C11        -0.5935   -1.0171    3.8623 C.3       1 <0>        -0.0718
     16 H5         -1.0075   -0.2239    3.2077 H         1 <0>         0.0703
     17 C12        -0.0089   -0.3344    5.0994 C.3       1 <0>        -0.0774
     18 C13         0.9987    0.6739    4.6053 C.2       1 <0>        -0.1693
     19 C14         1.6151    0.5672    3.4685 C.2       1 <0>        -0.0951
     20 C15         1.4418   -0.5822    2.5038 C.3       1 <0>        -0.0114
     21 C16         0.8617   -0.0438    1.2018 C.3       1 <0>        -0.0994
     22 C17         0.8450    1.4841    1.2210 C.3       1 <0>        -0.1093
     23 C18         2.2008    2.0668    1.6039 C.3       1 <0>         0.1109
     24 H6          2.1514    3.1586    1.5373 H         1 <0>         0.0532
     25 C19         2.5665    1.6714    3.0395 C.3       1 <0>        -0.1246
     26 O1          3.2039    1.5983    0.7010 O.3       1 <0>        -0.5632
     27 C20         2.8222   -1.1855    2.2169 C.3       1 <0>        -0.1452
     28 C21        -0.1549   -3.7579    5.1908 C.3       1 <0>        -0.1549
     29 H7         -3.3627   -2.4580    2.3469 H         1 <0>         0.1117
     30 H8         -5.0286   -3.0077    2.6482 H         1 <0>         0.0770
     31 H9         -4.0669   -2.3131    3.9752 H         1 <0>         0.1013
     32 H10        -2.7922   -3.7441    6.6522 H         1 <0>         0.0823
     33 H11        -4.1129   -3.2040    5.5782 H         1 <0>         0.0621
     34 H12        -1.6133   -1.7628    6.3139 H         1 <0>         0.0823
     35 H13        -3.0922   -1.1297    5.5383 H         1 <0>         0.0707
     36 H14        -1.4126   -4.2445    2.0818 H         1 <0>         0.0597
     37 H15         0.1073   -4.6420    2.8807 H         1 <0>         0.0674
     38 H16        -0.7133   -2.1324    1.4495 H         1 <0>         0.0633
     39 H17         0.8331   -3.0011    1.4323 H         1 <0>         0.0696
     40 H18        -0.7944    0.1810    5.6479 H         1 <0>         0.0711
     41 H19         0.4880   -1.0578    5.7376 H         1 <0>         0.0736
     42 H20         1.2137    1.5246    5.2305 H         1 <0>         0.1037
     43 H21        -0.1594   -0.4060    1.0756 H         1 <0>         0.0619
     44 H22         1.4680   -0.3880    0.3632 H         1 <0>         0.0719
     45 H23         0.5728    1.8449    0.2257 H         1 <0>         0.0660
     46 H24         0.0916    1.8254    1.9316 H         1 <0>         0.0725
     47 H25         2.4431    2.5357    3.6994 H         1 <0>         0.0728
     48 H26         3.5987    1.3294    3.0888 H         1 <0>         0.0832
     49 H27         4.0910    1.9332    0.8904 H         1 <0>         0.3787
     50 H28         3.4780   -0.4154    1.8108 H         1 <0>         0.0720
     51 H29         3.2480   -1.5746    3.1418 H         1 <0>         0.0481
     52 H30         2.7218   -1.9953    1.4943 H         1 <0>         0.0545
     53 H31         0.7800   -3.2585    4.9366 H         1 <0>         0.0728
     54 H32        -0.5175   -3.3847    6.1487 H         1 <0>         0.0637
     55 H33         0.0143   -4.8324    5.2601 H         1 <0>         0.0568
     56 H34        -4.3173   -6.1138    4.0193 H         1 <0>         0.4369
     57 H35        -5.0619   -4.7852    4.6872 H         1 <0>         0.4325
     58 N1         -4.6375   -5.1632    3.8419 N.4       1 <0>        -0.6460
     59 H36        -5.3400   -5.1806    3.0933 H         1 <0>         0.4397
@<TRIPOS>BOND
     1    1    2 1
     2    1   29 1
     3    1   30 1
     4    1   31 1
     5    2    3 1
     6    2    4 1
     7    2   58 1
     8    4    5 1
     9    4   10 1
    10    4    6 1
    11    6    7 1
    12    6   32 1
    13    6   33 1
    14    7    8 1
    15    7   34 1
    16    7   35 1
    17    8    9 1
    18    8   15 1
    19    8   10 1
    20   10   11 1
    21   10   28 1
    22   11   12 1
    23   11   36 1
    24   11   37 1
    25   12   13 1
    26   12   38 1
    27   12   39 1
    28   13   14 1
    29   13   20 1
    30   13   15 1
    31   15   16 1
    32   15   17 1
    33   17   18 1
    34   17   40 1
    35   17   41 1
    36   18   19 2
    37   18   42 1
    38   19   25 1
    39   19   20 1
    40   20   21 1
    41   20   27 1
    42   21   22 1
    43   21   43 1
    44   21   44 1
    45   22   23 1
    46   22   45 1
    47   22   46 1
    48   23   24 1
    49   23   25 1
    50   23   26 1
    51   25   47 1
    52   25   48 1
    53   26   49 1
    54   27   50 1
    55   27   51 1
    56   27   52 1
    57   28   53 1
    58   28   54 1
    59   28   55 1
    60   56   58 1
    61   57   58 1
    62   58   59 1
@<TRIPOS>MOLECULE
ZINC07041622
   59    62     0     0     0
SMALL
USER_CHARGES
17-(1-aminoethyl)-10,13-dimethyl-2,3,4,7,8,9,11,12,14,15,16,17-dodecahydro-1H-cyclopenta[a]phenanthren-3-ol
@<TRIPOS>ATOM
      1 C1         -4.7459   -4.2597    4.5398 C.3       1 <0>        -0.1813
      2 C2         -3.6310   -3.9304    3.5451 C.3       1 <0>         0.0374
      3 H1         -3.5610   -4.7246    2.8018 H         1 <0>         0.1420
      4 C3         -2.3058   -3.8119    4.2882 C.3       1 <0>        -0.1116
      5 H2         -2.1351   -4.6775    4.9234 H         1 <0>         0.1218
      6 C4         -2.2882   -2.5109    5.1348 C.3       1 <0>        -0.1397
      7 C5         -1.4262   -1.4866    4.3500 C.3       1 <0>        -0.1376
      8 C6         -1.2563   -2.1373    2.9684 C.3       1 <0>        -0.0707
      9 H3         -2.2043   -1.9875    2.4110 H         1 <0>         0.0381
     10 C7         -1.1147   -3.6291    3.3286 C.3       1 <0>        -0.0565
     11 C8         -1.0925   -4.5089    2.1085 C.3       1 <0>        -0.1211
     12 C9         -0.4598   -3.7747    0.9123 C.3       1 <0>        -0.1136
     13 C10         0.5754   -2.7680    1.3914 C.3       1 <0>        -0.0744
     14 H4          1.2769   -3.2573    2.0690 H         1 <0>         0.0843
     15 C11        -0.1393   -1.6190    2.1189 C.3       1 <0>        -0.0786
     16 H5         -0.5690   -0.9505    1.3454 H         1 <0>         0.0761
     17 C12         0.9273   -0.8263    2.8732 C.3       1 <0>        -0.0763
     18 C13         1.9113   -0.3299    1.8427 C.2       1 <0>        -0.1711
     19 C14         2.1033   -0.9166    0.7012 C.2       1 <0>        -0.0933
     20 C15         1.4065   -2.1823    0.2586 C.3       1 <0>        -0.0119
     21 C16         0.5634   -1.8664   -0.9709 C.3       1 <0>        -0.0994
     22 C17         0.8549   -0.4493   -1.4624 C.3       1 <0>        -0.1093
     23 C18         2.3486   -0.2002   -1.6404 C.3       1 <0>         0.1104
     24 H6          2.4956    0.8049   -2.0508 H         1 <0>         0.0540
     25 C19         3.0714   -0.2956   -0.2912 C.3       1 <0>        -0.1256
     26 O1          2.8956   -1.1526   -2.5538 O.3       1 <0>        -0.5633
     27 C20         2.4728   -3.2143   -0.1253 C.3       1 <0>        -0.1460
     28 C21         0.1446   -3.8854    4.1769 C.3       1 <0>        -0.1529
     29 H7         -4.8159   -3.4656    5.2831 H         1 <0>         0.0817
     30 H8         -5.6937   -4.3445    4.0083 H         1 <0>         0.0823
     31 H9         -4.5223   -5.2038    5.0367 H         1 <0>         0.1061
     32 H10        -3.3038   -2.1332    5.2518 H         1 <0>         0.0671
     33 H11        -1.8462   -2.7071    6.1104 H         1 <0>         0.0950
     34 H12        -1.9591   -0.5367    4.2553 H         1 <0>         0.0760
     35 H13        -0.4664   -1.3278    4.8358 H         1 <0>         0.0972
     36 H14        -2.0872   -4.8533    1.8229 H         1 <0>         0.0629
     37 H15        -0.4899   -5.4081    2.3219 H         1 <0>         0.0788
     38 H16        -1.2495   -3.2554    0.3608 H         1 <0>         0.0592
     39 H17         0.0043   -4.5060    0.2481 H         1 <0>         0.0766
     40 H18         0.4738    0.0262    3.3753 H         1 <0>         0.0741
     41 H19         1.4434   -1.4584    3.5887 H         1 <0>         0.0781
     42 H20         2.4782    0.5574    2.0680 H         1 <0>         0.1065
     43 H21        -0.4956   -1.9405   -0.7165 H         1 <0>         0.0590
     44 H22         0.7913   -2.5794   -1.7627 H         1 <0>         0.0742
     45 H23         0.3533   -0.2989   -2.4210 H         1 <0>         0.0670
     46 H24         0.4541    0.2678   -0.7441 H         1 <0>         0.0718
     47 H25         3.3446    0.7088    0.0478 H         1 <0>         0.0738
     48 H26         3.9718   -0.8986   -0.3815 H         1 <0>         0.0849
     49 H27         3.8441   -1.0478   -2.7102 H         1 <0>         0.3801
     50 H28         3.1065   -2.8063   -0.9127 H         1 <0>         0.0729
     51 H29         3.0827   -3.4484    0.7472 H         1 <0>         0.0499
     52 H30         1.9874   -4.1222   -0.4834 H         1 <0>         0.0558
     53 H31         1.0255   -3.5482    3.6307 H         1 <0>         0.0740
     54 H32         0.0677   -3.3377    5.1161 H         1 <0>         0.0651
     55 H33         0.2320   -4.9519    4.3844 H         1 <0>         0.0650
     56 H34        -4.8071   -2.7111    2.3752 H         1 <0>         0.4281
     57 H35        -3.9389   -1.8948    3.5353 H         1 <0>         0.4302
     58 N1         -3.9126   -2.6567    2.8596 N.4       1 <0>        -0.6595
     59 H36        -3.1711   -2.4712    2.1741 H         1 <0>         0.4360
@<TRIPOS>BOND
     1    1    2 1
     2    1   29 1
     3    1   30 1
     4    1   31 1
     5    2    3 1
     6    2    4 1
     7    2   58 1
     8    4    5 1
     9    4   10 1
    10    4    6 1
    11    6    7 1
    12    6   32 1
    13    6   33 1
    14    7    8 1
    15    7   34 1
    16    7   35 1
    17    8    9 1
    18    8   15 1
    19    8   10 1
    20   10   11 1
    21   10   28 1
    22   11   12 1
    23   11   36 1
    24   11   37 1
    25   12   13 1
    26   12   38 1
    27   12   39 1
    28   13   14 1
    29   13   20 1
    30   13   15 1
    31   15   16 1
    32   15   17 1
    33   17   18 1
    34   17   40 1
    35   17   41 1
    36   18   19 2
    37   18   42 1
    38   19   25 1
    39   19   20 1
    40   20   21 1
    41   20   27 1
    42   21   22 1
    43   21   43 1
    44   21   44 1
    45   22   23 1
    46   22   45 1
    47   22   46 1
    48   23   24 1
    49   23   25 1
    50   23   26 1
    51   25   47 1
    52   25   48 1
    53   26   49 1
    54   27   50 1
    55   27   51 1
    56   27   52 1
    57   28   53 1
    58   28   54 1
    59   28   55 1
    60   56   58 1
    61   57   58 1
    62   58   59 1
@<TRIPOS>MOLECULE
ZINC07041634
   59    62     0     0     0
SMALL
USER_CHARGES
17-(1-aminoethyl)-10,13-dimethyl-2,3,4,7,8,9,11,12,14,15,16,17-dodecahydro-1H-cyclopenta[a]phenanthren-3-ol
@<TRIPOS>ATOM
      1 C1         -2.5590    1.0497    1.4688 C.3       1 <0>        -0.1924
      2 C2         -1.2162    1.0169    2.2013 C.3       1 <0>         0.0305
      3 H1         -0.6981    0.0865    1.9688 H         1 <0>         0.1452
      4 C3         -0.3625    2.2008    1.7523 C.3       1 <0>        -0.1137
      5 H2         -0.8709    3.1415    1.9223 H         1 <0>         0.1012
      6 C4          1.0164    2.1770    2.4574 C.3       1 <0>        -0.1369
      7 C5          2.0801    2.4233    1.3517 C.3       1 <0>        -0.1174
      8 C6          1.2429    2.9457    0.1748 C.3       1 <0>        -0.0675
      9 H3          0.9430    3.9878    0.4244 H         1 <0>         0.0715
     10 C7         -0.0127    2.0548    0.2540 C.3       1 <0>        -0.0388
     11 C8         -1.0916    2.5404   -0.6815 C.3       1 <0>        -0.1091
     12 C9         -0.4843    3.1445   -1.9566 C.3       1 <0>        -0.1127
     13 C10         0.8745    2.5281   -2.2548 C.3       1 <0>        -0.0699
     14 H4          0.7856    1.4380   -2.2608 H         1 <0>         0.0754
     15 C11         1.8811    2.9544   -1.1763 C.3       1 <0>        -0.0732
     16 H5          2.2029    3.9885   -1.4071 H         1 <0>         0.0730
     17 C12         3.1035    2.0468   -1.3177 C.3       1 <0>        -0.0760
     18 C13         3.6415    2.2585   -2.7118 C.2       1 <0>        -0.1708
     19 C14         2.9050    2.6528   -3.7058 C.2       1 <0>        -0.0937
     20 C15         1.4208    2.9185   -3.6198 C.3       1 <0>        -0.0116
     21 C16         1.1693    4.3844   -3.9495 C.3       1 <0>        -0.1007
     22 C17         2.4552    5.0415   -4.4514 C.3       1 <0>        -0.1097
     23 C18         3.1043    4.2410   -5.5759 C.3       1 <0>         0.1104
     24 H6          3.9797    4.7863   -5.9419 H         1 <0>         0.0536
     25 C19         3.5505    2.8654   -5.0645 C.3       1 <0>        -0.1238
     26 O1          2.1797    4.0812   -6.6544 O.3       1 <0>        -0.5632
     27 C20         0.7150    2.0521   -4.6701 C.3       1 <0>        -0.1452
     28 C21         0.2980    0.5759    0.0146 C.3       1 <0>        -0.1643
     29 H7         -2.4002    0.8471    0.4096 H         1 <0>         0.1127
     30 H8         -3.2204    0.2917    1.8885 H         1 <0>         0.0801
     31 H9         -3.0132    2.0335    1.5864 H         1 <0>         0.0835
     32 H10         1.1808    1.2065    2.9242 H         1 <0>         0.0660
     33 H11         1.0665    2.9663    3.2061 H         1 <0>         0.0768
     34 H12         2.6020    1.5053    1.0980 H         1 <0>         0.0791
     35 H13         2.7921    3.1857    1.6776 H         1 <0>         0.0731
     36 H14        -1.7500    1.7058   -0.9537 H         1 <0>         0.0670
     37 H15        -1.7022    3.3010   -0.1781 H         1 <0>         0.0649
     38 H16        -0.3752    4.2241   -1.8209 H         1 <0>         0.0660
     39 H17        -1.1643    2.9700   -2.7938 H         1 <0>         0.0691
     40 H18         3.8637    2.3264   -0.5917 H         1 <0>         0.0716
     41 H19         2.8240    1.0053   -1.1928 H         1 <0>         0.0726
     42 H20         4.6878    2.0720   -2.8864 H         1 <0>         0.1042
     43 H21         0.8289    4.9105   -3.0575 H         1 <0>         0.0633
     44 H22         0.4017    4.4581   -4.7210 H         1 <0>         0.0722
     45 H23         3.1571    5.1344   -3.6226 H         1 <0>         0.0729
     46 H24         2.2181    6.0423   -4.8203 H         1 <0>         0.0666
     47 H25         4.6394    2.8511   -4.9582 H         1 <0>         0.0727
     48 H26         3.2501    2.0852   -5.7606 H         1 <0>         0.0836
     49 H27         2.5394    3.6014   -7.4130 H         1 <0>         0.3782
     50 H28         0.9186    1.0002   -4.4697 H         1 <0>         0.0473
     51 H29        -0.3596    2.2292   -4.6246 H         1 <0>         0.0543
     52 H30         1.0842    2.3110   -5.6624 H         1 <0>         0.0730
     53 H31         0.9032    0.1941    0.8368 H         1 <0>         0.0601
     54 H32        -0.6339    0.0135   -0.0422 H         1 <0>         0.0596
     55 H33         0.8460    0.4667   -0.9212 H         1 <0>         0.0786
     56 H34        -0.5836    0.9854    4.1602 H         1 <0>         0.4349
     57 H35        -1.8982    1.9688    3.8945 H         1 <0>         0.4340
     58 N1         -1.4618    1.0807    3.6528 N.4       1 <0>        -0.6469
     59 H36        -2.0896    0.3144    3.9229 H         1 <0>         0.4388
@<TRIPOS>BOND
     1    1    2 1
     2    1   29 1
     3    1   30 1
     4    1   31 1
     5    2    3 1
     6    2    4 1
     7    2   58 1
     8    4    5 1
     9    4   10 1
    10    4    6 1
    11    6    7 1
    12    6   32 1
    13    6   33 1
    14    7    8 1
    15    7   34 1
    16    7   35 1
    17    8    9 1
    18    8   15 1
    19    8   10 1
    20   10   11 1
    21   10   28 1
    22   11   12 1
    23   11   36 1
    24   11   37 1
    25   12   13 1
    26   12   38 1
    27   12   39 1
    28   13   14 1
    29   13   20 1
    30   13   15 1
    31   15   16 1
    32   15   17 1
    33   17   18 1
    34   17   40 1
    35   17   41 1
    36   18   19 2
    37   18   42 1
    38   19   25 1
    39   19   20 1
    40   20   21 1
    41   20   27 1
    42   21   22 1
    43   21   43 1
    44   21   44 1
    45   22   23 1
    46   22   45 1
    47   22   46 1
    48   23   24 1
    49   23   25 1
    50   23   26 1
    51   25   47 1
    52   25   48 1
    53   26   49 1
    54   27   50 1
    55   27   51 1
    56   27   52 1
    57   28   53 1
    58   28   54 1
    59   28   55 1
    60   56   58 1
    61   57   58 1
    62   58   59 1
@<TRIPOS>MOLECULE
ZINC07041648
   59    62     0     0     0
SMALL
USER_CHARGES
17-(1-aminoethyl)-10,13-dimethyl-2,3,4,7,8,9,11,12,14,15,16,17-dodecahydro-1H-cyclopenta[a]phenanthren-3-ol
@<TRIPOS>ATOM
      1 C1          4.8425    4.6119    0.0513 C.3       1 <0>        -0.1819
      2 C2          3.4881    4.3952   -0.6265 C.3       1 <0>         0.0305
      3 H1          2.7510    5.0685   -0.1889 H         1 <0>         0.1449
      4 C3          3.0420    2.9499   -0.4216 C.3       1 <0>        -0.1118
      5 H2          3.7300    2.2533   -0.8849 H         1 <0>         0.1005
      6 C4          2.8698    2.6426    1.0868 C.3       1 <0>        -0.1134
      7 C5          1.4998    1.9243    1.2366 C.3       1 <0>        -0.1212
      8 C6          1.1698    1.5133   -0.2053 C.3       1 <0>        -0.0637
      9 H3          1.8455    0.6695   -0.4696 H         1 <0>         0.0738
     10 C7          1.6227    2.7540   -1.0022 C.3       1 <0>        -0.0753
     11 C8          1.5925    2.4554   -2.4781 C.3       1 <0>        -0.1061
     12 C9          0.2810    1.7800   -2.8913 C.3       1 <0>        -0.1141
     13 C10        -0.7614    1.7539   -1.7897 C.3       1 <0>        -0.0679
     14 H4         -1.0870    2.7792   -1.5693 H         1 <0>         0.0759
     15 C11        -0.2347    1.1026   -0.5077 C.3       1 <0>        -0.0733
     16 H5         -0.2617    0.0040   -0.6437 H         1 <0>         0.0750
     17 C12        -1.2221    1.4510    0.6132 C.3       1 <0>        -0.0776
     18 C13        -2.5700    0.9191    0.2015 C.2       1 <0>        -0.1680
     19 C14        -2.9103    0.7186   -1.0336 C.2       1 <0>        -0.0960
     20 C15        -2.0284    1.0179   -2.2220 C.3       1 <0>        -0.0127
     21 C16        -1.7201   -0.2914   -2.9370 C.3       1 <0>        -0.1006
     22 C17        -2.5727   -1.4222   -2.3621 C.3       1 <0>        -0.1103
     23 C18        -4.0512   -1.0547   -2.3030 C.3       1 <0>         0.1105
     24 H6         -4.6197   -1.9198   -1.9458 H         1 <0>         0.0540
     25 C19        -4.2716    0.1173   -1.3389 C.3       1 <0>        -0.1239
     26 O1         -4.5193   -0.7066   -3.6069 O.3       1 <0>        -0.5633
     27 C20        -2.7967    1.9368   -3.1784 C.3       1 <0>        -0.1458
     28 C21         0.8282    4.0120   -0.6618 C.3       1 <0>        -0.1647
     29 H7          5.5797    3.9387   -0.3864 H         1 <0>         0.0812
     30 H8          5.1611    5.6440   -0.0951 H         1 <0>         0.0814
     31 H9          4.7519    4.4074    1.1181 H         1 <0>         0.1073
     32 H10         2.8699    3.5682    1.6610 H         1 <0>         0.0752
     33 H11         3.6723    1.9897    1.4282 H         1 <0>         0.0798
     34 H12         0.7488    2.5918    1.6475 H         1 <0>         0.0790
     35 H13         1.6071    1.0386    1.8673 H         1 <0>         0.0749
     36 H14         1.7149    3.3880   -3.0466 H         1 <0>         0.0418
     37 H15         2.4361    1.8004   -2.7382 H         1 <0>         0.0735
     38 H16        -0.1227    2.3075   -3.7662 H         1 <0>         0.0698
     39 H17         0.5035    0.7537   -3.2122 H         1 <0>         0.0735
     40 H18        -0.9108    0.9744    1.5397 H         1 <0>         0.0745
     41 H19        -1.2787    2.5279    0.7395 H         1 <0>         0.0724
     42 H20        -3.2854    0.6956    0.9758 H         1 <0>         0.1048
     43 H21        -1.9306   -0.1842   -4.0014 H         1 <0>         0.0721
     44 H22        -0.6674   -0.5455   -2.8038 H         1 <0>         0.0632
     45 H23        -2.2202   -1.6606   -1.3575 H         1 <0>         0.0736
     46 H24        -2.4524   -2.3078   -2.9914 H         1 <0>         0.0670
     47 H25        -4.7254   -0.2505   -0.4136 H         1 <0>         0.0735
     48 H26        -4.9281    0.8603   -1.7875 H         1 <0>         0.0831
     49 H27        -5.4604   -0.4871   -3.6413 H         1 <0>         0.3787
     50 H28        -2.1744    2.1617   -4.0445 H         1 <0>         0.0535
     51 H29        -3.7092    1.4388   -3.5061 H         1 <0>         0.0744
     52 H30        -3.0528    2.8634   -2.6646 H         1 <0>         0.0477
     53 H31         1.0549    4.3198    0.3590 H         1 <0>         0.0725
     54 H32         1.1005    4.8113   -1.3512 H         1 <0>         0.0430
     55 H33        -0.2379    3.8034   -0.7502 H         1 <0>         0.0867
     56 H34         3.8419    5.6390   -2.2284 H         1 <0>         0.4352
     57 H35         4.2883    4.0591   -2.4933 H         1 <0>         0.4331
     58 N1          3.5867    4.6654   -2.0717 N.4       1 <0>        -0.6519
     59 H36         2.6774    4.4823   -2.5121 H         1 <0>         0.4318
@<TRIPOS>BOND
     1    1    2 1
     2    1   29 1
     3    1   30 1
     4    1   31 1
     5    2    3 1
     6    2    4 1
     7    2   58 1
     8    4    5 1
     9    4   10 1
    10    4    6 1
    11    6    7 1
    12    6   32 1
    13    6   33 1
    14    7    8 1
    15    7   34 1
    16    7   35 1
    17    8    9 1
    18    8   15 1
    19    8   10 1
    20   10   11 1
    21   10   28 1
    22   11   12 1
    23   11   36 1
    24   11   37 1
    25   12   13 1
    26   12   38 1
    27   12   39 1
    28   13   14 1
    29   13   20 1
    30   13   15 1
    31   15   16 1
    32   15   17 1
    33   17   18 1
    34   17   40 1
    35   17   41 1
    36   18   19 2
    37   18   42 1
    38   19   25 1
    39   19   20 1
    40   20   21 1
    41   20   27 1
    42   21   22 1
    43   21   43 1
    44   21   44 1
    45   22   23 1
    46   22   45 1
    47   22   46 1
    48   23   24 1
    49   23   25 1
    50   23   26 1
    51   25   47 1
    52   25   48 1
    53   26   49 1
    54   27   50 1
    55   27   51 1
    56   27   52 1
    57   28   53 1
    58   28   54 1
    59   28   55 1
    60   56   58 1
    61   57   58 1
    62   58   59 1
@<TRIPOS>MOLECULE
ZINC04532103
   57    60     0     0     0
SMALL
USER_CHARGES

@<TRIPOS>ATOM
      1 C1         -0.3681    1.4202    0.2011 C.3       1 <0>        -0.1491
      2 C2         -0.1492   -0.0684    0.1151 C.2       1 <0>         0.1305
      3 N1         -0.0114   -0.7576    1.1842 N.2       1 <0>        -0.3104
      4 O1         -0.0645   -0.1218    2.4483 O.3       1 <0>        -0.4323
      5 C3         -0.0928   -0.7432   -1.2266 C.3       1 <0>        -0.0386
      6 H1         -0.9753   -0.5299   -1.8164 H         1 <0>         0.0977
      7 C4          1.1953   -0.3355   -1.9877 C.3       1 <0>        -0.1133
      8 C5          1.8527   -1.6594   -2.4756 C.3       1 <0>        -0.1147
      9 C6          0.6741   -2.6459   -2.4031 C.3       1 <0>        -0.0771
     10 H2         -0.0433   -2.3666   -3.2009 H         1 <0>         0.0686
     11 C7          0.0574   -2.2710   -1.0374 C.3       1 <0>        -0.0421
     12 C8         -1.2356   -3.0103   -0.8272 C.3       1 <0>        -0.0997
     13 C9         -1.1080   -4.4955   -1.1803 C.3       1 <0>        -0.1068
     14 C10         0.3253   -4.9316   -1.4277 C.3       1 <0>        -0.0667
     15 H3          0.9014   -4.8394   -0.5008 H         1 <0>         0.0764
     16 C11         0.9912   -4.1011   -2.5283 C.3       1 <0>        -0.0645
     17 H4          0.6182   -4.4632   -3.5053 H         1 <0>         0.0664
     18 C12         2.4963   -4.3917   -2.4733 C.3       1 <0>        -0.0791
     19 C13         2.6811   -5.8745   -2.6546 C.2       1 <0>        -0.1627
     20 C14         1.7617   -6.7477   -2.3836 C.2       1 <0>        -0.1002
     21 C15         0.4092   -6.4077   -1.8061 C.3       1 <0>        -0.0132
     22 C16        -0.6622   -6.8179   -2.8070 C.3       1 <0>        -0.1001
     23 C17        -0.0437   -7.6448   -3.9344 C.3       1 <0>        -0.1087
     24 C18         0.8267   -8.7799   -3.4072 C.3       1 <0>         0.1122
     25 H5          1.1891   -9.3736   -4.2535 H         1 <0>         0.0500
     26 C19         2.0321   -8.2203   -2.6420 C.3       1 <0>        -0.1211
     27 O2          0.0579   -9.6273   -2.5519 O.3       1 <0>        -0.5622
     28 C20         0.2164   -7.2204   -0.5207 C.3       1 <0>        -0.1449
     29 C21         1.0184   -2.4752    0.1325 C.3       1 <0>        -0.1349
     30 H6          0.5950    1.9304    0.1885 H         1 <0>         0.0784
     31 H7         -0.9649    1.7494   -0.6495 H         1 <0>         0.0742
     32 H8         -0.8928    1.6573    1.1267 H         1 <0>         0.0761
     33 H9          0.0498   -0.7237    3.1965 H         1 <0>         0.3994
     34 H10         0.9425    0.2902   -2.8413 H         1 <0>         0.0722
     35 H11         1.8738    0.1913   -1.3185 H         1 <0>         0.0658
     36 H12         2.1878   -1.5508   -3.5098 H         1 <0>         0.0646
     37 H13         2.6742   -1.9546   -1.8370 H         1 <0>         0.0739
     38 H14        -1.5503   -2.9141    0.2220 H         1 <0>         0.0611
     39 H15        -2.0244   -2.5574   -1.4461 H         1 <0>         0.0558
     40 H16        -1.5368   -5.0892   -0.3630 H         1 <0>         0.0598
     41 H17        -1.7110   -4.6944   -2.0757 H         1 <0>         0.0605
     42 H18         3.0020   -3.8616   -3.2776 H         1 <0>         0.0710
     43 H19         2.8996   -4.0889   -1.5117 H         1 <0>         0.0741
     44 H20         3.6282   -6.2269   -3.0309 H         1 <0>         0.1003
     45 H21        -1.4274   -7.4077   -2.3024 H         1 <0>         0.0697
     46 H22        -1.1222   -5.9277   -3.2392 H         1 <0>         0.0655
     47 H23        -0.8496   -8.0692   -4.5397 H         1 <0>         0.0636
     48 H24         0.5584   -6.9930   -4.5686 H         1 <0>         0.0735
     49 H25         2.9336   -8.3234   -3.2540 H         1 <0>         0.0703
     50 H26         2.1728   -8.7575   -1.7060 H         1 <0>         0.0812
     51 H27         0.5555  -10.3700   -2.1835 H         1 <0>         0.3754
     52 H28        -0.7577   -6.9913   -0.0887 H         1 <0>         0.0543
     53 H29         0.2703   -8.2842   -0.7519 H         1 <0>         0.0699
     54 H30         0.9997   -6.9635    0.1925 H         1 <0>         0.0467
     55 H31         0.4526   -2.5271    1.0627 H         1 <0>         0.0892
     56 H32         1.5709   -3.4042   -0.0090 H         1 <0>         0.0465
     57 H33         1.7175   -1.6402    0.1785 H         1 <0>         0.0473
@<TRIPOS>BOND
     1    1    2 1
     2    1   30 1
     3    1   31 1
     4    1   32 1
     5    2    3 2
     6    2    5 1
     7    3    4 1
     8    4   33 1
     9    5    6 1
    10    5   11 1
    11    5    7 1
    12    7    8 1
    13    7   34 1
    14    7   35 1
    15    8    9 1
    16    8   36 1
    17    8   37 1
    18    9   10 1
    19    9   16 1
    20    9   11 1
    21   11   12 1
    22   11   29 1
    23   12   13 1
    24   12   38 1
    25   12   39 1
    26   13   14 1
    27   13   40 1
    28   13   41 1
    29   14   15 1
    30   14   21 1
    31   14   16 1
    32   16   17 1
    33   16   18 1
    34   18   19 1
    35   18   42 1
    36   18   43 1
    37   19   20 2
    38   19   44 1
    39   20   26 1
    40   20   21 1
    41   21   22 1
    42   21   28 1
    43   22   23 1
    44   22   45 1
    45   22   46 1
    46   23   24 1
    47   23   47 1
    48   23   48 1
    49   24   25 1
    50   24   26 1
    51   24   27 1
    52   26   49 1
    53   26   50 1
    54   27   51 1
    55   28   52 1
    56   28   53 1
    57   28   54 1
    58   29   55 1
    59   29   56 1
    60   29   57 1
@<TRIPOS>MOLECULE
ZINC04532105
   57    60     0     0     0
SMALL
USER_CHARGES

@<TRIPOS>ATOM
      1 C1         -0.5516   -1.0106    1.4083 C.3       1 <0>        -0.1571
      2 C2          0.5900   -0.8751    0.4339 C.2       1 <0>         0.1482
      3 N1          1.6572   -0.2601    0.7804 N.2       1 <0>        -0.3404
      4 O1          1.7656    0.2932    2.0793 O.3       1 <0>        -0.4185
      5 C3          0.4747   -1.4640   -0.9485 C.3       1 <0>        -0.0280
      6 H1         -0.4088   -1.0709   -1.4516 H         1 <0>         0.0976
      7 C4          1.7407   -1.1452   -1.7698 C.3       1 <0>        -0.1244
      8 C5          2.3670   -2.5038   -2.1539 C.3       1 <0>        -0.1223
      9 C6          1.1660   -3.4950   -2.1038 C.3       1 <0>        -0.0737
     10 H2          1.4899   -4.5299   -1.9935 H         1 <0>         0.0829
     11 C7          0.4004   -2.9943   -0.8673 C.3       1 <0>        -0.0407
     12 C8         -1.0207   -3.5071   -0.8081 C.3       1 <0>        -0.1123
     13 C9         -1.7683   -3.1793   -2.0983 C.3       1 <0>        -0.1175
     14 C10        -1.0459   -3.8507   -3.2745 C.3       1 <0>        -0.0667
     15 H3         -0.9986   -4.9272   -3.1103 H         1 <0>         0.0717
     16 C11         0.3717   -3.2785   -3.3960 C.3       1 <0>        -0.0708
     17 H4          0.3106   -2.2124   -3.6145 H         1 <0>         0.0763
     18 C12         1.1107   -4.0102   -4.5263 C.3       1 <0>        -0.0821
     19 C13         0.2938   -3.9738   -5.7820 C.2       1 <0>        -0.1627
     20 C14        -0.9864   -3.7828   -5.7988 C.2       1 <0>        -0.1021
     21 C15        -1.8350   -3.5593   -4.5461 C.3       1 <0>        -0.0110
     22 C16        -2.3926   -2.1380   -4.5307 C.3       1 <0>        -0.0938
     23 C17        -2.5555   -1.6245   -5.9608 C.3       1 <0>        -0.1107
     24 C18        -2.9506   -2.7543   -6.9097 C.3       1 <0>         0.1068
     25 H5         -3.2486   -2.3343   -7.8703 H         1 <0>         0.0524
     26 C19        -1.7239   -3.7357   -7.1273 C.3       1 <0>        -0.1206
     27 O2         -4.0432   -3.4859   -6.3502 O.3       1 <0>        -0.5515
     28 C20        -3.0218   -4.5231   -4.6048 C.3       1 <0>        -0.1339
     29 C21         1.1322   -3.4613    0.3926 C.3       1 <0>        -0.1508
     30 H6         -1.1773   -0.1194    1.3611 H         1 <0>         0.0783
     31 H7         -1.1470   -1.8866    1.1509 H         1 <0>         0.0815
     32 H8         -0.1562   -1.1240    2.4177 H         1 <0>         0.0761
     33 H9          2.6074    0.7379    2.2484 H         1 <0>         0.4008
     34 H10         1.4731   -0.5895   -2.6685 H         1 <0>         0.0644
     35 H11         2.4415   -0.5674   -1.1673 H         1 <0>         0.0865
     36 H12         2.7865   -2.4613   -3.1590 H         1 <0>         0.0684
     37 H13         3.1307   -2.7911   -1.4312 H         1 <0>         0.0643
     38 H14        -1.0066   -4.5877   -0.6662 H         1 <0>         0.0664
     39 H15        -1.5352   -3.0421    0.0328 H         1 <0>         0.0663
     40 H16        -2.7894   -3.5552   -2.0343 H         1 <0>         0.0662
     41 H17        -1.7834   -2.0996   -2.2473 H         1 <0>         0.0683
     42 H18         2.0701   -3.5245   -4.7049 H         1 <0>         0.0696
     43 H19         1.2808   -5.0468   -4.2355 H         1 <0>         0.0704
     44 H20         0.8010   -4.1143   -6.7251 H         1 <0>         0.0992
     45 H21        -3.3623   -2.1352   -4.0328 H         1 <0>         0.0688
     46 H22        -1.7075   -1.4865   -3.9883 H         1 <0>         0.0599
     47 H23        -3.3282   -0.8558   -5.9788 H         1 <0>         0.0651
     48 H24        -1.6129   -1.1905   -6.2944 H         1 <0>         0.0716
     49 H25        -1.0654   -3.3491   -7.9051 H         1 <0>         0.0751
     50 H26        -2.0726   -4.7331   -7.3951 H         1 <0>         0.0778
     51 H27        -4.3066   -4.2579   -6.8696 H         1 <0>         0.3732
     52 H28        -3.9184   -4.0177   -4.2458 H         1 <0>         0.0613
     53 H29        -3.1754   -4.8481   -5.6338 H         1 <0>         0.0748
     54 H30        -2.8173   -5.3901   -3.9767 H         1 <0>         0.0294
     55 H31         0.5913   -3.1191    1.2749 H         1 <0>         0.0571
     56 H32         1.1862   -4.5499    0.3990 H         1 <0>         0.0565
     57 H33         2.1406   -3.0474    0.4015 H         1 <0>         0.0583
@<TRIPOS>BOND
     1    1    2 1
     2    1   30 1
     3    1   31 1
     4    1   32 1
     5    2    3 2
     6    2    5 1
     7    3    4 1
     8    4   33 1
     9    5    6 1
    10    5   11 1
    11    5    7 1
    12    7    8 1
    13    7   34 1
    14    7   35 1
    15    8    9 1
    16    8   36 1
    17    8   37 1
    18    9   10 1
    19    9   16 1
    20    9   11 1
    21   11   12 1
    22   11   29 1
    23   12   13 1
    24   12   38 1
    25   12   39 1
    26   13   14 1
    27   13   40 1
    28   13   41 1
    29   14   15 1
    30   14   21 1
    31   14   16 1
    32   16   17 1
    33   16   18 1
    34   18   19 1
    35   18   42 1
    36   18   43 1
    37   19   20 2
    38   19   44 1
    39   20   26 1
    40   20   21 1
    41   21   22 1
    42   21   28 1
    43   22   23 1
    44   22   45 1
    45   22   46 1
    46   23   24 1
    47   23   47 1
    48   23   48 1
    49   24   25 1
    50   24   26 1
    51   24   27 1
    52   26   49 1
    53   26   50 1
    54   27   51 1
    55   28   52 1
    56   28   53 1
    57   28   54 1
    58   29   55 1
    59   29   56 1
    60   29   57 1
@<TRIPOS>MOLECULE
ZINC27518641
   55    58     0     0     0
SMALL
USER_CHARGES

@<TRIPOS>ATOM
      1 C1          0.1133    1.7586    0.6125 C.3       1 <0>        -0.1477
      2 C2          0.1607    0.2599    0.4620 C.2       1 <0>         0.1791
      3 N1          0.2387   -0.4943    1.5123 N.2       1 <0>        -0.3220
      4 O1          0.2794    0.0894    2.8018 O.3       1 <0>        -0.4148
      5 C3          0.1186   -0.3457   -0.8757 C.2       1 <0>        -0.0849
      6 C4          0.0446    0.3273   -2.0262 C.2       1 <0>        -0.1152
      7 C5          0.0197   -0.6421   -3.1945 C.3       1 <0>        -0.1031
      8 C6         -0.5131   -1.9604   -2.5458 C.3       1 <0>        -0.0768
      9 H1         -0.2009   -2.8580   -3.0797 H         1 <0>         0.0916
     10 C7          0.1586   -1.8232   -1.1650 C.3       1 <0>        -0.0114
     11 C8         -0.4979   -2.6645   -0.0979 C.3       1 <0>        -0.1150
     12 C9         -1.9990   -2.3947   -0.0337 C.3       1 <0>        -0.1068
     13 C10        -2.6215   -2.7416   -1.3940 C.3       1 <0>        -0.0675
     14 H2         -2.4149   -3.7836   -1.6383 H         1 <0>         0.0708
     15 C11        -2.0359   -1.8133   -2.4786 C.3       1 <0>        -0.0678
     16 H3         -2.2936   -0.7786   -2.2526 H         1 <0>         0.0754
     17 C12        -2.6051   -2.2091   -3.8490 C.3       1 <0>        -0.0810
     18 C13        -4.1024   -2.2339   -3.7949 C.2       1 <0>        -0.1668
     19 C14        -4.7769   -2.3661   -2.6976 C.2       1 <0>        -0.1015
     20 C15        -4.1276   -2.5253   -1.2932 C.3       1 <0>        -0.0086
     21 C16        -4.4471   -1.3052   -0.4327 C.3       1 <0>        -0.0930
     22 C17        -5.7811   -0.6960   -0.8621 C.3       1 <0>        -0.1100
     23 C18        -6.7582   -1.7774   -1.3193 C.3       1 <0>         0.1059
     24 H4         -7.7522   -1.3445   -1.4320 H         1 <0>         0.0508
     25 C19        -6.2964   -2.3538   -2.7430 C.3       1 <0>        -0.1188
     26 O2         -6.8016   -2.8224   -0.3455 O.3       1 <0>        -0.5460
     27 C20        -4.7422   -3.7485   -0.6099 C.3       1 <0>        -0.1337
     28 C21         1.6209   -2.2572   -1.2846 C.3       1 <0>        -0.1417
     29 H5          1.1277    2.1574    0.5995 H         1 <0>         0.0814
     30 H6         -0.4567    2.1886   -0.2111 H         1 <0>         0.0756
     31 H7         -0.3654    2.0139    1.5579 H         1 <0>         0.0796
     32 H8          0.3374   -0.5527    3.5225 H         1 <0>         0.4029
     33 H9          0.0078    1.4032   -2.1131 H         1 <0>         0.1323
     34 H10        -0.6604   -0.2924   -3.9712 H         1 <0>         0.0781
     35 H11         1.0226   -0.7879   -3.5959 H         1 <0>         0.0832
     36 H12        -0.3330   -3.7185   -0.3213 H         1 <0>         0.0567
     37 H13        -0.0506   -2.4301    0.8681 H         1 <0>         0.0880
     38 H14        -2.4487   -3.0137    0.7426 H         1 <0>         0.0596
     39 H15        -2.1719   -1.3419    0.1895 H         1 <0>         0.0639
     40 H16        -2.2821   -1.4856   -4.5975 H         1 <0>         0.0688
     41 H17        -2.2366   -3.1981   -4.1217 H         1 <0>         0.0704
     42 H18        -4.6486   -2.1358   -4.7214 H         1 <0>         0.0995
     43 H19        -4.5070   -1.6061    0.6133 H         1 <0>         0.0663
     44 H20        -3.6568   -0.5636   -0.5491 H         1 <0>         0.0587
     45 H21        -6.2144   -0.1550   -0.0209 H         1 <0>         0.0637
     46 H22        -5.6085    0.0000   -1.6830 H         1 <0>         0.0712
     47 H23        -6.6391   -1.7267   -3.5661 H         1 <0>         0.0777
     48 H24        -6.6733   -3.3692   -2.8656 H         1 <0>         0.0755
     49 H25        -7.4711   -3.4973   -0.5226 H         1 <0>         0.3710
     50 H26        -4.9038   -3.5319    0.4461 H         1 <0>         0.0597
     51 H27        -5.6953   -3.9876   -1.0817 H         1 <0>         0.0784
     52 H28        -4.0655   -4.5974   -0.7073 H         1 <0>         0.0293
     53 H29         2.1333   -2.0717   -0.3407 H         1 <0>         0.0556
     54 H30         1.6662   -3.3206   -1.5198 H         1 <0>         0.0581
     55 H31         2.1048   -1.6885   -2.0787 H         1 <0>         0.0552
@<TRIPOS>BOND
     1    1    2 1
     2    1   29 1
     3    1   30 1
     4    1   31 1
     5    2    3 2
     6    2    5 1
     7    3    4 1
     8    4   32 1
     9    5   10 1
    10    5    6 2
    11    6    7 1
    12    6   33 1
    13    7    8 1
    14    7   34 1
    15    7   35 1
    16    8    9 1
    17    8   15 1
    18    8   10 1
    19   10   11 1
    20   10   28 1
    21   11   12 1
    22   11   36 1
    23   11   37 1
    24   12   13 1
    25   12   38 1
    26   12   39 1
    27   13   14 1
    28   13   20 1
    29   13   15 1
    30   15   16 1
    31   15   17 1
    32   17   18 1
    33   17   40 1
    34   17   41 1
    35   18   19 2
    36   18   42 1
    37   19   25 1
    38   19   20 1
    39   20   21 1
    40   20   27 1
    41   21   22 1
    42   21   43 1
    43   21   44 1
    44   22   23 1
    45   22   45 1
    46   22   46 1
    47   23   24 1
    48   23   25 1
    49   23   26 1
    50   25   47 1
    51   25   48 1
    52   26   49 1
    53   27   50 1
    54   27   51 1
    55   27   52 1
    56   28   53 1
    57   28   54 1
    58   28   55 1
@<TRIPOS>MOLECULE
ZINC27518642
   55    58     0     0     0
SMALL
USER_CHARGES

@<TRIPOS>ATOM
      1 C1         -0.0221    1.4106    0.2307 C.3       1 <0>        -0.1475
      2 C2         -0.0090   -0.0931    0.1325 C.2       1 <0>         0.1779
      3 N1         -0.0099   -0.8125    1.2098 N.2       1 <0>        -0.3242
      4 O1         -0.0234   -0.1860    2.4796 O.3       1 <0>        -0.4128
      5 C3          0.0049   -0.7408   -1.1802 C.2       1 <0>        -0.0968
      6 C4          0.0449   -0.1265   -2.3761 C.2       1 <0>        -0.1152
      7 C5          0.0056   -1.1747   -3.4933 C.3       1 <0>        -0.0935
      8 C6         -0.7443   -2.3062   -2.7663 C.3       1 <0>        -0.0730
      9 H1         -1.7965   -1.9847   -2.6131 H         1 <0>         0.0774
     10 C7          0.0189   -2.2342   -1.4218 C.3       1 <0>        -0.0109
     11 C8         -0.6586   -3.1005   -0.3963 C.3       1 <0>        -0.0932
     12 C9         -1.0921   -4.4445   -1.0037 C.3       1 <0>        -0.1096
     13 C10        -0.4029   -4.7454   -2.3223 C.3       1 <0>        -0.0698
     14 H2          0.6778   -4.8071   -2.1707 H         1 <0>         0.0780
     15 C11        -0.7235   -3.6696   -3.3675 C.3       1 <0>        -0.0668
     16 H3         -1.7351   -3.8881   -3.7711 H         1 <0>         0.0682
     17 C12         0.2673   -3.8445   -4.5207 C.3       1 <0>        -0.0782
     18 C13         0.0809   -5.2436   -5.0510 C.2       1 <0>        -0.1634
     19 C14        -0.4095   -6.2152   -4.3457 C.2       1 <0>        -0.0991
     20 C15        -0.8025   -6.1030   -2.8921 C.3       1 <0>        -0.0126
     21 C16        -2.2953   -6.3714   -2.7667 C.3       1 <0>        -0.1005
     22 C17        -2.8499   -6.9082   -4.0857 C.3       1 <0>        -0.1087
     23 C18        -2.0157   -8.0582   -4.6379 C.3       1 <0>         0.1123
     24 H4         -2.4959   -8.4418   -5.5451 H         1 <0>         0.0501
     25 C19        -0.6038   -7.5765   -4.9915 C.3       1 <0>        -0.1213
     26 O2         -1.9448   -9.1141   -3.6784 O.3       1 <0>        -0.5619
     27 C20        -0.0411   -7.1726   -2.1021 C.3       1 <0>        -0.1453
     28 C21         1.4964   -2.6113   -1.5541 C.3       1 <0>        -0.1456
     29 H5          1.0023    1.7818    0.2610 H         1 <0>         0.0814
     30 H6         -0.5339    1.8269   -0.6370 H         1 <0>         0.0761
     31 H7         -0.5444    1.7109    1.1391 H         1 <0>         0.0791
     32 H8         -0.0230   -0.8042    3.2232 H         1 <0>         0.4035
     33 H9          0.0997    0.9393   -2.5294 H         1 <0>         0.1334
     34 H10        -0.5870   -0.8058   -4.3349 H         1 <0>         0.0741
     35 H11         0.9946   -1.4642   -3.8170 H         1 <0>         0.0930
     36 H12         0.0254   -3.2837    0.4430 H         1 <0>         0.0663
     37 H13        -1.5433   -2.5825    0.0002 H         1 <0>         0.0590
     38 H14        -0.8791   -5.2425   -0.2826 H         1 <0>         0.0611
     39 H15        -2.1793   -4.4232   -1.1548 H         1 <0>         0.0597
     40 H16         0.0506   -3.1269   -5.3092 H         1 <0>         0.0726
     41 H17         1.2869   -3.7231   -4.1681 H         1 <0>         0.0748
     42 H18         0.3710   -5.4436   -6.0703 H         1 <0>         0.1015
     43 H19        -2.4719   -7.1002   -1.9751 H         1 <0>         0.0698
     44 H20        -2.8160   -5.4437   -2.5199 H         1 <0>         0.0654
     45 H21        -3.8718   -7.2605   -3.9187 H         1 <0>         0.0638
     46 H22        -2.8793   -6.0991   -4.8169 H         1 <0>         0.0734
     47 H23        -0.5117   -7.4804   -6.0782 H         1 <0>         0.0707
     48 H24         0.1410   -8.2838   -4.6320 H         1 <0>         0.0811
     49 H25        -1.4268   -9.8767   -3.9703 H         1 <0>         0.3755
     50 H26        -0.3106   -7.1065   -1.0480 H         1 <0>         0.0545
     51 H27        -0.3023   -8.1601   -2.4826 H         1 <0>         0.0707
     52 H28         1.0312   -7.0122   -2.2137 H         1 <0>         0.0469
     53 H29         2.0499   -2.2163   -0.7022 H         1 <0>         0.0537
     54 H30         1.5935   -3.6966   -1.5789 H         1 <0>         0.0659
     55 H31         1.8979   -2.1894   -2.4755 H         1 <0>         0.0590
@<TRIPOS>BOND
     1    1    2 1
     2    1   29 1
     3    1   30 1
     4    1   31 1
     5    2    3 2
     6    2    5 1
     7    3    4 1
     8    4   32 1
     9    5   10 1
    10    5    6 2
    11    6    7 1
    12    6   33 1
    13    7    8 1
    14    7   34 1
    15    7   35 1
    16    8    9 1
    17    8   15 1
    18    8   10 1
    19   10   11 1
    20   10   28 1
    21   11   12 1
    22   11   36 1
    23   11   37 1
    24   12   13 1
    25   12   38 1
    26   12   39 1
    27   13   14 1
    28   13   20 1
    29   13   15 1
    30   15   16 1
    31   15   17 1
    32   17   18 1
    33   17   40 1
    34   17   41 1
    35   18   19 2
    36   18   42 1
    37   19   25 1
    38   19   20 1
    39   20   21 1
    40   20   27 1
    41   21   22 1
    42   21   43 1
    43   21   44 1
    44   22   23 1
    45   22   45 1
    46   22   46 1
    47   23   24 1
    48   23   25 1
    49   23   26 1
    50   25   47 1
    51   25   48 1
    52   26   49 1
    53   27   50 1
    54   27   51 1
    55   27   52 1
    56   28   53 1
    57   28   54 1
    58   28   55 1
@<TRIPOS>MOLECULE
ZINC35052489
   55    58     0     0     0
SMALL
USER_CHARGES

@<TRIPOS>ATOM
      1 C1         -0.4048    1.4290    0.2802 C.3       1 <0>        -0.1476
      2 C2         -0.2592   -0.0698    0.3385 C.2       1 <0>         0.1779
      3 N1         -0.1264   -0.6637    1.4821 N.2       1 <0>        -0.3252
      4 O1         -0.1179    0.0955    2.6774 O.3       1 <0>        -0.4144
      5 C3         -0.2680   -0.8575   -0.9015 C.2       1 <0>        -0.0976
      6 C4         -0.3921   -0.3528   -2.1277 C.2       1 <0>        -0.1152
      7 C5         -0.3720   -1.4719   -3.1571 C.3       1 <0>        -0.0966
      8 C6         -0.8068   -2.6952   -2.3239 C.3       1 <0>        -0.0731
      9 H1         -1.8894   -2.6764   -2.1984 H         1 <0>         0.0759
     10 C7         -0.1294   -2.3775   -0.9771 C.3       1 <0>        -0.0073
     11 C8          1.3728   -2.6666   -1.0364 C.3       1 <0>        -0.1027
     12 C9          1.6282   -4.0890   -1.5212 C.3       1 <0>        -0.1153
     13 C10         1.1088   -4.2189   -2.9592 C.3       1 <0>        -0.0641
     14 H2          1.5799   -3.4651   -3.5900 H         1 <0>         0.0727
     15 C11        -0.4011   -4.0071   -2.9394 C.3       1 <0>        -0.0668
     16 H3         -0.8734   -4.8196   -2.3871 H         1 <0>         0.0722
     17 C12        -0.8868   -4.0602   -4.3952 C.3       1 <0>        -0.0842
     18 C13        -0.4046   -5.3209   -5.0477 C.2       1 <0>        -0.1622
     19 C14         0.6114   -6.0034   -4.6258 C.2       1 <0>        -0.0960
     20 C15         1.4525   -5.6103   -3.4764 C.3       1 <0>        -0.0139
     21 C16         1.2905   -6.6605   -2.3800 C.3       1 <0>        -0.0947
     22 C17         0.9592   -8.0170   -3.0016 C.3       1 <0>        -0.1131
     23 C18         1.6624   -8.1929   -4.3462 C.3       1 <0>         0.1051
     24 H4          1.5713   -9.2293   -4.6710 H         1 <0>         0.0541
     25 C19         1.0069   -7.2868   -5.3380 C.3       1 <0>        -0.1189
     26 O2          3.0444   -7.8566   -4.2084 O.3       1 <0>        -0.5492
     27 C20         2.9194   -5.6125   -3.9114 C.3       1 <0>        -0.1316
     28 C21        -0.8162   -3.0827    0.1941 C.3       1 <0>        -0.1380
     29 H5          0.5809    1.8868    0.1977 H         1 <0>         0.0818
     30 H6         -1.0061    1.7021   -0.5869 H         1 <0>         0.0763
     31 H7         -0.8946    1.7820    1.1877 H         1 <0>         0.0795
     32 H8         -0.0140   -0.4347    3.4794 H         1 <0>         0.4031
     33 H9         -0.4928    0.6977   -2.3574 H         1 <0>         0.1332
     34 H10        -1.0852   -1.2750   -3.9576 H         1 <0>         0.0778
     35 H11         0.6321   -1.6125   -3.5571 H         1 <0>         0.0866
     36 H12         1.8472   -1.9633   -1.7209 H         1 <0>         0.0607
     37 H13         1.8018   -2.5436   -0.0420 H         1 <0>         0.0620
     38 H14         2.6980   -4.2965   -1.4986 H         1 <0>         0.0639
     39 H15         1.1028   -4.7945   -0.8775 H         1 <0>         0.0685
     40 H16        -1.9764   -4.0363   -4.4145 H         1 <0>         0.0680
     41 H17        -0.4972   -3.1993   -4.9385 H         1 <0>         0.0741
     42 H18        -0.9343   -5.6798   -5.9178 H         1 <0>         0.1000
     43 H19         2.2187   -6.7389   -1.8140 H         1 <0>         0.0674
     44 H20         0.4839   -6.3628   -1.7101 H         1 <0>         0.0602
     45 H21         1.2797   -8.8085   -2.3242 H         1 <0>         0.0628
     46 H22        -0.1184   -8.0889   -3.1495 H         1 <0>         0.0713
     47 H23         0.1252   -7.7594   -5.7709 H         1 <0>         0.0773
     48 H24         1.7358   -7.0700   -6.1189 H         1 <0>         0.0746
     49 H25         3.5734   -8.0359   -4.9978 H         1 <0>         0.3704
     50 H26         3.5318   -6.0485   -3.1221 H         1 <0>         0.0612
     51 H27         3.0274   -6.2014   -4.8222 H         1 <0>         0.0787
     52 H28         3.2441   -4.5891   -4.0997 H         1 <0>         0.0293
     53 H29        -1.8739   -2.8197    0.2068 H         1 <0>         0.0495
     54 H30        -0.7113   -4.1616    0.0806 H         1 <0>         0.0537
     55 H31        -0.3526   -2.7689    1.1294 H         1 <0>         0.0778
@<TRIPOS>BOND
     1    1    2 1
     2    1   29 1
     3    1   30 1
     4    1   31 1
     5    2    3 2
     6    2    5 1
     7    3    4 1
     8    4   32 1
     9    5   10 1
    10    5    6 2
    11    6    7 1
    12    6   33 1
    13    7    8 1
    14    7   34 1
    15    7   35 1
    16    8    9 1
    17    8   15 1
    18    8   10 1
    19   10   11 1
    20   10   28 1
    21   11   12 1
    22   11   36 1
    23   11   37 1
    24   12   13 1
    25   12   38 1
    26   12   39 1
    27   13   14 1
    28   13   20 1
    29   13   15 1
    30   15   16 1
    31   15   17 1
    32   17   18 1
    33   17   40 1
    34   17   41 1
    35   18   19 2
    36   18   42 1
    37   19   25 1
    38   19   20 1
    39   20   21 1
    40   20   27 1
    41   21   22 1
    42   21   43 1
    43   21   44 1
    44   22   23 1
    45   22   45 1
    46   22   46 1
    47   23   24 1
    48   23   25 1
    49   23   26 1
    50   25   47 1
    51   25   48 1
    52   26   49 1
    53   27   50 1
    54   27   51 1
    55   27   52 1
    56   28   53 1
    57   28   54 1
    58   28   55 1
@<TRIPOS>MOLECULE
ZINC35052491
   55    58     0     0     0
SMALL
USER_CHARGES

@<TRIPOS>ATOM
      1 C1         -0.4391    2.0793   -0.1781 C.3       1 <0>        -0.1473
      2 C2         -0.3022    0.5811   -0.0900 C.2       1 <0>         0.1788
      3 N1         -0.1222    0.0137    1.0605 N.2       1 <0>        -0.3257
      4 O1         -0.0541    0.8012    2.2354 O.3       1 <0>        -0.4130
      5 C3         -0.3729   -0.2359   -1.3088 C.2       1 <0>        -0.0875
      6 C4         -0.5499    0.2314   -2.5580 C.2       1 <0>        -0.1123
      7 C5         -0.5347   -0.9313   -3.5505 C.3       1 <0>        -0.0934
      8 C6          0.3029   -1.9746   -2.7976 C.3       1 <0>        -0.0845
      9 H1          1.3668   -1.7447   -2.8555 H         1 <0>         0.0825
     10 C7         -0.2540   -1.7223   -1.3689 C.3       1 <0>        -0.0225
     11 C8          0.6785   -2.4223   -0.4067 C.3       1 <0>        -0.1010
     12 C9          0.5524   -3.9290   -0.6844 C.3       1 <0>        -0.1185
     13 C10         0.8558   -4.2774   -2.1389 C.3       1 <0>        -0.0667
     14 H2          1.9131   -4.0968   -2.3325 H         1 <0>         0.0665
     15 C11         0.0371   -3.4295   -3.1364 C.3       1 <0>        -0.0711
     16 H3         -1.0259   -3.6554   -3.0533 H         1 <0>         0.0859
     17 C12         0.5560   -3.7204   -4.5505 C.3       1 <0>        -0.0806
     18 C13         0.5217   -5.1978   -4.8072 C.2       1 <0>        -0.1640
     19 C14         0.5172   -6.0875   -3.8663 C.2       1 <0>        -0.1014
     20 C15         0.5561   -5.7524   -2.3731 C.3       1 <0>        -0.0107
     21 C16        -0.7523   -6.1620   -1.7019 C.3       1 <0>        -0.0952
     22 C17        -1.3793   -7.3371   -2.4514 C.3       1 <0>        -0.1100
     23 C18        -0.3055   -8.2656   -3.0153 C.3       1 <0>         0.1064
     24 H4         -0.7706   -9.1855   -3.3696 H         1 <0>         0.0524
     25 C19         0.4486   -7.5630   -4.2257 C.3       1 <0>        -0.1199
     26 O2          0.6420   -8.5749   -1.9913 O.3       1 <0>        -0.5506
     27 C20         1.6797   -6.5757   -1.7400 C.3       1 <0>        -0.1341
     28 C21        -1.6460   -2.3472   -1.2555 C.3       1 <0>        -0.1489
     29 H5          0.5452    2.5266   -0.3161 H         1 <0>         0.0818
     30 H6         -1.0770    2.3367   -1.0237 H         1 <0>         0.0762
     31 H7         -0.8847    2.4582    0.7417 H         1 <0>         0.0793
     32 H8          0.0821    0.2895    3.0445 H         1 <0>         0.4034
     33 H9         -0.6831    1.2707   -2.8200 H         1 <0>         0.1346
     34 H10        -1.5437   -1.3002   -3.7345 H         1 <0>         0.0868
     35 H11        -0.0507   -0.6417   -4.4832 H         1 <0>         0.0762
     36 H12         1.7043   -2.0962   -0.5780 H         1 <0>         0.0572
     37 H13         0.3844   -2.2068    0.6206 H         1 <0>         0.0788
     38 H14         1.2480   -4.4665   -0.0399 H         1 <0>         0.0605
     39 H15        -0.4629   -4.2480   -0.4491 H         1 <0>         0.0710
     40 H16        -0.0737   -3.2108   -5.2798 H         1 <0>         0.0699
     41 H17         1.5806   -3.3600   -4.6422 H         1 <0>         0.0708
     42 H18         0.4993   -5.5379   -5.8320 H         1 <0>         0.1000
     43 H19        -0.5538   -6.4550   -0.6710 H         1 <0>         0.0689
     44 H20        -1.4425   -5.3183   -1.7098 H         1 <0>         0.0601
     45 H21        -2.0149   -7.8994   -1.7673 H         1 <0>         0.0655
     46 H22        -1.9878   -6.9548   -3.2709 H         1 <0>         0.0721
     47 H23        -0.1069   -7.6946   -5.1543 H         1 <0>         0.0761
     48 H24         1.4551   -7.9675   -4.3323 H         1 <0>         0.0775
     49 H25         1.3648   -9.1467   -2.2840 H         1 <0>         0.3726
     50 H26         1.3562   -6.9437   -0.7664 H         1 <0>         0.0616
     51 H27         1.9199   -7.4200   -2.3862 H         1 <0>         0.0759
     52 H28         2.5635   -5.9497   -1.6165 H         1 <0>         0.0288
     53 H29        -2.3074   -1.8980   -1.9964 H         1 <0>         0.0535
     54 H30        -1.5780   -3.4206   -1.4325 H         1 <0>         0.0738
     55 H31        -2.0444   -2.1682   -0.2569 H         1 <0>         0.0536
@<TRIPOS>BOND
     1    1    2 1
     2    1   29 1
     3    1   30 1
     4    1   31 1
     5    2    3 2
     6    2    5 1
     7    3    4 1
     8    4   32 1
     9    5   10 1
    10    5    6 2
    11    6    7 1
    12    6   33 1
    13    7    8 1
    14    7   34 1
    15    7   35 1
    16    8    9 1
    17    8   15 1
    18    8   10 1
    19   10   11 1
    20   10   28 1
    21   11   12 1
    22   11   36 1
    23   11   37 1
    24   12   13 1
    25   12   38 1
    26   12   39 1
    27   13   14 1
    28   13   20 1
    29   13   15 1
    30   15   16 1
    31   15   17 1
    32   17   18 1
    33   17   40 1
    34   17   41 1
    35   18   19 2
    36   18   42 1
    37   19   25 1
    38   19   20 1
    39   20   21 1
    40   20   27 1
    41   21   22 1
    42   21   43 1
    43   21   44 1
    44   22   23 1
    45   22   45 1
    46   22   46 1
    47   23   24 1
    48   23   25 1
    49   23   26 1
    50   25   47 1
    51   25   48 1
    52   26   49 1
    53   27   50 1
    54   27   51 1
    55   27   52 1
    56   28   53 1
    57   28   54 1
    58   28   55 1
@<TRIPOS>MOLECULE
ZINC05275235
   57    60     0     0     0
SMALL
USER_CHARGES
17-(1-hydroxyethyl)-10,13-dimethyl-2,3,4,7,8,9,11,12,14,15,16,17-dodecahydro-1H-cyclopenta[a]phenanthren-3-ol
@<TRIPOS>ATOM
      1 C1         -4.7752   -4.3159    4.6057 C.3       1 <0>        -0.1896
      2 C2         -3.6655   -3.9808    3.6073 C.3       1 <0>         0.1112
      3 H1         -3.9004   -3.0428    3.1042 H         1 <0>         0.0979
      4 C3         -2.3408   -3.8421    4.3478 C.3       1 <0>        -0.1174
      5 H2         -2.0506   -4.7826    4.8093 H         1 <0>         0.0729
      6 C4         -2.4490   -2.7262    5.4216 C.3       1 <0>        -0.1236
      7 C5         -1.7372   -1.4789    4.8336 C.3       1 <0>        -0.1192
      8 C6         -1.5353   -1.8394    3.3537 C.3       1 <0>        -0.0718
      9 H3         -2.5111   -1.7050    2.8422 H         1 <0>         0.0657
     10 C7         -1.2094   -3.3439    3.4287 C.3       1 <0>        -0.0366
     11 C8         -1.1225   -3.9754    2.0659 C.3       1 <0>        -0.1256
     12 C9         -0.6172   -2.9631    1.0219 C.3       1 <0>        -0.1063
     13 C10         0.3078   -1.9443    1.6709 C.3       1 <0>        -0.0713
     14 H4          1.0823   -2.4617    2.2393 H         1 <0>         0.0753
     15 C11        -0.5133   -1.0432    2.6057 C.3       1 <0>        -0.0687
     16 H5         -1.0418   -0.3006    1.9740 H         1 <0>         0.0647
     17 C12         0.4763   -0.2799    3.4850 C.3       1 <0>        -0.0780
     18 C13         1.3633    0.5122    2.5563 C.2       1 <0>        -0.1648
     19 C14         1.5870    0.1727    1.3239 C.2       1 <0>        -0.0998
     20 C15         1.0293   -1.0646    0.6596 C.3       1 <0>        -0.0114
     21 C16         0.1175   -0.6321   -0.4822 C.3       1 <0>        -0.1007
     22 C17         0.2261    0.8757   -0.7038 C.3       1 <0>        -0.1087
     23 C18         1.6744    1.3314   -0.8454 C.3       1 <0>         0.1122
     24 H6          1.6902    2.4051   -1.0629 H         1 <0>         0.0501
     25 C19         2.4448    1.0775    0.4560 C.3       1 <0>        -0.1217
     26 O1          2.3002    0.6360   -1.9249 O.3       1 <0>        -0.5622
     27 C20         2.1964   -1.8725    0.0810 C.3       1 <0>        -0.1419
     28 C21         0.0968   -3.5982    4.2033 C.3       1 <0>        -0.1499
     29 O2         -3.5630   -5.0275    2.6399 O.3       1 <0>        -0.5548
     30 H7         -4.8534   -3.5175    5.3437 H         1 <0>         0.0692
     31 H8         -5.7227   -4.4151    4.0761 H         1 <0>         0.0624
     32 H9         -4.5403   -5.2539    5.1088 H         1 <0>         0.0573
     33 H10        -3.4976   -2.5017    5.6157 H         1 <0>         0.0685
     34 H11        -1.9571   -3.0437    6.3397 H         1 <0>         0.0641
     35 H12        -2.3799   -0.5990    4.9221 H         1 <0>         0.0604
     36 H13        -0.7878   -1.2976    5.3321 H         1 <0>         0.0704
     37 H14        -2.0785   -4.3787    1.7300 H         1 <0>         0.1045
     38 H15        -0.4127   -4.8192    2.1029 H         1 <0>         0.0491
     39 H16        -1.4788   -2.4503    0.5836 H         1 <0>         0.0584
     40 H17        -0.0916   -3.4985    0.2291 H         1 <0>         0.0594
     41 H18        -0.0578    0.4048    4.1410 H         1 <0>         0.0702
     42 H19         1.0846   -0.9659    4.0658 H         1 <0>         0.0738
     43 H20         1.8294    1.4047    2.9379 H         1 <0>         0.1005
     44 H21        -0.9173   -0.8787   -0.2368 H         1 <0>         0.0659
     45 H22         0.4024   -1.1547   -1.3949 H         1 <0>         0.0699
     46 H23        -0.3190    1.1383   -1.6133 H         1 <0>         0.0641
     47 H24        -0.2331    1.3951    0.1389 H         1 <0>         0.0729
     48 H25         2.6093    2.0280    0.9736 H         1 <0>         0.0698
     49 H26         3.4062    0.6143    0.2472 H         1 <0>         0.0810
     50 H27         3.2247    0.8812   -2.0674 H         1 <0>         0.3753
     51 H28         2.7535   -1.2534   -0.6222 H         1 <0>         0.0673
     52 H29         2.8562   -2.1877    0.8894 H         1 <0>         0.0466
     53 H30         1.8095   -2.7508   -0.4356 H         1 <0>         0.0546
     54 H31         0.9150   -3.0628    3.7217 H         1 <0>         0.0616
     55 H32        -0.0143   -3.2456    5.2287 H         1 <0>         0.0546
     56 H33         0.3144   -4.6662    4.2080 H         1 <0>         0.0501
     57 H34        -3.3552   -5.8931    3.0175 H         1 <0>         0.3722
@<TRIPOS>BOND
     1    1    2 1
     2    1   30 1
     3    1   31 1
     4    1   32 1
     5    2    3 1
     6    2    4 1
     7    2   29 1
     8    4    5 1
     9    4   10 1
    10    4    6 1
    11    6    7 1
    12    6   33 1
    13    6   34 1
    14    7    8 1
    15    7   35 1
    16    7   36 1
    17    8    9 1
    18    8   15 1
    19    8   10 1
    20   10   11 1
    21   10   28 1
    22   11   12 1
    23   11   37 1
    24   11   38 1
    25   12   13 1
    26   12   39 1
    27   12   40 1
    28   13   14 1
    29   13   20 1
    30   13   15 1
    31   15   16 1
    32   15   17 1
    33   17   18 1
    34   17   41 1
    35   17   42 1
    36   18   19 2
    37   18   43 1
    38   19   25 1
    39   19   20 1
    40   20   21 1
    41   20   27 1
    42   21   22 1
    43   21   44 1
    44   21   45 1
    45   22   23 1
    46   22   46 1
    47   22   47 1
    48   23   24 1
    49   23   25 1
    50   23   26 1
    51   25   48 1
    52   25   49 1
    53   26   50 1
    54   27   51 1
    55   27   52 1
    56   27   53 1
    57   28   54 1
    58   28   55 1
    59   28   56 1
    60   29   57 1
@<TRIPOS>MOLECULE
ZINC05275275
   57    60     0     0     0
SMALL
USER_CHARGES
17-(1-hydroxyethyl)-10,13-dimethyl-2,3,4,7,8,9,11,12,14,15,16,17-dodecahydro-1H-cyclopenta[a]phenanthren-3-ol
@<TRIPOS>ATOM
      1 C1          4.9174    4.7037   -0.4670 C.3       1 <0>        -0.1874
      2 C2          3.4689    4.4551   -0.8926 C.3       1 <0>         0.1108
      3 H1          3.3714    4.6234   -1.9651 H         1 <0>         0.0961
      4 C3          3.0828    3.0148   -0.5664 C.3       1 <0>        -0.1203
      5 H2          3.7448    2.3076   -1.0508 H         1 <0>         0.0792
      6 C4          3.0561    2.7928    0.9664 C.3       1 <0>        -0.1201
      7 C5          1.7253    2.0546    1.2816 C.3       1 <0>        -0.1147
      8 C6          1.2777    1.5525   -0.0984 C.3       1 <0>        -0.0736
      9 H3          1.9495    0.7098   -0.3756 H         1 <0>         0.0619
     10 C7          1.6227    2.7540   -1.0022 C.3       1 <0>        -0.0477
     11 C8          1.4674    2.3687   -2.4499 C.3       1 <0>        -0.1017
     12 C9          0.1428    1.6415   -2.7021 C.3       1 <0>        -0.1076
     13 C10        -0.7947    1.6571   -1.5098 C.3       1 <0>        -0.0684
     14 H4         -1.1268    2.6862   -1.3185 H         1 <0>         0.0784
     15 C11        -0.1366    1.0940   -0.2468 C.3       1 <0>        -0.0641
     16 H5         -0.1458   -0.0110   -0.3176 H         1 <0>         0.0642
     17 C12        -1.0278    1.4857    0.9386 C.3       1 <0>        -0.0787
     18 C13        -2.3923    0.9010    0.6830 C.2       1 <0>        -0.1632
     19 C14        -2.8373    0.6209   -0.5023 C.2       1 <0>        -0.1003
     20 C15        -2.0750    0.8694   -1.7817 C.3       1 <0>        -0.0128
     21 C16        -1.7970   -0.4726   -2.4469 C.3       1 <0>        -0.1005
     22 C17        -2.5630   -1.5862   -1.7333 C.3       1 <0>        -0.1089
     23 C18        -4.0396   -1.2485   -1.5595 C.3       1 <0>         0.1122
     24 H6         -4.5496   -2.1035   -1.1034 H         1 <0>         0.0503
     25 C19        -4.2038   -0.0270   -0.6469 C.3       1 <0>        -0.1211
     26 O1         -4.6329   -0.9879   -2.8325 O.3       1 <0>        -0.5622
     27 C20        -2.9514    1.7134   -2.7138 C.3       1 <0>        -0.1437
     28 C21         0.8282    4.0120   -0.6618 C.3       1 <0>        -0.1291
     29 O2          2.6054    5.3507   -0.1894 O.3       1 <0>        -0.5530
     30 H7          5.5760    4.0206   -1.0033 H         1 <0>         0.0634
     31 H8          5.1931    5.7322   -0.6999 H         1 <0>         0.0615
     32 H9          5.0149    4.5354    0.6055 H         1 <0>         0.0580
     33 H10         3.0828    3.7503    1.4850 H         1 <0>         0.0605
     34 H11         3.9037    2.1789    1.2690 H         1 <0>         0.0631
     35 H12         0.9967    2.7283    1.7215 H         1 <0>         0.0722
     36 H13         1.9134    1.2100    1.9488 H         1 <0>         0.0602
     37 H14         1.5124    3.2689   -3.0790 H         1 <0>         0.0580
     38 H15         2.3015    1.7184   -2.7489 H         1 <0>         0.0565
     39 H16        -0.3526    2.1078   -3.5646 H         1 <0>         0.0593
     40 H17         0.3633    0.6034   -2.9837 H         1 <0>         0.0597
     41 H18        -0.6211    1.0712    1.8580 H         1 <0>         0.0703
     42 H19        -1.1021    2.5666    1.0085 H         1 <0>         0.0748
     43 H20        -3.0285    0.7076    1.5311 H         1 <0>         0.1004
     44 H21        -2.1057   -0.4326   -3.4919 H         1 <0>         0.0697
     45 H22        -0.7300   -0.6952   -2.3969 H         1 <0>         0.0652
     46 H23        -2.1147   -1.7574   -0.7535 H         1 <0>         0.0731
     47 H24        -2.4759   -2.5043   -2.3200 H         1 <0>         0.0636
     48 H25        -4.5618   -0.3498    0.3354 H         1 <0>         0.0702
     49 H26        -4.9181    0.6737   -1.0745 H         1 <0>         0.0810
     50 H27        -5.5790   -0.7916   -2.7927 H         1 <0>         0.3755
     51 H28        -2.4163    1.9007   -3.6447 H         1 <0>         0.0543
     52 H29        -3.8759    1.1771   -2.9277 H         1 <0>         0.0691
     53 H30        -3.1852    2.6627   -2.2318 H         1 <0>         0.0474
     54 H31         1.0549    4.3198    0.3590 H         1 <0>         0.0614
     55 H32         1.1005    4.8113   -1.3512 H         1 <0>         0.0677
     56 H33        -0.2379    3.8034   -0.7502 H         1 <0>         0.0430
     57 H34         2.6403    5.2567    0.7724 H         1 <0>         0.3671
@<TRIPOS>BOND
     1    1    2 1
     2    1   30 1
     3    1   31 1
     4    1   32 1
     5    2    3 1
     6    2    4 1
     7    2   29 1
     8    4    5 1
     9    4   10 1
    10    4    6 1
    11    6    7 1
    12    6   33 1
    13    6   34 1
    14    7    8 1
    15    7   35 1
    16    7   36 1
    17    8    9 1
    18    8   15 1
    19    8   10 1
    20   10   11 1
    21   10   28 1
    22   11   12 1
    23   11   37 1
    24   11   38 1
    25   12   13 1
    26   12   39 1
    27   12   40 1
    28   13   14 1
    29   13   20 1
    30   13   15 1
    31   15   16 1
    32   15   17 1
    33   17   18 1
    34   17   41 1
    35   17   42 1
    36   18   19 2
    37   18   43 1
    38   19   25 1
    39   19   20 1
    40   20   21 1
    41   20   27 1
    42   21   22 1
    43   21   44 1
    44   21   45 1
    45   22   23 1
    46   22   46 1
    47   22   47 1
    48   23   24 1
    49   23   25 1
    50   23   26 1
    51   25   48 1
    52   25   49 1
    53   26   50 1
    54   27   51 1
    55   27   52 1
    56   27   53 1
    57   28   54 1
    58   28   55 1
    59   28   56 1
    60   29   57 1
@<TRIPOS>MOLECULE
ZINC05276062
   57    60     0     0     0
SMALL
USER_CHARGES
17-(1-hydroxyethyl)-10,13-dimethyl-2,3,4,7,8,9,11,12,14,15,16,17-dodecahydro-1H-cyclopenta[a]phenanthren-3-ol
@<TRIPOS>ATOM
      1 C1         -4.7038   -4.3058    4.5475 C.3       1 <0>        -0.1875
      2 C2         -3.6007   -3.9630    3.5443 C.3       1 <0>         0.1085
      3 H1         -3.5397   -4.7469    2.7894 H         1 <0>         0.1005
      4 C3         -2.2672   -3.8548    4.2730 C.3       1 <0>        -0.1187
      5 H2         -2.0895   -4.7297    4.8938 H         1 <0>         0.0778
      6 C4         -2.2384   -2.5664    5.1375 C.3       1 <0>        -0.1236
      7 C5         -1.3847   -1.5312    4.3576 C.3       1 <0>        -0.1179
      8 C6         -1.2300   -2.1629    2.9655 C.3       1 <0>        -0.0900
      9 H3         -2.1857   -2.0049    2.4224 H         1 <0>         0.1025
     10 C7         -1.0862   -3.6595    3.3028 C.3       1 <0>        -0.0383
     11 C8         -1.0812   -4.5218    2.0706 C.3       1 <0>        -0.1039
     12 C9         -0.4446   -3.7841    0.8801 C.3       1 <0>        -0.1063
     13 C10         0.5859   -2.7726    1.3600 C.3       1 <0>        -0.0703
     14 H4          1.2990   -3.2638    2.0274 H         1 <0>         0.0746
     15 C11        -0.1259   -1.6346    2.1053 C.3       1 <0>        -0.0665
     16 H5         -0.5685   -0.9606    1.3443 H         1 <0>         0.0639
     17 C12         0.9475   -0.8426    2.8528 C.3       1 <0>        -0.0788
     18 C13         1.9153   -0.3324    1.8139 C.2       1 <0>        -0.1640
     19 C14         2.0977   -0.9088    0.6659 C.2       1 <0>        -0.1000
     20 C15         1.4035   -2.1750    0.2223 C.3       1 <0>        -0.0109
     21 C16         0.5485   -1.8609   -0.9991 C.3       1 <0>        -0.1007
     22 C17         0.8335   -0.4441   -1.4953 C.3       1 <0>        -0.1087
     23 C18         2.3256   -0.1912   -1.6797 C.3       1 <0>         0.1122
     24 H6          2.4686    0.8105   -2.0979 H         1 <0>         0.0503
     25 C19         3.0528   -0.2770   -0.3325 C.3       1 <0>        -0.1215
     26 O1          2.8724   -1.1487   -2.5882 O.3       1 <0>        -0.5623
     27 C20         2.4733   -3.1998   -0.1744 C.3       1 <0>        -0.1425
     28 C21         0.1825   -3.9294    4.1320 C.3       1 <0>        -0.1507
     29 O2         -3.9012   -2.7165    2.9133 O.3       1 <0>        -0.5538
     30 H7         -4.7648   -3.5219    5.3024 H         1 <0>         0.0585
     31 H8         -5.6579   -4.3832    4.0262 H         1 <0>         0.0628
     32 H9         -4.4746   -5.2566    5.0288 H         1 <0>         0.0645
     33 H10        -1.7849   -2.7770    6.1049 H         1 <0>         0.0649
     34 H11        -3.2520   -2.1900    5.2727 H         1 <0>         0.0607
     35 H12        -0.4207   -1.3780    4.8354 H         1 <0>         0.0679
     36 H13        -1.9198   -0.5808    4.2816 H         1 <0>         0.0596
     37 H14        -2.0826   -4.8478    1.7845 H         1 <0>         0.0647
     38 H15        -0.4926   -5.4336    2.2695 H         1 <0>         0.0538
     39 H16        -1.2326   -3.2703    0.3221 H         1 <0>         0.0628
     40 H17         0.0269   -4.5148    0.2193 H         1 <0>         0.0597
     41 H18         0.4967    0.0016    3.3700 H         1 <0>         0.0696
     42 H19         1.4750   -1.4802    3.5548 H         1 <0>         0.0725
     43 H20         2.4806    0.5564    2.0402 H         1 <0>         0.0998
     44 H21        -0.5080   -1.9376   -0.7390 H         1 <0>         0.0667
     45 H22         0.7724   -2.5739   -1.7935 H         1 <0>         0.0692
     46 H23         0.3287   -0.2994   -2.4540 H         1 <0>         0.0638
     47 H24         0.4313    0.2739   -0.7799 H         1 <0>         0.0734
     48 H25         3.3186    0.7298    0.0041 H         1 <0>         0.0700
     49 H26         3.9591   -0.8726   -0.4266 H         1 <0>         0.0805
     50 H27         3.8200   -1.0421   -2.7487 H         1 <0>         0.3751
     51 H28         3.0976   -2.7854   -0.9659 H         1 <0>         0.0679
     52 H29         3.0921   -3.4329    0.6921 H         1 <0>         0.0464
     53 H30         1.9903   -4.1095   -0.5312 H         1 <0>         0.0540
     54 H31         1.0573   -3.5858    3.5800 H         1 <0>         0.0619
     55 H32         0.1177   -3.3948    5.0796 H         1 <0>         0.0554
     56 H33         0.2707   -4.9988    4.3234 H         1 <0>         0.0496
     57 H34        -3.9707   -1.9720    3.5265 H         1 <0>         0.3709
@<TRIPOS>BOND
     1    1    2 1
     2    1   30 1
     3    1   31 1
     4    1   32 1
     5    2    3 1
     6    2    4 1
     7    2   29 1
     8    4    5 1
     9    4   10 1
    10    4    6 1
    11    6    7 1
    12    6   33 1
    13    6   34 1
    14    7    8 1
    15    7   35 1
    16    7   36 1
    17    8    9 1
    18    8   15 1
    19    8   10 1
    20   10   11 1
    21   10   28 1
    22   11   12 1
    23   11   37 1
    24   11   38 1
    25   12   13 1
    26   12   39 1
    27   12   40 1
    28   13   14 1
    29   13   20 1
    30   13   15 1
    31   15   16 1
    32   15   17 1
    33   17   18 1
    34   17   41 1
    35   17   42 1
    36   18   19 2
    37   18   43 1
    38   19   25 1
    39   19   20 1
    40   20   21 1
    41   20   27 1
    42   21   22 1
    43   21   44 1
    44   21   45 1
    45   22   23 1
    46   22   46 1
    47   22   47 1
    48   23   24 1
    49   23   25 1
    50   23   26 1
    51   25   48 1
    52   25   49 1
    53   26   50 1
    54   27   51 1
    55   27   52 1
    56   27   53 1
    57   28   54 1
    58   28   55 1
    59   28   56 1
    60   29   57 1
@<TRIPOS>MOLECULE
ZINC05276105
   57    60     0     0     0
SMALL
USER_CHARGES
17-(1-hydroxyethyl)-10,13-dimethyl-2,3,4,7,8,9,11,12,14,15,16,17-dodecahydro-1H-cyclopenta[a]phenanthren-3-ol
@<TRIPOS>ATOM
      1 C1         -1.3805    1.4812    3.6282 C.3       1 <0>        -0.1885
      2 C2         -1.2061    1.0436    2.1725 C.3       1 <0>         0.1074
      3 H1         -0.8408    0.0170    2.1431 H         1 <0>         0.1017
      4 C3         -0.2002    1.9618    1.4820 C.3       1 <0>        -0.1197
      5 H2         -0.5164    2.9966    1.5236 H         1 <0>         0.0736
      6 C4          1.2106    1.7849    2.0962 C.3       1 <0>        -0.1174
      7 C5          2.1967    1.6539    0.9026 C.3       1 <0>        -0.1164
      8 C6          1.3625    2.1400   -0.2919 C.3       1 <0>        -0.0734
      9 H3          1.2759    3.2456   -0.2014 H         1 <0>         0.0631
     10 C7         -0.0187    1.5258    0.0104 C.3       1 <0>        -0.0401
     11 C8         -1.0744    2.0587   -0.9257 C.3       1 <0>        -0.0986
     12 C9         -0.4875    2.3355   -2.3180 C.3       1 <0>        -0.1087
     13 C10         0.7080    1.4347   -2.5913 C.3       1 <0>        -0.0705
     14 H4          0.4271    0.3933   -2.4105 H         1 <0>         0.0760
     15 C11         1.8675    1.8218   -1.6618 C.3       1 <0>        -0.0666
     16 H5          2.3453    2.7288   -2.0806 H         1 <0>         0.0646
     17 C12         2.8919    0.6882   -1.7241 C.3       1 <0>        -0.0781
     18 C13         3.3307    0.5794   -3.1640 C.2       1 <0>        -0.1641
     19 C14         2.5890    0.9500   -4.1632 C.2       1 <0>        -0.0999
     20 C15         1.1893    1.5020   -4.0328 C.3       1 <0>        -0.0108
     21 C16         1.1728    2.9213   -4.5860 C.3       1 <0>        -0.1004
     22 C17         2.5041    3.2387   -5.2672 C.3       1 <0>        -0.1086
     23 C18         2.8968    2.1680   -6.2801 C.3       1 <0>         0.1117
     24 H6          3.8183    2.4754   -6.7841 H         1 <0>         0.0506
     25 C19         3.1365    0.8270   -5.5750 C.3       1 <0>        -0.1210
     26 O1          1.8649    2.0239   -7.2589 O.3       1 <0>        -0.5626
     27 C20         0.2491    0.6353   -4.8795 C.3       1 <0>        -0.1434
     28 C21         0.0021   -0.0041    0.0020 C.3       1 <0>        -0.1455
     29 O2         -2.4634    1.1213    1.4979 O.3       1 <0>        -0.5576
     30 H7         -1.7458    2.5077    3.6577 H         1 <0>         0.0559
     31 H8         -2.0985    0.8258    4.1211 H         1 <0>         0.0614
     32 H9         -0.4215    1.4219    4.1428 H         1 <0>         0.0654
     33 H10         1.2418    0.8835    2.7071 H         1 <0>         0.0647
     34 H11         1.4672    2.6551    2.6988 H         1 <0>         0.0627
     35 H12         2.5226    0.6259    0.7739 H         1 <0>         0.0707
     36 H13         3.0591    2.3081    1.0532 H         1 <0>         0.0607
     37 H14        -1.8922    1.3324   -1.0148 H         1 <0>         0.0687
     38 H15        -1.4925    2.9889   -0.5198 H         1 <0>         0.0548
     39 H16        -0.1769    3.3827   -2.3706 H         1 <0>         0.0584
     40 H17        -1.2604    2.1675   -3.0717 H         1 <0>         0.0612
     41 H18         3.7520    0.9260   -1.1022 H         1 <0>         0.0702
     42 H19         2.4446   -0.2500   -1.4109 H         1 <0>         0.0747
     43 H20         4.3072    0.1736   -3.3683 H         1 <0>         0.1009
     44 H21         1.0131    3.6320   -3.7749 H         1 <0>         0.0649
     45 H22         0.3639    3.0208   -5.3109 H         1 <0>         0.0698
     46 H23         3.2833    3.3221   -4.5095 H         1 <0>         0.0731
     47 H24         2.4158    4.1982   -5.7824 H         1 <0>         0.0637
     48 H25         4.2107    0.6230   -5.5340 H         1 <0>         0.0700
     49 H26         2.6410    0.0211   -6.1121 H         1 <0>         0.0814
     50 H27         2.0639    1.3748   -7.9475 H         1 <0>         0.3754
     51 H28         0.2804   -0.3931   -4.5196 H         1 <0>         0.0470
     52 H29        -0.7684    1.0177   -4.7991 H         1 <0>         0.0543
     53 H30         0.5672    0.6654   -5.9216 H         1 <0>         0.0689
     54 H31         0.6044   -0.3639    0.8362 H         1 <0>         0.0523
     55 H32        -1.0158   -0.3818    0.0993 H         1 <0>         0.0635
     56 H33         0.4324   -0.3564   -0.9354 H         1 <0>         0.0577
     57 H34        -2.8487    2.0082    1.4850 H         1 <0>         0.3708
@<TRIPOS>BOND
     1    1    2 1
     2    1   30 1
     3    1   31 1
     4    1   32 1
     5    2    3 1
     6    2    4 1
     7    2   29 1
     8    4    5 1
     9    4   10 1
    10    4    6 1
    11    6    7 1
    12    6   33 1
    13    6   34 1
    14    7    8 1
    15    7   35 1
    16    7   36 1
    17    8    9 1
    18    8   15 1
    19    8   10 1
    20   10   11 1
    21   10   28 1
    22   11   12 1
    23   11   37 1
    24   11   38 1
    25   12   13 1
    26   12   39 1
    27   12   40 1
    28   13   14 1
    29   13   20 1
    30   13   15 1
    31   15   16 1
    32   15   17 1
    33   17   18 1
    34   17   41 1
    35   17   42 1
    36   18   19 2
    37   18   43 1
    38   19   25 1
    39   19   20 1
    40   20   21 1
    41   20   27 1
    42   21   22 1
    43   21   44 1
    44   21   45 1
    45   22   23 1
    46   22   46 1
    47   22   47 1
    48   23   24 1
    49   23   25 1
    50   23   26 1
    51   25   48 1
    52   25   49 1
    53   26   50 1
    54   27   51 1
    55   27   52 1
    56   27   53 1
    57   28   54 1
    58   28   55 1
    59   28   56 1
    60   29   57 1
@<TRIPOS>MOLECULE
ZINC04096293
   55    58     0     0     0
SMALL
USER_CHARGES
17-(1-hydroxyethyl)-10,13-dimethyl-1,2,6,7,8,9,11,12,14,15,16,17-dodecahydrocyclopenta[a]phenanthren-3-one
@<TRIPOS>ATOM
      1 C1          0.3574   -0.4002    6.5739 C.3       1 <0>        -0.1901
      2 C2         -0.5339    0.1804    5.4742 C.3       1 <0>         0.1112
      3 H1         -0.1876    1.1813    5.2165 H         1 <0>         0.0977
      4 C3         -0.4672   -0.7133    4.2416 C.3       1 <0>        -0.1168
      5 H2         -0.8657   -1.7019    4.4559 H         1 <0>         0.0733
      6 C4          0.9995   -0.8210    3.7481 C.3       1 <0>        -0.1239
      7 C5          1.1207    0.1148    2.5166 C.3       1 <0>        -0.1212
      8 C6         -0.1797    0.9336    2.5478 C.3       1 <0>        -0.0721
      9 H3         -0.0612    1.7248    3.3150 H         1 <0>         0.0681
     10 C7         -1.2101   -0.1025    3.0390 C.3       1 <0>        -0.0376
     11 C8         -2.5449    0.5300    3.3280 C.3       1 <0>        -0.1260
     12 C9         -2.8014    1.7223    2.3922 C.3       1 <0>        -0.1089
     13 C10        -2.0930    1.5378    1.0563 C.3       1 <0>        -0.0686
     14 H4         -2.3782    0.5846    0.6109 H         1 <0>         0.0815
     15 C11        -0.5779    1.5886    1.2570 C.3       1 <0>        -0.0705
     16 H5         -0.3099    2.6618    1.3390 H         1 <0>         0.0604
     17 C12         0.1555    1.0551    0.0370 C.3       1 <0>        -0.1061
     18 C13        -0.5098    1.5745   -1.2404 C.3       1 <0>        -0.0976
     19 C14        -1.3470    2.7892   -0.9149 C.2       1 <0>        -0.0111
     20 C15        -1.0784    3.9570   -1.4866 C.2       1 <0>        -0.2448
     21 C16        -1.8679    5.1494   -1.1878 C.2       1 <0>         0.3871
     22 O1         -1.6190    6.1967   -1.7501 O.2       1 <0>        -0.4657
     23 C17        -2.9912    5.0830   -0.1864 C.3       1 <0>        -0.1606
     24 C18        -2.7262    3.9487    0.8067 C.3       1 <0>        -0.1063
     25 C19        -2.4882    2.6391    0.0640 C.3       1 <0>        -0.0353
     26 C20        -3.7521    2.2110   -0.6840 C.3       1 <0>        -0.1392
     27 C21        -1.3857   -1.2448    2.0229 C.3       1 <0>        -0.1482
     28 O2         -1.8829    0.2485    5.9408 O.3       1 <0>        -0.5552
     29 H6          1.3864   -0.4522    6.2180 H         1 <0>         0.0694
     30 H7          0.3097    0.2390    7.4556 H         1 <0>         0.0627
     31 H8          0.0111   -1.4011    6.8317 H         1 <0>         0.0575
     32 H9          1.2208   -1.8484    3.4642 H         1 <0>         0.0643
     33 H10         1.6795   -0.4939    4.5341 H         1 <0>         0.0690
     34 H11         1.2127   -0.4578    1.5981 H         1 <0>         0.0719
     35 H12         1.9823    0.7788    2.6306 H         1 <0>         0.0607
     36 H13        -2.6333    0.8707    4.3600 H         1 <0>         0.1056
     37 H14        -3.3405   -0.2168    3.1658 H         1 <0>         0.0504
     38 H15        -2.4429    2.6351    2.8758 H         1 <0>         0.0613
     39 H16        -3.8778    1.8178    2.2289 H         1 <0>         0.0609
     40 H17         0.1332   -0.0306    0.0307 H         1 <0>         0.0714
     41 H18         1.1893    1.3983    0.0599 H         1 <0>         0.0664
     42 H19         0.2633    1.8484   -1.9589 H         1 <0>         0.0758
     43 H20        -1.1425    0.7949   -1.6616 H         1 <0>         0.0826
     44 H21        -0.2598    4.0263   -2.1888 H         1 <0>         0.1292
     45 H22        -3.8542    4.9186   -0.6640 H         1 <0>         0.0928
     46 H23        -3.0395    6.0311    0.3585 H         1 <0>         0.0953
     47 H24        -3.5902    3.8433    1.4684 H         1 <0>         0.0833
     48 H25        -1.8486    4.1940    1.4100 H         1 <0>         0.0718
     49 H26        -3.5743    1.2580   -1.1821 H         1 <0>         0.0608
     50 H27        -4.5741    2.1033    0.0237 H         1 <0>         0.0669
     51 H28        -4.0085    2.9668   -1.4264 H         1 <0>         0.0579
     52 H29        -1.9006   -0.8687    1.1388 H         1 <0>         0.0601
     53 H30        -0.4071   -1.6304    1.7369 H         1 <0>         0.0556
     54 H31        -1.9739   -2.0444    2.4732 H         1 <0>         0.0505
     55 H32        -2.2570   -0.6080    6.1888 H         1 <0>         0.3725
@<TRIPOS>BOND
     1    1    2 1
     2    1   29 1
     3    1   30 1
     4    1   31 1
     5    2    3 1
     6    2    4 1
     7    2   28 1
     8    4    5 1
     9    4   10 1
    10    4    6 1
    11    6    7 1
    12    6   32 1
    13    6   33 1
    14    7    8 1
    15    7   34 1
    16    7   35 1
    17    8    9 1
    18    8   15 1
    19    8   10 1
    20   10   11 1
    21   10   27 1
    22   11   12 1
    23   11   36 1
    24   11   37 1
    25   12   13 1
    26   12   38 1
    27   12   39 1
    28   13   14 1
    29   13   25 1
    30   13   15 1
    31   15   16 1
    32   15   17 1
    33   17   18 1
    34   17   40 1
    35   17   41 1
    36   18   19 1
    37   18   42 1
    38   18   43 1
    39   19   25 1
    40   19   20 2
    41   20   21 1
    42   20   44 1
    43   21   22 2
    44   21   23 1
    45   23   24 1
    46   23   45 1
    47   23   46 1
    48   24   25 1
    49   24   47 1
    50   24   48 1
    51   25   26 1
    52   26   49 1
    53   26   50 1
    54   26   51 1
    55   27   52 1
    56   27   53 1
    57   27   54 1
    58   28   55 1
@<TRIPOS>MOLECULE
ZINC04096294
   55    58     0     0     0
SMALL
USER_CHARGES
17-(1-hydroxyethyl)-10,13-dimethyl-1,2,6,7,8,9,11,12,14,15,16,17-dodecahydrocyclopenta[a]phenanthren-3-one
@<TRIPOS>ATOM
      1 C1          1.1114    7.4946   -2.7068 C.3       1 <0>        -0.1879
      2 C2          1.2815    5.9847   -2.8856 C.3       1 <0>         0.1103
      3 H1          2.0881    5.7911   -3.5928 H         1 <0>         0.0527
      4 C3          1.6206    5.3479   -1.5401 C.3       1 <0>        -0.0810
      5 H2          2.4698    5.8356   -1.0750 H         1 <0>         0.0802
      6 C4          0.3881    5.3672   -0.6026 C.3       1 <0>        -0.1154
      7 C5          0.2780    3.9443    0.0099 C.3       1 <0>        -0.1157
      8 C6          1.6443    3.3185   -0.3087 C.3       1 <0>        -0.0720
      9 H3          2.3885    3.7691    0.3819 H         1 <0>         0.0645
     10 C7          1.9173    3.8444   -1.7323 C.3       1 <0>        -0.0515
     11 C8          3.3340    3.5461   -2.1576 C.3       1 <0>        -0.1059
     12 C9          3.8149    2.2176   -1.5599 C.3       1 <0>        -0.1087
     13 C10         2.6478    1.2687   -1.3117 C.3       1 <0>        -0.0685
     14 H4          2.0746    1.1341   -2.2291 H         1 <0>         0.0843
     15 C11         1.7449    1.8253   -0.2102 C.3       1 <0>        -0.0683
     16 H5          2.2440    1.5915    0.7515 H         1 <0>         0.0595
     17 C12         0.4046    1.1099   -0.1866 C.3       1 <0>        -0.1061
     18 C13         0.6086   -0.3944   -0.3881 C.3       1 <0>        -0.0978
     19 C14         2.0409   -0.7540   -0.0669 C.2       1 <0>        -0.0099
     20 C15         2.3088   -1.6161    0.9083 C.2       1 <0>        -0.2457
     21 C16         3.6830   -1.9761    1.2479 C.2       1 <0>         0.3883
     22 O1          3.8980   -2.7790    2.1326 O.2       1 <0>        -0.4654
     23 C17         4.8338   -1.3525    0.5002 C.3       1 <0>        -0.1605
     24 C18         4.4090    0.0167   -0.0361 C.3       1 <0>        -0.1058
     25 C19         3.1444   -0.1167   -0.8776 C.3       1 <0>        -0.0349
     26 C20         3.4204   -0.9636   -2.1219 C.3       1 <0>        -0.1393
     27 C21         0.9154    3.3121   -2.7575 C.3       1 <0>        -0.1271
     28 O2          0.0655    5.4241   -3.3849 O.3       1 <0>        -0.5524
     29 H6          0.3048    7.6882   -1.9997 H         1 <0>         0.0637
     30 H7          2.0389    7.9222   -2.3260 H         1 <0>         0.0625
     31 H8          0.8693    7.9493   -3.6674 H         1 <0>         0.0555
     32 H9         -0.5116    5.5987   -1.1721 H         1 <0>         0.0765
     33 H10         0.5314    6.1035    0.1874 H         1 <0>         0.0553
     34 H11        -0.5352    3.3856   -0.4441 H         1 <0>         0.0717
     35 H12         0.1347    4.0092    1.0911 H         1 <0>         0.0577
     36 H13         3.9976    4.3539   -1.8254 H         1 <0>         0.0588
     37 H14         3.3885    3.4924   -3.2517 H         1 <0>         0.0598
     38 H15         4.3303    2.4165   -0.6160 H         1 <0>         0.0624
     39 H16         4.5252    1.7529   -2.2488 H         1 <0>         0.0630
     40 H17        -0.2367    1.4878   -0.9771 H         1 <0>         0.0733
     41 H18        -0.0745    1.2728    0.7780 H         1 <0>         0.0659
     42 H19        -0.0606   -0.9382    0.2786 H         1 <0>         0.0759
     43 H20         0.3872   -0.6522   -1.4219 H         1 <0>         0.0830
     44 H21         1.4925   -2.0607    1.4594 H         1 <0>         0.1294
     45 H22         5.6073   -1.2290    1.1218 H         1 <0>         0.0834
     46 H23         5.1467   -2.0025   -0.3133 H         1 <0>         0.1021
     47 H24         4.2221    0.6907    0.8028 H         1 <0>         0.0716
     48 H25         5.2160    0.4282   -0.6476 H         1 <0>         0.0827
     49 H26         2.5158   -1.0261   -2.7268 H         1 <0>         0.0613
     50 H27         4.2169   -0.5025   -2.7059 H         1 <0>         0.0664
     51 H28         3.7251   -1.9655   -1.8193 H         1 <0>         0.0585
     52 H29         0.9622    2.2234   -2.7799 H         1 <0>         0.0426
     53 H30        -0.0906    3.6269   -2.4797 H         1 <0>         0.0738
     54 H31         1.1602    3.7067   -3.7436 H         1 <0>         0.0565
     55 H32        -0.2115    5.7832   -4.2390 H         1 <0>         0.3666
@<TRIPOS>BOND
     1    1    2 1
     2    1   29 1
     3    1   30 1
     4    1   31 1
     5    2    3 1
     6    2    4 1
     7    2   28 1
     8    4    5 1
     9    4   10 1
    10    4    6 1
    11    6    7 1
    12    6   32 1
    13    6   33 1
    14    7    8 1
    15    7   34 1
    16    7   35 1
    17    8    9 1
    18    8   15 1
    19    8   10 1
    20   10   11 1
    21   10   27 1
    22   11   12 1
    23   11   36 1
    24   11   37 1
    25   12   13 1
    26   12   38 1
    27   12   39 1
    28   13   14 1
    29   13   25 1
    30   13   15 1
    31   15   16 1
    32   15   17 1
    33   17   18 1
    34   17   40 1
    35   17   41 1
    36   18   19 1
    37   18   42 1
    38   18   43 1
    39   19   25 1
    40   19   20 2
    41   20   21 1
    42   20   44 1
    43   21   22 2
    44   21   23 1
    45   23   24 1
    46   23   45 1
    47   23   46 1
    48   24   25 1
    49   24   47 1
    50   24   48 1
    51   25   26 1
    52   26   49 1
    53   26   50 1
    54   26   51 1
    55   27   52 1
    56   27   53 1
    57   27   54 1
    58   28   55 1
@<TRIPOS>MOLECULE
ZINC17003003
   55    58     0     0     0
SMALL
USER_CHARGES
(8R,9R,10R,13S,14S,17S)-17-(1-hydroxyethyl)-10,13-dimethyl-1,2,6,7,8,9,11,12,14,15,16,17-dodecahydrocyclopenta[a]phenanthren-3-one
@<TRIPOS>ATOM
      1 C1          1.1517   -1.0694    3.3613 C.3       1 <0>        -0.1890
      2 C2          0.4249   -0.4680    2.1567 C.3       1 <0>         0.1074
      3 H1          1.0909   -0.4671    1.2938 H         1 <0>         0.1022
      4 C3          0.0064    0.9649    2.4781 C.3       1 <0>        -0.1189
      5 H2         -0.6319    1.0018    3.3534 H         1 <0>         0.0737
      6 C4          1.2509    1.8668    2.6616 C.3       1 <0>        -0.1178
      7 C5          0.9992    3.1455    1.8169 C.3       1 <0>        -0.1188
      8 C6         -0.5073    3.0815    1.5270 C.3       1 <0>        -0.0741
      9 H3         -1.0389    3.3572    2.4639 H         1 <0>         0.0655
     10 C7         -0.7284    1.5789    1.2660 C.3       1 <0>        -0.0407
     11 C8         -2.2022    1.2547    1.2149 C.3       1 <0>        -0.1003
     12 C9         -2.9931    2.4214    0.6073 C.3       1 <0>        -0.1108
     13 C10        -2.1301    3.2310   -0.3526 C.3       1 <0>        -0.0690
     14 H4         -1.6915    2.5742   -1.1039 H         1 <0>         0.0838
     15 C11        -1.0225    3.9521    0.4187 C.3       1 <0>        -0.0694
     16 H5         -1.4901    4.8416    0.8836 H         1 <0>         0.0610
     17 C12         0.0599    4.4684   -0.5172 C.3       1 <0>        -0.1067
     18 C13        -0.5712    4.9366   -1.8342 C.3       1 <0>        -0.0971
     19 C14        -2.0001    5.3493   -1.5600 C.2       1 <0>        -0.0132
     20 C15        -2.3886    6.6079   -1.7106 C.2       1 <0>        -0.2431
     21 C16        -3.7648    7.0127   -1.4317 C.2       1 <0>         0.3881
     22 O1         -4.1077    8.1605   -1.6304 O.2       1 <0>        -0.4656
     23 C17        -4.7577    6.0154   -0.8938 C.3       1 <0>        -0.1599
     24 C18        -4.0185    4.8801   -0.1819 C.3       1 <0>        -0.1056
     25 C19        -2.9649    4.2781   -1.1023 C.3       1 <0>        -0.0354
     26 C20        -3.6222    3.6261   -2.3193 C.3       1 <0>        -0.1392
     27 C21        -0.0127    1.0858    0.0080 C.3       1 <0>        -0.1476
     28 O2         -0.7354   -1.2484    1.8621 O.3       1 <0>        -0.5579
     29 H6          0.4857   -1.0703    4.2242 H         1 <0>         0.0560
     30 H7          1.4504   -2.0922    3.1319 H         1 <0>         0.0617
     31 H8          2.0367   -0.4741    3.5860 H         1 <0>         0.0656
     32 H9          1.3695    2.1316    3.7118 H         1 <0>         0.0629
     33 H10         2.1423    1.3527    2.3025 H         1 <0>         0.0650
     34 H11         1.2338    4.0370    2.4044 H         1 <0>         0.0613
     35 H12         1.5872    3.1320    0.9042 H         1 <0>         0.0722
     36 H13        -2.3638    0.3525    0.6143 H         1 <0>         0.0700
     37 H14        -2.5708    1.0587    2.2294 H         1 <0>         0.0562
     38 H15        -3.3477    3.0699    1.4135 H         1 <0>         0.0606
     39 H16        -3.8627    2.0248    0.0770 H         1 <0>         0.0633
     40 H17         0.5689    5.3108   -0.0533 H         1 <0>         0.0663
     41 H18         0.7750    3.6811   -0.7340 H         1 <0>         0.0730
     42 H19        -0.0127    5.7889   -2.2158 H         1 <0>         0.0761
     43 H20        -0.5523    4.1228   -2.5538 H         1 <0>         0.0833
     44 H21        -1.6760    7.3491   -2.0435 H         1 <0>         0.1297
     45 H22        -5.3595    6.4665   -0.2347 H         1 <0>         0.0841
     46 H23        -5.3674    5.6226   -1.7054 H         1 <0>         0.1022
     47 H24        -3.5407    5.2696    0.7201 H         1 <0>         0.0714
     48 H25        -4.7382    4.1094    0.1068 H         1 <0>         0.0823
     49 H26        -2.8548    3.1770   -2.9497 H         1 <0>         0.0613
     50 H27        -4.3170    2.8547   -1.9873 H         1 <0>         0.0669
     51 H28        -4.1634    4.3820   -2.8884 H         1 <0>         0.0584
     52 H29        -0.1622    0.0113   -0.0975 H         1 <0>         0.0675
     53 H30         1.0533    1.2981    0.0897 H         1 <0>         0.0524
     54 H31        -0.4190    1.5966   -0.8650 H         1 <0>         0.0574
     55 H32        -1.3736   -1.2934    2.5872 H         1 <0>         0.3713
@<TRIPOS>BOND
     1    1    2 1
     2    1   29 1
     3    1   30 1
     4    1   31 1
     5    2    3 1
     6    2    4 1
     7    2   28 1
     8    4    5 1
     9    4   10 1
    10    4    6 1
    11    6    7 1
    12    6   32 1
    13    6   33 1
    14    7    8 1
    15    7   34 1
    16    7   35 1
    17    8    9 1
    18    8   15 1
    19    8   10 1
    20   10   11 1
    21   10   27 1
    22   11   12 1
    23   11   36 1
    24   11   37 1
    25   12   13 1
    26   12   38 1
    27   12   39 1
    28   13   14 1
    29   13   25 1
    30   13   15 1
    31   15   16 1
    32   15   17 1
    33   17   18 1
    34   17   40 1
    35   17   41 1
    36   18   19 1
    37   18   42 1
    38   18   43 1
    39   19   25 1
    40   19   20 2
    41   20   21 1
    42   20   44 1
    43   21   22 2
    44   21   23 1
    45   23   24 1
    46   23   45 1
    47   23   46 1
    48   24   25 1
    49   24   47 1
    50   24   48 1
    51   25   26 1
    52   26   49 1
    53   26   50 1
    54   26   51 1
    55   27   52 1
    56   27   53 1
    57   27   54 1
    58   28   55 1
@<TRIPOS>MOLECULE
ZINC04426563
   54    58     0     0     0
SMALL
USER_CHARGES
1-(hydroxy-dimethyl-BLAHyl)ethanone
@<TRIPOS>ATOM
      1 C1         -7.4987   -3.1563   -0.1322 C.3       1 <0>        -0.1941
      2 C2         -6.3666   -2.3819    0.4920 C.2       1 <0>         0.3940
      3 O1         -6.2514   -2.3438    1.6935 O.2       1 <0>        -0.4314
      4 C3         -5.3793   -1.6558   -0.3822 C.3       1 <0>        -0.0620
      5 C4         -5.7078   -0.2732   -0.9997 C.3       1 <0>         0.0031
      6 H1         -6.6556    0.2318   -0.8377 H         1 <0>         0.1455
      7 O2         -5.6460   -1.4799   -1.7672 O.3       1 <0>        -0.2999
      8 C5         -4.4017    0.5684   -0.9333 C.3       1 <0>        -0.1071
      9 C6         -3.3265   -0.5259   -0.8552 C.3       1 <0>        -0.0792
     10 H2         -3.2958   -1.0272   -1.8478 H         1 <0>         0.0800
     11 C7         -3.9448   -1.5061    0.1607 C.3       1 <0>        -0.0122
     12 C8         -3.1603   -2.7961    0.2065 C.3       1 <0>        -0.1077
     13 C9         -1.6629   -2.5375   -0.0202 C.3       1 <0>        -0.1067
     14 C10        -1.2772   -1.1350    0.4282 C.3       1 <0>        -0.0745
     15 H3         -1.6019   -0.9718    1.4572 H         1 <0>         0.0797
     16 C11        -1.9381   -0.1046   -0.5013 C.3       1 <0>        -0.0669
     17 H4         -1.3357   -0.0596   -1.4311 H         1 <0>         0.0719
     18 C12        -1.8263    1.2564    0.1857 C.3       1 <0>        -0.0804
     19 C13        -0.3534    1.5205    0.3798 C.2       1 <0>        -0.1637
     20 C14         0.5359    0.5776    0.4614 C.2       1 <0>        -0.0992
     21 C15         0.2301   -0.8999    0.4100 C.3       1 <0>        -0.0089
     22 C16         0.8752   -1.4970   -0.8331 C.3       1 <0>        -0.0993
     23 C17         1.9463   -0.5670   -1.3954 C.3       1 <0>        -0.1084
     24 C18         2.8225    0.0605   -0.3217 C.3       1 <0>         0.1140
     25 H5          3.5915    0.6740   -0.8135 H         1 <0>         0.0485
     26 C19         1.9979    0.9652    0.5969 C.3       1 <0>        -0.1210
     27 O3          3.4833   -0.9522    0.4365 O.3       1 <0>        -0.5598
     28 C20         0.8160   -1.5678    1.6570 C.3       1 <0>        -0.1492
     29 C21        -4.0700   -0.9000    1.5615 C.3       1 <0>        -0.1448
     30 H6         -7.4441   -3.0822   -1.1280 H         1 <0>         0.0765
     31 H7         -7.4259   -4.2043    0.1587 H         1 <0>         0.0974
     32 H8         -8.4499   -2.7493    0.2108 H         1 <0>         0.0955
     33 H9         -4.3895    1.2133   -0.0627 H         1 <0>         0.0980
     34 H10        -4.2822    1.1531   -1.8478 H         1 <0>         0.0831
     35 H11        -3.3025   -3.2813    1.1791 H         1 <0>         0.0667
     36 H12        -3.5304   -3.4777   -0.5701 H         1 <0>         0.0631
     37 H13        -1.4402   -2.6546   -1.0856 H         1 <0>         0.0630
     38 H14        -1.0845   -3.2803    0.5338 H         1 <0>         0.0664
     39 H15        -2.2525    2.0317   -0.4458 H         1 <0>         0.0730
     40 H16        -2.3186    1.2399    1.1529 H         1 <0>         0.0769
     41 H17        -0.0270    2.5440    0.4526 H         1 <0>         0.1024
     42 H18         1.3307   -2.4571   -0.5777 H         1 <0>         0.0677
     43 H19         0.1127   -1.6637   -1.5965 H         1 <0>         0.0648
     44 H20         2.5800   -1.1372   -2.0824 H         1 <0>         0.0650
     45 H21         1.4586    0.2270   -1.9682 H         1 <0>         0.0718
     46 H22         2.1260    2.0099    0.2937 H         1 <0>         0.0723
     47 H23         2.3241    0.8559    1.6313 H         1 <0>         0.0801
     48 H24         4.0561   -0.6090    1.1360 H         1 <0>         0.3760
     49 H25         0.3686   -1.1286    2.5486 H         1 <0>         0.0466
     50 H26         0.6015   -2.6362    1.6316 H         1 <0>         0.0536
     51 H27         1.8949   -1.4143    1.6784 H         1 <0>         0.0785
     52 H28        -4.8245   -0.1133    1.5509 H         1 <0>         0.0553
     53 H29        -4.3641   -1.6759    2.2683 H         1 <0>         0.0770
     54 H30        -3.1106   -0.4792    1.8624 H         1 <0>         0.0688
@<TRIPOS>BOND
     1    1    2 1
     2    1   30 1
     3    1   31 1
     4    1   32 1
     5    2    3 2
     6    2    4 1
     7    4    7 1
     8    4   11 1
     9    4    5 1
    10    5    6 1
    11    5    7 1
    12    5    8 1
    13    8    9 1
    14    8   33 1
    15    8   34 1
    16    9   10 1
    17    9   16 1
    18    9   11 1
    19   11   12 1
    20   11   29 1
    21   12   13 1
    22   12   35 1
    23   12   36 1
    24   13   14 1
    25   13   37 1
    26   13   38 1
    27   14   15 1
    28   14   21 1
    29   14   16 1
    30   16   17 1
    31   16   18 1
    32   18   19 1
    33   18   39 1
    34   18   40 1
    35   19   20 2
    36   19   41 1
    37   20   26 1
    38   20   21 1
    39   21   22 1
    40   21   28 1
    41   22   23 1
    42   22   42 1
    43   22   43 1
    44   23   24 1
    45   23   44 1
    46   23   45 1
    47   24   25 1
    48   24   26 1
    49   24   27 1
    50   26   46 1
    51   26   47 1
    52   27   48 1
    53   28   49 1
    54   28   50 1
    55   28   51 1
    56   29   52 1
    57   29   53 1
    58   29   54 1
@<TRIPOS>MOLECULE
ZINC04578845
   54    58     0     0     0
SMALL
USER_CHARGES
1-(hydroxy-dimethyl-BLAHyl)ethanone
@<TRIPOS>ATOM
      1 C1         -1.1760   -2.0571    1.2202 C.3       1 <0>        -0.1945
      2 C2         -0.5695   -0.6797    1.2976 C.2       1 <0>         0.3967
      3 O1         -0.4729   -0.1215    2.3641 O.2       1 <0>        -0.4309
      4 C3         -0.0860   -0.0023    0.0503 C.3       1 <0>        -0.0702
      5 C4          1.1485   -0.4858   -0.7526 C.3       1 <0>         0.0162
      6 H1          1.7364   -1.3438   -0.4336 H         1 <0>         0.1430
      7 O2         -0.1841   -0.6691   -1.2163 O.3       1 <0>        -0.3018
      8 C5          1.9196    0.8010   -1.1618 C.3       1 <0>        -0.1083
      9 C6          1.5065    1.7635   -0.0382 C.3       1 <0>        -0.0728
     10 H2          1.9410    1.3609    0.9065 H         1 <0>         0.0757
     11 C7         -0.0189    1.5398    0.0105 C.3       1 <0>        -0.0122
     12 C8         -0.6075    2.2596    1.1924 C.3       1 <0>        -0.1195
     13 C9         -0.1233    3.7136    1.2659 C.3       1 <0>        -0.1083
     14 C10         0.7155    4.1417    0.0763 C.3       1 <0>        -0.0695
     15 H3          0.0965    4.1822   -0.8246 H         1 <0>         0.0787
     16 C11         1.9019    3.1996   -0.1484 C.3       1 <0>        -0.0634
     17 H4          2.6773    3.4252    0.6037 H         1 <0>         0.0754
     18 C12         2.4826    3.5256   -1.5330 C.3       1 <0>        -0.0814
     19 C13         2.8388    4.9861   -1.5625 C.2       1 <0>        -0.1626
     20 C14         2.3161    5.8689   -0.7725 C.2       1 <0>        -0.0988
     21 C15         1.2487    5.5639    0.2514 C.3       1 <0>        -0.0140
     22 C16         1.8318    5.8006    1.6381 C.3       1 <0>        -0.1011
     23 C17         3.1878    6.4980    1.5292 C.3       1 <0>        -0.1091
     24 C18         3.1405    7.7205    0.6199 C.3       1 <0>         0.1122
     25 H5          4.1210    8.2094    0.6301 H         1 <0>         0.0505
     26 C19         2.8103    7.3051   -0.8199 C.3       1 <0>        -0.1210
     27 O3          2.1635    8.6467    1.0961 O.3       1 <0>        -0.5617
     28 C20         0.0774    6.5270    0.0340 C.3       1 <0>        -0.1452
     29 C21        -0.7217    1.9529   -1.2869 C.3       1 <0>        -0.1467
     30 H6         -1.1781   -2.3674    0.2696 H         1 <0>         0.0768
     31 H7         -0.5891   -2.7471    1.8264 H         1 <0>         0.0961
     32 H8         -2.1993   -2.0250    1.5943 H         1 <0>         0.0978
     33 H9          2.9959    0.6187   -1.1282 H         1 <0>         0.0889
     34 H10         1.6204    1.1518   -2.1396 H         1 <0>         0.0918
     35 H11        -1.7044    2.2460    1.1267 H         1 <0>         0.0579
     36 H12        -0.3257    1.7574    2.1286 H         1 <0>         0.0966
     37 H13         0.4618    3.8364    2.1877 H         1 <0>         0.0646
     38 H14        -1.0007    4.3679    1.3539 H         1 <0>         0.0620
     39 H15         3.3769    2.9284   -1.7013 H         1 <0>         0.0727
     40 H16         1.7426    3.3152   -2.3014 H         1 <0>         0.0742
     41 H17         3.5720    5.3152   -2.2831 H         1 <0>         0.1015
     42 H18         1.1510    6.4215    2.2202 H         1 <0>         0.0705
     43 H19         1.9700    4.8454    2.1477 H         1 <0>         0.0664
     44 H20         3.5028    6.8106    2.5279 H         1 <0>         0.0645
     45 H21         3.9224    5.7900    1.1411 H         1 <0>         0.0734
     46 H22         3.7158    7.3596   -1.4312 H         1 <0>         0.0709
     47 H23         2.0522    7.9606   -1.2414 H         1 <0>         0.0816
     48 H24         2.0855    9.4471    0.5590 H         1 <0>         0.3757
     49 H25        -0.3219    6.3924   -0.9713 H         1 <0>         0.0472
     50 H26        -0.7035    6.3205    0.7658 H         1 <0>         0.0552
     51 H27         0.4243    7.5535    0.1526 H         1 <0>         0.0710
     52 H28        -1.6979    1.4710   -1.3405 H         1 <0>         0.0568
     53 H29        -0.8494    3.0353   -1.3022 H         1 <0>         0.0677
     54 H30        -0.1177    1.6462   -2.1408 H         1 <0>         0.0625
@<TRIPOS>BOND
     1    1    2 1
     2    1   30 1
     3    1   31 1
     4    1   32 1
     5    2    3 2
     6    2    4 1
     7    4    7 1
     8    4   11 1
     9    4    5 1
    10    5    6 1
    11    5    7 1
    12    5    8 1
    13    8    9 1
    14    8   33 1
    15    8   34 1
    16    9   10 1
    17    9   16 1
    18    9   11 1
    19   11   12 1
    20   11   29 1
    21   12   13 1
    22   12   35 1
    23   12   36 1
    24   13   14 1
    25   13   37 1
    26   13   38 1
    27   14   15 1
    28   14   21 1
    29   14   16 1
    30   16   17 1
    31   16   18 1
    32   18   19 1
    33   18   39 1
    34   18   40 1
    35   19   20 2
    36   19   41 1
    37   20   26 1
    38   20   21 1
    39   21   22 1
    40   21   28 1
    41   22   23 1
    42   22   42 1
    43   22   43 1
    44   23   24 1
    45   23   44 1
    46   23   45 1
    47   24   25 1
    48   24   26 1
    49   24   27 1
    50   26   46 1
    51   26   47 1
    52   27   48 1
    53   28   49 1
    54   28   50 1
    55   28   51 1
    56   29   52 1
    57   29   53 1
    58   29   54 1
@<TRIPOS>MOLECULE
ZINC04532986
   53    56     0     0     0
SMALL
USER_CHARGES
1-(3-hydroxy-10,13-dimethyl-2,3,4,7,8,9,11,12,14,15-decahydro-1H-cyclopenta[a]phenanthren-17-yl)ethanone
@<TRIPOS>ATOM
      1 C1          7.1782    4.9831   -1.5138 C.3       1 <0>        -0.1925
      2 C2          5.8722    4.7225   -0.8084 C.2       1 <0>         0.3983
      3 O1          5.3370    5.6087   -0.1759 O.2       1 <0>        -0.4518
      4 C3          5.2518    3.4048   -0.8860 C.2       1 <0>        -0.2100
      5 C4          5.7822    2.3037   -1.4557 C.2       1 <0>        -0.0825
      6 C5          4.7695    1.1569   -1.4005 C.3       1 <0>        -0.1003
      7 C6          3.4530    1.9490   -1.3303 C.3       1 <0>        -0.0711
      8 H1          3.2856    2.4186   -2.3278 H         1 <0>         0.0753
      9 C7          3.8946    3.0394   -0.3281 C.3       1 <0>        -0.0085
     10 C8          2.8733    4.1433   -0.2571 C.3       1 <0>        -0.0977
     11 C9          1.4546    3.5821   -0.4610 C.3       1 <0>        -0.1089
     12 C10         1.3661    2.1383    0.0088 C.3       1 <0>        -0.0734
     13 H2          1.7353    2.0624    1.0330 H         1 <0>         0.0781
     14 C11         2.2093    1.2433   -0.9153 C.3       1 <0>        -0.0682
     15 H3          1.6008    1.0451   -1.8241 H         1 <0>         0.0692
     16 C12         2.4002   -0.0921   -0.2000 C.3       1 <0>        -0.0775
     17 C13         1.0190   -0.6473    0.0544 C.2       1 <0>        -0.1647
     18 C14        -0.0492    0.0882    0.1099 C.2       1 <0>        -0.0987
     19 C15        -0.0569    1.5972    0.0302 C.3       1 <0>        -0.0108
     20 C16        -0.8511    2.0220   -1.1983 C.3       1 <0>        -0.1015
     21 C17        -1.5375    0.8121   -1.8304 C.3       1 <0>        -0.1085
     22 C18        -2.3364    0.0127   -0.8071 C.3       1 <0>         0.1123
     23 H4         -2.8632   -0.7982   -1.3205 H         1 <0>         0.0508
     24 C19        -1.4016   -0.5898    0.2482 C.3       1 <0>        -0.1213
     25 O2         -3.3004    0.8569   -0.1755 O.3       1 <0>        -0.5623
     26 C20        -0.7502    2.1448    1.2828 C.3       1 <0>        -0.1429
     27 C21         4.1600    2.4755    1.0714 C.3       1 <0>        -0.1462
     28 H5          6.9975    5.3779   -2.4146 H         1 <0>         0.0858
     29 H6          7.7764    5.6789   -0.9255 H         1 <0>         0.0879
     30 H7          7.7216    4.0454   -1.6305 H         1 <0>         0.0814
     31 H8          6.7581    2.2455   -1.9114 H         1 <0>         0.1374
     32 H9          4.9216    0.5265   -0.5336 H         1 <0>         0.0940
     33 H10         4.8130    0.5677   -2.3194 H         1 <0>         0.0773
     34 H11         2.9322    4.6422    0.7176 H         1 <0>         0.0658
     35 H12         3.0766    4.8904   -1.0351 H         1 <0>         0.0608
     36 H13         0.7421    4.1998    0.0915 H         1 <0>         0.0639
     37 H14         1.2015    3.6380   -1.5252 H         1 <0>         0.0606
     38 H15         2.9110    0.0447    0.7471 H         1 <0>         0.0750
     39 H16         2.9539   -0.7818   -0.8331 H         1 <0>         0.0723
     40 H17         0.9162   -1.7142    0.1610 H         1 <0>         0.1017
     41 H18        -1.6042    2.7567   -0.9093 H         1 <0>         0.0706
     42 H19        -0.1806    2.4710   -1.9329 H         1 <0>         0.0655
     43 H20        -0.7831    0.1681   -2.2835 H         1 <0>         0.0735
     44 H21        -2.2143    1.1615   -2.6143 H         1 <0>         0.0643
     45 H22        -1.2909   -1.6638    0.0687 H         1 <0>         0.0706
     46 H23        -1.8060   -0.4354    1.2474 H         1 <0>         0.0808
     47 H24        -3.8592    0.4020    0.4695 H         1 <0>         0.3756
     48 H25        -0.2059    1.8213    2.1700 H         1 <0>         0.0476
     49 H26        -0.7653    3.2340    1.2429 H         1 <0>         0.0552
     50 H27        -1.7723    1.7687    1.3262 H         1 <0>         0.0689
     51 H28         4.8979    1.6758    1.0070 H         1 <0>         0.0553
     52 H29         4.5386    3.2681    1.7167 H         1 <0>         0.0561
     53 H30         3.2323    2.0812    1.4862 H         1 <0>         0.0675
@<TRIPOS>BOND
     1    1    2 1
     2    1   28 1
     3    1   29 1
     4    1   30 1
     5    2    3 2
     6    2    4 1
     7    4    9 1
     8    4    5 2
     9    5    6 1
    10    5   31 1
    11    6    7 1
    12    6   32 1
    13    6   33 1
    14    7    8 1
    15    7   14 1
    16    7    9 1
    17    9   10 1
    18    9   27 1
    19   10   11 1
    20   10   34 1
    21   10   35 1
    22   11   12 1
    23   11   36 1
    24   11   37 1
    25   12   13 1
    26   12   19 1
    27   12   14 1
    28   14   15 1
    29   14   16 1
    30   16   17 1
    31   16   38 1
    32   16   39 1
    33   17   18 2
    34   17   40 1
    35   18   24 1
    36   18   19 1
    37   19   20 1
    38   19   26 1
    39   20   21 1
    40   20   41 1
    41   20   42 1
    42   21   22 1
    43   21   43 1
    44   21   44 1
    45   22   23 1
    46   22   24 1
    47   22   25 1
    48   24   45 1
    49   24   46 1
    50   25   47 1
    51   26   48 1
    52   26   49 1
    53   26   50 1
    54   27   51 1
    55   27   52 1
    56   27   53 1
@<TRIPOS>MOLECULE
ZINC04532987
   53    56     0     0     0
SMALL
USER_CHARGES
1-(3-hydroxy-10,13-dimethyl-2,3,4,7,8,9,11,12,14,15-decahydro-1H-cyclopenta[a]phenanthren-17-yl)ethanone
@<TRIPOS>ATOM
      1 C1          2.8882   -0.1953    0.5864 C.3       1 <0>        -0.1934
      2 C2          2.6048    1.2807    0.4763 C.2       1 <0>         0.3981
      3 O1          3.5226    2.0705    0.3985 O.2       1 <0>        -0.4488
      4 C3          1.2235    1.7612    0.4634 C.2       1 <0>        -0.1982
      5 C4          0.1319    0.9848    0.4636 C.2       1 <0>        -0.0829
      6 C5         -1.1172    1.8476    0.4385 C.3       1 <0>        -0.1097
      7 C6         -0.6078    3.1923   -0.1669 C.3       1 <0>        -0.0756
      8 H1         -1.2029    4.0596    0.1191 H         1 <0>         0.0939
      9 C7          0.8031    3.2076    0.4469 C.3       1 <0>        -0.0090
     10 C8          1.7647    4.1050   -0.2933 C.3       1 <0>        -0.1145
     11 C9          1.7958    3.7626   -1.7806 C.3       1 <0>        -0.1073
     12 C10         0.3881    3.9602   -2.3612 C.3       1 <0>        -0.0666
     13 H2          0.0629    4.9875   -2.1971 H         1 <0>         0.0720
     14 C11        -0.5679    2.9795   -1.6828 C.3       1 <0>        -0.0699
     15 H3         -0.2644    1.9573   -1.9085 H         1 <0>         0.0746
     16 C12        -1.9828    3.2292   -2.2259 C.3       1 <0>        -0.0828
     17 C13        -1.9723    3.2044   -3.7239 C.2       1 <0>        -0.1656
     18 C14        -0.9083    3.3879   -4.4380 C.2       1 <0>        -0.0972
     19 C15         0.4499    3.6719   -3.8582 C.3       1 <0>        -0.0127
     20 C16         1.3757    2.4916   -4.1450 C.3       1 <0>        -0.0928
     21 C17         0.9333    1.7753   -5.4200 C.3       1 <0>        -0.1112
     22 C18         0.3697    2.7637   -6.4389 C.3       1 <0>         0.1064
     23 H4          0.2456    2.2639   -7.3996 H         1 <0>         0.0529
     24 C19        -0.9911    3.2817   -5.9521 C.3       1 <0>        -0.1187
     25 O2          1.2721    3.8618   -6.5867 O.3       1 <0>        -0.5495
     26 C20         1.0126    4.9072   -4.5641 C.3       1 <0>        -0.1337
     27 C21         0.6873    3.6983    1.8915 C.3       1 <0>        -0.1429
     28 H5          3.0058   -0.5813   -0.3286 H         1 <0>         0.0855
     29 H6          3.7992   -0.3483    1.1650 H         1 <0>         0.0884
     30 H7          2.0540   -0.6892    1.0847 H         1 <0>         0.0817
     31 H8          0.1393   -0.0951    0.4752 H         1 <0>         0.1361
     32 H9         -1.8806    1.4019   -0.1993 H         1 <0>         0.0804
     33 H10        -1.4990    2.0024    1.4476 H         1 <0>         0.0869
     34 H11         1.4530    5.1423   -0.1709 H         1 <0>         0.0581
     35 H12         2.7642    3.9800    0.1233 H         1 <0>         0.0838
     36 H13         2.4980    4.4205   -2.2926 H         1 <0>         0.0615
     37 H14         2.1051    2.7255   -1.9106 H         1 <0>         0.0624
     38 H15        -2.3350    4.2021   -1.8831 H         1 <0>         0.0707
     39 H16        -2.6519    2.4521   -1.8563 H         1 <0>         0.0683
     40 H17        -2.9052    3.0235   -4.2370 H         1 <0>         0.0991
     41 H18         2.3959    2.8545   -4.2697 H         1 <0>         0.0674
     42 H19         1.3402    1.7929   -3.3091 H         1 <0>         0.0582
     43 H20         1.7893    1.2609   -5.8565 H         1 <0>         0.0641
     44 H21         0.1653    1.0431   -5.1707 H         1 <0>         0.0706
     45 H22        -1.1920    4.2623   -6.3835 H         1 <0>         0.0777
     46 H23        -1.7782    2.5827   -6.2349 H         1 <0>         0.0750
     47 H24         1.0284    4.4793   -7.2899 H         1 <0>         0.3710
     48 H25         2.0795    4.7705   -4.7404 H         1 <0>         0.0591
     49 H26         0.5016    5.0455   -5.5169 H         1 <0>         0.0793
     50 H27         0.8575    5.7858   -3.9378 H         1 <0>         0.0303
     51 H28         1.6587    3.6221    2.3800 H         1 <0>         0.0553
     52 H29         0.3584    4.7375    1.8969 H         1 <0>         0.0590
     53 H30        -0.0376    3.0850    2.4266 H         1 <0>         0.0553
@<TRIPOS>BOND
     1    1    2 1
     2    1   28 1
     3    1   29 1
     4    1   30 1
     5    2    3 2
     6    2    4 1
     7    4    9 1
     8    4    5 2
     9    5    6 1
    10    5   31 1
    11    6    7 1
    12    6   32 1
    13    6   33 1
    14    7    8 1
    15    7   14 1
    16    7    9 1
    17    9   10 1
    18    9   27 1
    19   10   11 1
    20   10   34 1
    21   10   35 1
    22   11   12 1
    23   11   36 1
    24   11   37 1
    25   12   13 1
    26   12   19 1
    27   12   14 1
    28   14   15 1
    29   14   16 1
    30   16   17 1
    31   16   38 1
    32   16   39 1
    33   17   18 2
    34   17   40 1
    35   18   24 1
    36   18   19 1
    37   19   20 1
    38   19   26 1
    39   20   21 1
    40   20   41 1
    41   20   42 1
    42   21   22 1
    43   21   43 1
    44   21   44 1
    45   22   23 1
    46   22   24 1
    47   22   25 1
    48   24   45 1
    49   24   46 1
    50   25   47 1
    51   26   48 1
    52   26   49 1
    53   26   50 1
    54   27   51 1
    55   27   52 1
    56   27   53 1
@<TRIPOS>MOLECULE
ZINC13684515
   32    34     0     0     0
SMALL
USER_CHARGES
3-(1-methyl-3,4-dihydronaphthalen-2-yl)pyridine
@<TRIPOS>ATOM
      1 C1          2.8926    2.0707   -2.2367 C.3       1 <0>        -0.1171
      2 C2          3.2882    1.1897   -1.0798 C.2       1 <0>        -0.0656
      3 C3          2.4811    1.0724   -0.0154 C.2       1 <0>        -0.0839
      4 C4          2.8766    0.2287    1.1654 C.3       1 <0>        -0.0754
      5 C5          3.6431   -1.0133    0.7053 C.3       1 <0>        -0.0798
      6 C6          4.7548   -0.6136   -0.2286 C.ar      1 <0>        -0.0731
      7 C7          4.5637    0.4536   -1.1121 C.ar      1 <0>        -0.0502
      8 C8          5.5626    0.7858   -2.0256 C.ar      1 <0>        -0.1032
      9 C9          6.7509    0.0830   -2.0251 C.ar      1 <0>        -0.1240
     10 C10         6.9455   -0.9527   -1.1286 C.ar      1 <0>        -0.1139
     11 C11         5.9482   -1.3019   -0.2338 C.ar      1 <0>        -0.1178
     12 C12         1.1910    1.7851    0.0003 C.ar      1 <0>        -0.0933
     13 C13         1.1504    3.1860    0.0082 C.ar      1 <0>        -0.0639
     14 C14        -0.0861    3.8056    0.0233 C.ar      1 <0>        -0.1700
     15 C15        -1.2324    3.0306    0.0301 C.ar      1 <0>         0.0966
     16 N1         -1.1648    1.7133    0.0169 N.ar      1 <0>        -0.4822
     17 C16        -0.0126    1.0758    0.0080 C.ar      1 <0>         0.1108
     18 H1          3.2689    3.0800   -2.0702 H         1 <0>         0.0712
     19 H2          3.3168    1.6722   -3.1584 H         1 <0>         0.0675
     20 H3          1.8060    2.0969   -2.3185 H         1 <0>         0.0671
     21 H4          3.5066    0.8173    1.8323 H         1 <0>         0.0787
     22 H5          1.9795   -0.0817    1.7013 H         1 <0>         0.0789
     23 H6          2.9635   -1.6914    0.1892 H         1 <0>         0.0808
     24 H7          4.0650   -1.5169    1.5751 H         1 <0>         0.0817
     25 H8          5.4079    1.5896   -2.7302 H         1 <0>         0.1252
     26 H9          7.5305    0.3425   -2.7260 H         1 <0>         0.1239
     27 H10         7.8810   -1.4924   -1.1270 H         1 <0>         0.1232
     28 H11         6.1059   -2.1142    0.4604 H         1 <0>         0.1245
     29 H12         2.0610    3.7667    0.0023 H         1 <0>         0.1340
     30 H13        -0.1562    4.8833    0.0294 H         1 <0>         0.1371
     31 H14        -2.1989    3.5125    0.0419 H         1 <0>         0.1564
     32 H15         0.0021   -0.0041    0.0020 H         1 <0>         0.1558
@<TRIPOS>BOND
     1    1    2 1
     2    1   18 1
     3    1   19 1
     4    1   20 1
     5    2    7 1
     6    2    3 2
     7    3    4 1
     8    3   12 1
     9    4    5 1
    10    4   21 1
    11    4   22 1
    12    5    6 1
    13    5   23 1
    14    5   24 1
    15    6   11 ar
    16    6    7 ar
    17    7    8 ar
    18    8    9 ar
    19    8   25 1
    20    9   10 ar
    21    9   26 1
    22   10   11 ar
    23   10   27 1
    24   11   28 1
    25   12   17 ar
    26   12   13 ar
    27   13   14 ar
    28   13   29 1
    29   14   15 ar
    30   14   30 1
    31   15   16 ar
    32   15   31 1
    33   16   17 ar
    34   17   32 1
@<TRIPOS>MOLECULE
ZINC03797541
   57    61     0     0     0
SMALL
USER_CHARGES
10,13-dimethyl-17-(3-pyridyl)-2,3,4,7,8,9,11,12,14,15-decahydro-1H-cyclopenta[a]phenanthren-3-ol
@<TRIPOS>ATOM
      1 C1         -3.0005    8.6246    4.0035 C.3       1 <0>        -0.1491
      2 C2         -1.5307    9.0386    4.0998 C.3       1 <0>        -0.0133
      3 C3         -1.0142    8.6413    5.4855 C.3       1 <0>        -0.1037
      4 C4         -1.7796    9.4217    6.5560 C.3       1 <0>        -0.1152
      5 C5         -1.5148   10.9190    6.3896 C.3       1 <0>         0.1085
      6 H1         -0.4414   11.1046    6.4279 H         1 <0>         0.0545
      7 C6         -2.0663   11.3880    5.0400 C.3       1 <0>        -0.1172
      8 C7         -1.4536   10.5285    3.9469 C.2       1 <0>        -0.1050
      9 C8         -0.8930   11.1255    2.9362 C.2       1 <0>        -0.1539
     10 C9         -0.2479   10.3827    1.8028 C.3       1 <0>        -0.0846
     11 C10        -0.8955    8.9996    1.6721 C.3       1 <0>        -0.0707
     12 H2         -1.9394    9.0972    1.3741 H         1 <0>         0.0873
     13 C11        -0.7684    8.2826    3.0242 C.3       1 <0>        -0.0658
     14 H3          0.2852    8.2630    3.3028 H         1 <0>         0.0655
     15 C12        -1.2595    6.8398    2.9616 C.3       1 <0>        -0.1222
     16 C13        -0.5949    6.0525    1.8194 C.3       1 <0>        -0.1001
     17 C14        -0.8818    6.8129    0.5418 C.3       1 <0>        -0.0258
     18 C15        -0.1314    8.1758    0.6527 C.3       1 <0>        -0.0812
     19 H4          0.9128    8.0583    0.9427 H         1 <0>         0.0839
     20 C16        -0.2588    8.6096   -0.8146 C.3       1 <0>        -0.0911
     21 C17        -0.0432    7.2868   -1.5501 C.2       1 <0>        -0.1428
     22 C18        -0.3843    6.2636   -0.7530 C.2       1 <0>        -0.0881
     23 C19        -0.2890    4.8303   -1.1016 C.ar      1 <0>        -0.0792
     24 C20         0.9568    4.2349   -1.3302 C.ar      1 <0>        -0.0655
     25 C21         0.9915    2.8899   -1.6531 C.ar      1 <0>        -0.1698
     26 C22        -0.1947    2.1833   -1.7389 C.ar      1 <0>         0.0948
     27 N1         -1.3550    2.7722   -1.5230 N.ar      1 <0>        -0.4826
     28 C23        -1.4393    4.0483   -1.2079 C.ar      1 <0>         0.1106
     29 C24        -2.3860    7.0715    0.4352 C.3       1 <0>        -0.1525
     30 O1         -2.1602   11.6369    7.4433 O.3       1 <0>        -0.5687
     31 H5         -3.3614    8.7990    2.9899 H         1 <0>         0.0560
     32 H6         -3.0965    7.5664    4.2464 H         1 <0>         0.0633
     33 H7         -3.5906    9.2136    4.7057 H         1 <0>         0.0570
     34 H8         -1.1652    7.5725    5.6371 H         1 <0>         0.0735
     35 H9          0.0487    8.8721    5.5573 H         1 <0>         0.0641
     36 H10        -2.8473    9.2284    6.4519 H         1 <0>         0.0738
     37 H11        -1.4484    9.1023    7.5441 H         1 <0>         0.0699
     38 H12        -1.8005   12.4326    4.8778 H         1 <0>         0.0690
     39 H13        -3.1507   11.2785    5.0285 H         1 <0>         0.0800
     40 H14        -0.8920   12.2052    2.9114 H         1 <0>         0.1035
     41 H15         0.8176   10.2685    2.0020 H         1 <0>         0.0729
     42 H16        -0.3873   10.9390    0.8758 H         1 <0>         0.0714
     43 H17        -1.0353    6.3480    3.9082 H         1 <0>         0.0621
     44 H18        -2.3390    6.8392    2.8110 H         1 <0>         0.0765
     45 H19         0.4804    5.9896    1.9866 H         1 <0>         0.0628
     46 H20        -1.0215    5.0512    1.7596 H         1 <0>         0.0622
     47 H21         0.5143    9.3320   -1.0764 H         1 <0>         0.0718
     48 H22        -1.2511    9.0120   -1.0183 H         1 <0>         0.0826
     49 H23         0.3282    7.1907   -2.5597 H         1 <0>         0.1266
     50 H24         1.8676    4.8106   -1.2568 H         1 <0>         0.1336
     51 H25         1.9348    2.3969   -1.8366 H         1 <0>         0.1365
     52 H26        -0.1706    1.1334   -1.9911 H         1 <0>         0.1558
     53 H27        -2.4076    4.4941   -1.0343 H         1 <0>         0.1537
     54 H28        -2.9104    6.1230    0.3194 H         1 <0>         0.0542
     55 H29        -2.7338    7.5709    1.3395 H         1 <0>         0.0747
     56 H30        -2.5854    7.7048   -0.4292 H         1 <0>         0.0576
     57 H31        -2.0345   12.5947    7.4012 H         1 <0>         0.3780
@<TRIPOS>BOND
     1    1    2 1
     2    1   31 1
     3    1   32 1
     4    1   33 1
     5    2    8 1
     6    2   13 1
     7    2    3 1
     8    3    4 1
     9    3   34 1
    10    3   35 1
    11    4    5 1
    12    4   36 1
    13    4   37 1
    14    5    6 1
    15    5    7 1
    16    5   30 1
    17    7    8 1
    18    7   38 1
    19    7   39 1
    20    8    9 2
    21    9   10 1
    22    9   40 1
    23   10   11 1
    24   10   41 1
    25   10   42 1
    26   11   12 1
    27   11   18 1
    28   11   13 1
    29   13   14 1
    30   13   15 1
    31   15   16 1
    32   15   43 1
    33   15   44 1
    34   16   17 1
    35   16   45 1
    36   16   46 1
    37   17   22 1
    38   17   18 1
    39   17   29 1
    40   18   19 1
    41   18   20 1
    42   20   21 1
    43   20   47 1
    44   20   48 1
    45   21   22 2
    46   21   49 1
    47   22   23 1
    48   23   28 ar
    49   23   24 ar
    50   24   25 ar
    51   24   50 1
    52   25   26 ar
    53   25   51 1
    54   26   27 ar
    55   26   52 1
    56   27   28 ar
    57   28   53 1
    58   29   54 1
    59   29   55 1
    60   29   56 1
    61   30   57 1
@<TRIPOS>MOLECULE
ZINC03812958
   43    46     0     0     0
SMALL
USER_CHARGES

@<TRIPOS>ATOM
      1 C1         -0.1075    1.2056    0.1489 C.ar      1 <0>        -0.1054
      2 C2          0.5302    0.8679    1.3289 C.ar      1 <0>        -0.1174
      3 C3          1.7509    0.2245    1.2969 C.ar      1 <0>        -0.1046
      4 C4          2.3406   -0.0848    0.0730 C.ar      1 <0>        -0.0688
      5 C5          1.6937    0.2578   -1.1126 C.ar      1 <0>        -0.1032
      6 C6          0.4734    0.9011   -1.0689 C.ar      1 <0>        -0.1163
      7 C7          3.6531   -0.7760    0.0323 C.ar      1 <0>        -0.0095
      8 C8          4.2975   -1.1233    1.2179 C.ar      1 <0>        -0.1081
      9 C9          5.5178   -1.7665    1.1742 C.ar      1 <0>        -0.1045
     10 C10         6.1014   -2.0660   -0.0436 C.ar      1 <0>        -0.1323
     11 C11         5.4663   -1.7232   -1.2236 C.ar      1 <0>        -0.0766
     12 C12         4.2428   -1.0853   -1.1916 C.ar      1 <0>        -0.1059
     13 C13         7.4343   -2.7680   -0.0849 C.3       1 <0>         0.2278
     14 H1          8.2302   -2.0307   -0.1893 H         1 <0>         0.1409
     15 C14         7.4680   -3.7133   -1.2581 C.ar      1 <0>        -0.1348
     16 C15         6.4631   -4.6484   -1.4214 C.ar      1 <0>        -0.0940
     17 C16         6.4941   -5.5154   -2.4976 C.ar      1 <0>        -0.1141
     18 C17         7.5297   -5.4471   -3.4107 C.ar      1 <0>        -0.0903
     19 C18         8.5341   -4.5113   -3.2479 C.ar      1 <0>        -0.1135
     20 C19         8.5009   -3.6415   -2.1741 C.ar      1 <0>        -0.0912
     21 N1          7.6274   -3.5226    1.1559 N.pl3     1 <0>        -0.3994
     22 C20         6.8331   -4.5349    1.6229 C.2       1 <0>         0.0313
     23 C21         7.3701   -4.9457    2.7876 C.2       1 <0>         0.0032
     24 N2          8.4624   -4.2045    3.0253 N.pl3     1 <0>        -0.4753
     25 C22         8.6256   -3.3534    2.0496 C.cat     1 <0>         0.2884
     26 H2         -1.0647    1.7050    0.1785 H         1 <0>         0.1286
     27 H3          0.0724    1.1084    2.2770 H         1 <0>         0.1286
     28 H4          2.2481   -0.0384    2.2189 H         1 <0>         0.1242
     29 H5          2.1466    0.0207   -2.0640 H         1 <0>         0.1264
     30 H6         -0.0291    1.1668   -1.9873 H         1 <0>         0.1295
     31 H7          3.8430   -0.8893    2.1693 H         1 <0>         0.1330
     32 H8          6.0182   -2.0362    2.0925 H         1 <0>         0.1145
     33 H9          5.9266   -1.9591   -2.1717 H         1 <0>         0.1333
     34 H10         3.7457   -0.8220   -2.1136 H         1 <0>         0.1363
     35 H11         5.6541   -4.7018   -0.7080 H         1 <0>         0.1225
     36 H12         5.7094   -6.2465   -2.6248 H         1 <0>         0.1330
     37 H13         7.5543   -6.1249   -4.2511 H         1 <0>         0.1334
     38 H14         9.3433   -4.4581   -3.9611 H         1 <0>         0.1345
     39 H15         9.2836   -2.9079   -2.0489 H         1 <0>         0.1302
     40 H16         5.9461   -4.9283    1.1487 H         1 <0>         0.2164
     41 H17         6.9881   -5.7339    3.4195 H         1 <0>         0.2239
     42 H18         9.4250   -2.6315    1.9711 H         1 <0>         0.2601
     43 H19         9.0418   -4.2902    3.7985 H         1 <0>         0.4651
@<TRIPOS>BOND
     1    1    6 ar
     2    1    2 ar
     3    1   26 1
     4    2    3 ar
     5    2   27 1
     6    3    4 ar
     7    3   28 1
     8    4    5 ar
     9    4    7 1
    10    5    6 ar
    11    5   29 1
    12    6   30 1
    13    7   12 ar
    14    7    8 ar
    15    8    9 ar
    16    8   31 1
    17    9   10 ar
    18    9   32 1
    19   10   11 ar
    20   10   13 1
    21   11   12 ar
    22   11   33 1
    23   12   34 1
    24   13   14 1
    25   13   15 1
    26   13   21 1
    27   15   20 ar
    28   15   16 ar
    29   16   17 ar
    30   16   35 1
    31   17   18 ar
    32   17   36 1
    33   18   19 ar
    34   18   37 1
    35   19   20 ar
    36   19   38 1
    37   20   39 1
    38   21   25 1
    39   21   22 1
    40   22   23 2
    41   22   40 1
    42   23   24 1
    43   23   41 1
    44   24   25 2
    45   24   43 1
    46   25   42 1
@<TRIPOS>MOLECULE
ZINC03812958
   42    45     0     0     0
SMALL
USER_CHARGES

@<TRIPOS>ATOM
      1 C1         -0.1101    1.2005    0.1530 C.ar      1 <0>        -0.1159
      2 C2          0.5295    0.8650    1.3327 C.ar      1 <0>        -0.1173
      3 C3          1.7505    0.2224    1.3000 C.ar      1 <0>        -0.1087
      4 C4          2.3389   -0.0883    0.0758 C.ar      1 <0>        -0.0513
      5 C5          1.6901    0.2521   -1.1095 C.ar      1 <0>        -0.1089
      6 C6          0.4694    0.8945   -1.0651 C.ar      1 <0>        -0.1177
      7 C7          3.6518   -0.7786    0.0344 C.ar      1 <0>        -0.0330
      8 C8          4.2980   -1.1237    1.2196 C.ar      1 <0>        -0.1079
      9 C9          5.5187   -1.7661    1.1753 C.ar      1 <0>        -0.0960
     10 C10         6.1009   -2.0669   -0.0429 C.ar      1 <0>        -0.1086
     11 C11         5.4641   -1.7263   -1.2225 C.ar      1 <0>        -0.0905
     12 C12         4.2401   -1.0892   -1.1899 C.ar      1 <0>        -0.1096
     13 C13         7.4343   -2.7680   -0.0849 C.3       1 <0>         0.2247
     14 H1          8.2296   -2.0301   -0.1898 H         1 <0>         0.1171
     15 C14         7.4680   -3.7133   -1.2581 C.ar      1 <0>        -0.1068
     16 C15         6.4631   -4.6484   -1.4214 C.ar      1 <0>        -0.0943
     17 C16         6.4941   -5.5154   -2.4976 C.ar      1 <0>        -0.1170
     18 C17         7.5297   -5.4471   -3.4107 C.ar      1 <0>        -0.1070
     19 C18         8.5341   -4.5113   -3.2479 C.ar      1 <0>        -0.1183
     20 C19         8.5009   -3.6415   -2.1741 C.ar      1 <0>        -0.0998
     21 N1          7.6286   -3.5225    1.1558 N.pl3     1 <0>        -0.4503
     22 C20         8.6377   -3.3465    2.0638 C.2       1 <0>        -0.0563
     23 C21         8.4364   -4.2428    3.0486 C.2       1 <0>        -0.0275
     24 N2          7.3344   -4.9468    2.7500 N.2       1 <0>        -0.4923
     25 C22         6.8424   -4.5174    1.6202 C.2       1 <0>         0.1908
     26 H2         -1.0676    1.6992    0.1831 H         1 <0>         0.1242
     27 H3          0.0727    1.1065    2.2810 H         1 <0>         0.1256
     28 H4          2.2492   -0.0388    2.2217 H         1 <0>         0.1254
     29 H5          2.1419    0.0139   -2.0611 H         1 <0>         0.1254
     30 H6         -0.0345    1.1585   -1.9832 H         1 <0>         0.1254
     31 H7          3.8446   -0.8886    2.1712 H         1 <0>         0.1284
     32 H8          6.0205   -2.0340    2.0933 H         1 <0>         0.1251
     33 H9          5.9233   -1.9633   -2.1709 H         1 <0>         0.1282
     34 H10         3.7416   -0.8277   -2.1116 H         1 <0>         0.1293
     35 H11         5.6541   -4.7018   -0.7080 H         1 <0>         0.1212
     36 H12         5.7094   -6.2465   -2.6248 H         1 <0>         0.1269
     37 H13         7.5543   -6.1249   -4.2511 H         1 <0>         0.1259
     38 H14         9.3433   -4.4581   -3.9611 H         1 <0>         0.1269
     39 H15         9.2836   -2.9079   -2.0489 H         1 <0>         0.1247
     40 H16         9.4411   -2.6274    2.0021 H         1 <0>         0.1738
     41 H17         9.0540   -4.3720    3.9251 H         1 <0>         0.1697
     42 H18         5.9549   -4.8967    1.1355 H         1 <0>         0.1963
@<TRIPOS>BOND
     1    1    6 ar
     2    1    2 ar
     3    1   26 1
     4    2    3 ar
     5    2   27 1
     6    3    4 ar
     7    3   28 1
     8    4    5 ar
     9    4    7 1
    10    5    6 ar
    11    5   29 1
    12    6   30 1
    13    7   12 ar
    14    7    8 ar
    15    8    9 ar
    16    8   31 1
    17    9   10 ar
    18    9   32 1
    19   10   11 ar
    20   10   13 1
    21   11   12 ar
    22   11   33 1
    23   12   34 1
    24   13   14 1
    25   13   15 1
    26   13   21 1
    27   15   20 ar
    28   15   16 ar
    29   16   17 ar
    30   16   35 1
    31   17   18 ar
    32   17   36 1
    33   18   19 ar
    34   18   37 1
    35   19   20 ar
    36   19   38 1
    37   20   39 1
    38   21   25 1
    39   21   22 1
    40   22   23 2
    41   22   40 1
    42   23   24 1
    43   23   41 1
    44   24   25 2
    45   25   42 1
@<TRIPOS>MOLECULE
ZINC03871723
   43    46     0     0     0
SMALL
USER_CHARGES

@<TRIPOS>ATOM
      1 C1         -0.5921    0.0379   -0.7385 C.ar      1 <0>        -0.1054
      2 C2          0.0264    0.0012    0.4981 C.ar      1 <0>        -0.1162
      3 C3          1.3252   -0.4522    0.6097 C.ar      1 <0>        -0.1032
      4 C4          2.0134   -0.8734   -0.5263 C.ar      1 <0>        -0.0687
      5 C5          1.3854   -0.8343   -1.7695 C.ar      1 <0>        -0.1046
      6 C6          0.0863   -0.3790   -1.8695 C.ar      1 <0>        -0.1174
      7 C7          3.4101   -1.3615   -0.4126 C.ar      1 <0>        -0.0097
      8 C8          4.0363   -1.4056    0.8314 C.ar      1 <0>        -0.1056
      9 C9          5.3354   -1.8609    0.9314 C.ar      1 <0>        -0.0766
     10 C10         6.0158   -2.2724   -0.2004 C.ar      1 <0>        -0.1320
     11 C11         5.3992   -2.2303   -1.4378 C.ar      1 <0>        -0.1052
     12 C12         4.0983   -1.7827   -1.5486 C.ar      1 <0>        -0.1079
     13 C13         7.4343   -2.7680   -0.0849 C.3       1 <0>         0.2277
     14 H1          8.1166   -1.9181   -0.0774 H         1 <0>         0.1410
     15 C14         7.5908   -3.5493    1.1943 C.ar      1 <0>        -0.1343
     16 C15         6.7342   -4.5977    1.4731 C.ar      1 <0>        -0.0940
     17 C16         6.8778   -5.3143    2.6464 C.ar      1 <0>        -0.1140
     18 C17         7.8784   -4.9827    3.5408 C.ar      1 <0>        -0.0905
     19 C18         8.7356   -3.9348    3.2615 C.ar      1 <0>        -0.1134
     20 C19         8.5947   -3.2210    2.0862 C.ar      1 <0>        -0.0915
     21 N1          7.7438   -3.6328   -1.2262 N.pl3     1 <0>        -0.3996
     22 C20         7.0977   -4.7904   -1.5670 C.2       1 <0>         0.0310
     23 C21         7.7003   -5.2611   -2.6755 C.2       1 <0>         0.0033
     24 N2          8.6874   -4.4140   -3.0027 N.pl3     1 <0>        -0.4752
     25 C22         8.7162   -3.4336   -2.1420 C.cat     1 <0>         0.2886
     26 H2         -1.6101    0.3892   -0.8207 H         1 <0>         0.1285
     27 H3         -0.5078    0.3282    1.3779 H         1 <0>         0.1295
     28 H4          1.8074   -0.4802    1.5757 H         1 <0>         0.1264
     29 H5          1.9143   -1.1593   -2.6533 H         1 <0>         0.1242
     30 H6         -0.4015   -0.3485   -2.8326 H         1 <0>         0.1286
     31 H7          3.5062   -1.0838    1.7156 H         1 <0>         0.1363
     32 H8          5.8217   -1.8955    1.8951 H         1 <0>         0.1332
     33 H9          5.9352   -2.5525   -2.3184 H         1 <0>         0.1145
     34 H10         3.6163   -1.7544   -2.5146 H         1 <0>         0.1330
     35 H11         5.9525   -4.8568    0.7744 H         1 <0>         0.1222
     36 H12         6.2081   -6.1330    2.8646 H         1 <0>         0.1329
     37 H13         7.9901   -5.5422    4.4578 H         1 <0>         0.1334
     38 H14         9.5171   -3.6756    3.9604 H         1 <0>         0.1345
     39 H15         9.2667   -2.4047    1.8663 H         1 <0>         0.1302
     40 H16         6.2650   -5.2400   -1.0466 H         1 <0>         0.2165
     41 H17         7.4351   -6.1627   -3.2078 H         1 <0>         0.2240
     42 H18         9.4052   -2.6021   -2.1578 H         1 <0>         0.2602
     43 H19         9.2834   -4.5126   -3.7616 H         1 <0>         0.4651
@<TRIPOS>BOND
     1    1    6 ar
     2    1    2 ar
     3    1   26 1
     4    2    3 ar
     5    2   27 1
     6    3    4 ar
     7    3   28 1
     8    4    5 ar
     9    4    7 1
    10    5    6 ar
    11    5   29 1
    12    6   30 1
    13    7   12 ar
    14    7    8 ar
    15    8    9 ar
    16    8   31 1
    17    9   10 ar
    18    9   32 1
    19   10   11 ar
    20   10   13 1
    21   11   12 ar
    22   11   33 1
    23   12   34 1
    24   13   14 1
    25   13   15 1
    26   13   21 1
    27   15   20 ar
    28   15   16 ar
    29   16   17 ar
    30   16   35 1
    31   17   18 ar
    32   17   36 1
    33   18   19 ar
    34   18   37 1
    35   19   20 ar
    36   19   38 1
    37   20   39 1
    38   21   25 1
    39   21   22 1
    40   22   23 2
    41   22   40 1
    42   23   24 1
    43   23   41 1
    44   24   25 2
    45   24   43 1
    46   25   42 1
@<TRIPOS>MOLECULE
ZINC03871723
   42    45     0     0     0
SMALL
USER_CHARGES

@<TRIPOS>ATOM
      1 C1         -0.5977    0.0193   -0.7492 C.ar      1 <0>        -0.1160
      2 C2          0.0190   -0.0168    0.4884 C.ar      1 <0>        -0.1177
      3 C3          1.3187   -0.4672    0.6017 C.ar      1 <0>        -0.1089
      4 C4          2.0096   -0.8860   -0.5335 C.ar      1 <0>        -0.0512
      5 C5          1.3835   -0.8475   -1.7776 C.ar      1 <0>        -0.1088
      6 C6          0.0835   -0.3953   -1.8794 C.ar      1 <0>        -0.1173
      7 C7          3.4073   -1.3708   -0.4179 C.ar      1 <0>        -0.0331
      8 C8          4.0317   -1.4142    0.8270 C.ar      1 <0>        -0.1095
      9 C9          5.3317   -1.8665    0.9288 C.ar      1 <0>        -0.0905
     10 C10         6.0148   -2.2757   -0.2022 C.ar      1 <0>        -0.1082
     11 C11         5.4000   -2.2342   -1.4406 C.ar      1 <0>        -0.0964
     12 C12         4.0982   -1.7896   -1.5531 C.ar      1 <0>        -0.1078
     13 C13         7.4343   -2.7680   -0.0849 C.3       1 <0>         0.2247
     14 H1          8.1146   -1.9165   -0.0762 H         1 <0>         0.1172
     15 C14         7.5908   -3.5493    1.1943 C.ar      1 <0>        -0.1069
     16 C15         6.7342   -4.5977    1.4731 C.ar      1 <0>        -0.0942
     17 C16         6.8778   -5.3143    2.6464 C.ar      1 <0>        -0.1170
     18 C17         7.8784   -4.9827    3.5408 C.ar      1 <0>        -0.1070
     19 C18         8.7356   -3.9348    3.2615 C.ar      1 <0>        -0.1183
     20 C19         8.5947   -3.2210    2.0862 C.ar      1 <0>        -0.0997
     21 N1          7.7475   -3.6317   -1.2260 N.pl3     1 <0>        -0.4504
     22 C20         8.7374   -3.4301   -2.1496 C.2       1 <0>        -0.0561
     23 C21         8.6749   -4.4573   -3.0183 C.2       1 <0>        -0.0275
     24 N2          7.6741   -5.2640   -2.6356 N.2       1 <0>        -0.4922
     25 C22         7.1173   -4.7785   -1.5598 C.2       1 <0>         0.1904
     26 H2         -1.6164    0.3682   -0.8327 H         1 <0>         0.1242
     27 H3         -0.5174    0.3085    1.3676 H         1 <0>         0.1254
     28 H4          1.7994   -0.4946    1.5685 H         1 <0>         0.1254
     29 H5          1.9145   -1.1707   -2.6608 H         1 <0>         0.1254
     30 H6         -0.4029   -0.3653   -2.8432 H         1 <0>         0.1256
     31 H7          3.4994   -1.0943    1.7106 H         1 <0>         0.1293
     32 H8          5.8166   -1.9006    1.8932 H         1 <0>         0.1281
     33 H9          5.9381   -2.5546   -2.3205 H         1 <0>         0.1252
     34 H10         3.6177   -1.7619   -2.5199 H         1 <0>         0.1284
     35 H11         5.9525   -4.8568    0.7744 H         1 <0>         0.1212
     36 H12         6.2081   -6.1330    2.8646 H         1 <0>         0.1269
     37 H13         7.9901   -5.5422    4.4578 H         1 <0>         0.1259
     38 H14         9.5171   -3.6756    3.9604 H         1 <0>         0.1269
     39 H15         9.2667   -2.4047    1.8663 H         1 <0>         0.1247
     40 H16         9.4344   -2.6056   -2.1767 H         1 <0>         0.1738
     41 H17         9.3179   -4.6054   -3.8733 H         1 <0>         0.1698
     42 H18         6.2882   -5.2194   -1.0263 H         1 <0>         0.1965
@<TRIPOS>BOND
     1    1    6 ar
     2    1    2 ar
     3    1   26 1
     4    2    3 ar
     5    2   27 1
     6    3    4 ar
     7    3   28 1
     8    4    5 ar
     9    4    7 1
    10    5    6 ar
    11    5   29 1
    12    6   30 1
    13    7   12 ar
    14    7    8 ar
    15    8    9 ar
    16    8   31 1
    17    9   10 ar
    18    9   32 1
    19   10   11 ar
    20   10   13 1
    21   11   12 ar
    22   11   33 1
    23   12   34 1
    24   13   14 1
    25   13   15 1
    26   13   21 1
    27   15   20 ar
    28   15   16 ar
    29   16   17 ar
    30   16   35 1
    31   17   18 ar
    32   17   36 1
    33   18   19 ar
    34   18   37 1
    35   19   20 ar
    36   19   38 1
    37   20   39 1
    38   21   25 1
    39   21   22 1
    40   22   23 2
    41   22   40 1
    42   23   24 1
    43   23   41 1
    44   24   25 2
    45   25   42 1
@<TRIPOS>MOLECULE
ZINC00517860
   57    60     0     0     0
SMALL
USER_CHARGES

@<TRIPOS>ATOM
      1 C1         -0.0187    1.5258    0.0104 C.3       1 <0>        -0.1439
      2 C2          0.0021   -0.0041    0.0020 C.3       1 <0>        -0.1178
      3 C3          0.7074   -0.4901   -1.2379 C.2       1 <0>         0.4549
      4 O1          1.1483    0.3055   -2.0332 O.2       1 <0>        -0.5058
      5 O2          0.8459   -1.8068   -1.4587 O.3       1 <0>        -0.3408
      6 C4          1.5252   -2.1962   -2.6541 C.3       1 <0>         0.0914
      7 H1          1.3805   -1.4446   -3.4301 H         1 <0>         0.0895
      8 C5          3.0297   -2.3881   -2.3729 C.3       1 <0>        -0.1401
      9 C6          3.3528   -3.8610   -2.7077 C.3       1 <0>        -0.1222
     10 C7          2.2433   -4.2629   -3.7254 C.3       1 <0>        -0.0724
     11 H2          2.1088   -5.3431   -3.7818 H         1 <0>         0.0907
     12 C8          1.0108   -3.5594   -3.1350 C.3       1 <0>        -0.0512
     13 C9         -0.1217   -3.4370   -4.1301 C.3       1 <0>        -0.1079
     14 C10         0.3574   -2.7307   -5.3952 C.3       1 <0>        -0.1241
     15 C11         1.4850   -3.5550   -6.0343 C.3       1 <0>        -0.0633
     16 H3          1.1166   -4.5514   -6.2781 H         1 <0>         0.0800
     17 C12         2.6635   -3.6680   -5.0757 C.3       1 <0>        -0.0759
     18 H4          3.0557   -2.6658   -4.9032 H         1 <0>         0.0703
     19 C13         3.8001   -4.5320   -5.6163 C.3       1 <0>        -0.1097
     20 C14         3.9186   -4.4677   -7.1317 C.3       1 <0>        -0.0931
     21 C15         3.3577   -3.1561   -7.6219 C.2       1 <0>        -0.0159
     22 C16         4.1228   -2.2994   -8.2904 C.2       1 <0>        -0.2435
     23 C17         3.5908   -1.0206   -8.7574 C.2       1 <0>         0.3875
     24 O3          4.2983   -0.2626   -9.3874 O.2       1 <0>        -0.4646
     25 C18         2.1617   -0.6442   -8.4562 C.3       1 <0>        -0.1710
     26 C19         1.7250   -1.3446   -7.1648 C.3       1 <0>        -0.1088
     27 C20         1.8955   -2.8288   -7.3219 C.3       1 <0>        -0.0323
     28 C21         1.0286   -3.3201   -8.4829 C.3       1 <0>        -0.1426
     29 C22         0.5111   -4.3579   -1.9293 C.3       1 <0>        -0.1367
     30 H5          1.0039    1.9031    0.0027 H         1 <0>         0.0638
     31 H6         -0.5459    1.8868   -0.8726 H         1 <0>         0.0639
     32 H7         -0.5289    1.8773    0.9072 H         1 <0>         0.0706
     33 H8          0.5293   -0.3651    0.8851 H         1 <0>         0.1049
     34 H9         -1.0205   -0.3814    0.0098 H         1 <0>         0.1049
     35 H10         3.6163   -1.7232   -3.0068 H         1 <0>         0.0728
     36 H11         3.2423   -2.1880   -1.3227 H         1 <0>         0.0722
     37 H12         4.3391   -3.9422   -3.1647 H         1 <0>         0.0724
     38 H13         3.2928   -4.4792   -1.8120 H         1 <0>         0.0708
     39 H14        -0.4845   -4.4320   -4.3879 H         1 <0>         0.0711
     40 H15        -0.9343   -2.8643   -3.6830 H         1 <0>         0.0639
     41 H16        -0.4709   -2.6399   -6.0979 H         1 <0>         0.0706
     42 H17         0.7306   -1.7390   -5.1398 H         1 <0>         0.0702
     43 H18         4.7383   -4.1951   -5.1754 H         1 <0>         0.0663
     44 H19         3.6266   -5.5667   -5.3206 H         1 <0>         0.0695
     45 H20         4.9675   -4.5443   -7.4180 H         1 <0>         0.0770
     46 H21         3.3590   -5.2911   -7.5755 H         1 <0>         0.0837
     47 H22         5.1535   -2.5518   -8.4914 H         1 <0>         0.1297
     48 H23         2.0879    0.4358   -8.3285 H         1 <0>         0.0952
     49 H24         1.5198   -0.9609   -9.2782 H         1 <0>         0.1039
     50 H25         2.3353   -0.9913   -6.3336 H         1 <0>         0.0715
     51 H26         0.6754   -1.1263   -6.9681 H         1 <0>         0.0860
     52 H27        -0.0194   -3.1126   -8.2670 H         1 <0>         0.0667
     53 H28         1.3202   -2.8043   -9.3978 H         1 <0>         0.0603
     54 H29         1.1675   -4.3936   -8.6111 H         1 <0>         0.0612
     55 H30        -0.3135   -3.8243   -1.4567 H         1 <0>         0.0630
     56 H31         0.1677   -5.3382   -2.2597 H         1 <0>         0.0544
     57 H32         1.3232   -4.4799   -1.2125 H         1 <0>         0.0584
@<TRIPOS>BOND
     1    1    2 1
     2    1   30 1
     3    1   31 1
     4    1   32 1
     5    2    3 1
     6    2   33 1
     7    2   34 1
     8    3    4 2
     9    3    5 1
    10    5    6 1
    11    6    7 1
    12    6   12 1
    13    6    8 1
    14    8    9 1
    15    8   35 1
    16    8   36 1
    17    9   10 1
    18    9   37 1
    19    9   38 1
    20   10   11 1
    21   10   17 1
    22   10   12 1
    23   12   13 1
    24   12   29 1
    25   13   14 1
    26   13   39 1
    27   13   40 1
    28   14   15 1
    29   14   41 1
    30   14   42 1
    31   15   16 1
    32   15   27 1
    33   15   17 1
    34   17   18 1
    35   17   19 1
    36   19   20 1
    37   19   43 1
    38   19   44 1
    39   20   21 1
    40   20   45 1
    41   20   46 1
    42   21   27 1
    43   21   22 2
    44   22   23 1
    45   22   47 1
    46   23   24 2
    47   23   25 1
    48   25   26 1
    49   25   48 1
    50   25   49 1
    51   26   27 1
    52   26   50 1
    53   26   51 1
    54   27   28 1
    55   28   52 1
    56   28   53 1
    57   28   54 1
    58   29   55 1
    59   29   56 1
    60   29   57 1
@<TRIPOS>MOLECULE
ZINC03979064
   57    60     0     0     0
SMALL
USER_CHARGES

@<TRIPOS>ATOM
      1 C1         -0.2348    1.4982   -0.0243 C.3       1 <0>        -0.1441
      2 C2         -0.1692   -0.0304   -0.0288 C.3       1 <0>        -0.1175
      3 C3          0.5766   -0.4976   -1.2521 C.2       1 <0>         0.4554
      4 O1          1.0111    0.3093   -2.0396 O.2       1 <0>        -0.5067
      5 O2          0.7583   -1.8101   -1.4669 O.3       1 <0>        -0.3379
      6 C4          1.4731   -2.1808   -2.6447 C.3       1 <0>         0.0848
      7 H1          1.3394   -1.4527   -3.4376 H         1 <0>         0.0894
      8 C5          2.9776   -2.4029   -2.3314 C.3       1 <0>        -0.1409
      9 C6          3.4265   -3.6065   -3.2002 C.3       1 <0>        -0.1146
     10 C7          2.2013   -3.9330   -4.0562 C.3       1 <0>        -0.0761
     11 H2          2.1922   -3.2142   -4.9002 H         1 <0>         0.0698
     12 C8          1.0243   -3.5857   -3.1207 C.3       1 <0>        -0.0472
     13 C9         -0.2623   -3.5848   -3.9070 C.3       1 <0>        -0.1051
     14 C10        -0.3668   -4.8091   -4.8181 C.3       1 <0>        -0.1107
     15 C11         0.6844   -5.8691   -4.5382 C.3       1 <0>        -0.0664
     16 H3          0.5164   -6.3054   -3.5477 H         1 <0>         0.0835
     17 C12         2.1035   -5.3187   -4.6199 C.3       1 <0>        -0.0659
     18 H4          2.3595   -5.2560   -5.6962 H         1 <0>         0.0648
     19 C13         3.1079   -6.2818   -3.9971 C.3       1 <0>        -0.1086
     20 C14         2.7230   -7.7285   -4.3172 C.3       1 <0>        -0.0971
     21 C15         1.8832   -7.7414   -5.5741 C.2       1 <0>        -0.0143
     22 C16         2.3118   -8.3589   -6.6673 C.2       1 <0>        -0.2416
     23 C17         1.5135   -8.3724   -7.8907 C.2       1 <0>         0.3878
     24 O3          1.9118   -8.9772   -8.8654 O.2       1 <0>        -0.4655
     25 C18         0.2001   -7.6360   -7.9475 C.3       1 <0>        -0.1693
     26 C19         0.2037   -6.4977   -6.9244 C.3       1 <0>        -0.1057
     27 C20         0.5510   -7.0303   -5.5403 C.3       1 <0>        -0.0358
     28 C21        -0.5324   -7.9919   -5.0490 C.3       1 <0>        -0.1400
     29 C22         0.9424   -4.4915   -1.8911 C.3       1 <0>        -0.1384
     30 H5          0.7763    1.9052   -0.0109 H         1 <0>         0.0638
     31 H6         -0.7532    1.8422   -0.9193 H         1 <0>         0.0638
     32 H7         -0.7743    1.8361    0.8605 H         1 <0>         0.0708
     33 H8          0.3491   -0.3745    0.8662 H         1 <0>         0.1053
     34 H9         -1.1803   -0.4374   -0.0422 H         1 <0>         0.1052
     35 H10         3.5494   -1.5161   -2.6049 H         1 <0>         0.0687
     36 H11         3.1165   -2.6287   -1.2764 H         1 <0>         0.0764
     37 H12         4.2606   -3.3137   -3.8385 H         1 <0>         0.0679
     38 H13         3.7045   -4.4450   -2.5709 H         1 <0>         0.0778
     39 H14        -1.1165   -3.5687   -3.2168 H         1 <0>         0.0647
     40 H15        -0.3168   -2.6725   -4.5182 H         1 <0>         0.0602
     41 H16        -1.3666   -5.2471   -4.7078 H         1 <0>         0.0658
     42 H17        -0.2730   -4.4735   -5.8601 H         1 <0>         0.0650
     43 H18         4.0971   -6.0798   -4.4016 H         1 <0>         0.0688
     44 H19         3.1170   -6.1541   -2.9179 H         1 <0>         0.0735
     45 H20         3.6265   -8.3145   -4.4771 H         1 <0>         0.0770
     46 H21         2.1530   -8.1434   -3.4890 H         1 <0>         0.0837
     47 H22         3.2691   -8.8602   -6.6533 H         1 <0>         0.1299
     48 H23         0.0706   -7.2155   -8.9501 H         1 <0>         0.0942
     49 H24        -0.6203   -8.3230   -7.7506 H         1 <0>         0.1027
     50 H25         0.9379   -5.7460   -7.2243 H         1 <0>         0.0719
     51 H26        -0.7865   -6.0348   -6.9039 H         1 <0>         0.0830
     52 H27        -1.4817   -7.4616   -4.9732 H         1 <0>         0.0671
     53 H28        -0.6326   -8.8171   -5.7540 H         1 <0>         0.0592
     54 H29        -0.2550   -8.3822   -4.0699 H         1 <0>         0.0615
     55 H30         0.3167   -4.0198   -1.1334 H         1 <0>         0.0660
     56 H31         0.5091   -5.4506   -2.1745 H         1 <0>         0.0617
     57 H32         1.9432   -4.6495   -1.4890 H         1 <0>         0.0581
@<TRIPOS>BOND
     1    1    2 1
     2    1   30 1
     3    1   31 1
     4    1   32 1
     5    2    3 1
     6    2   33 1
     7    2   34 1
     8    3    4 2
     9    3    5 1
    10    5    6 1
    11    6    7 1
    12    6   12 1
    13    6    8 1
    14    8    9 1
    15    8   35 1
    16    8   36 1
    17    9   10 1
    18    9   37 1
    19    9   38 1
    20   10   11 1
    21   10   17 1
    22   10   12 1
    23   12   13 1
    24   12   29 1
    25   13   14 1
    26   13   39 1
    27   13   40 1
    28   14   15 1
    29   14   41 1
    30   14   42 1
    31   15   16 1
    32   15   27 1
    33   15   17 1
    34   17   18 1
    35   17   19 1
    36   19   20 1
    37   19   43 1
    38   19   44 1
    39   20   21 1
    40   20   45 1
    41   20   46 1
    42   21   27 1
    43   21   22 2
    44   22   23 1
    45   22   47 1
    46   23   24 2
    47   23   25 1
    48   25   26 1
    49   25   48 1
    50   25   49 1
    51   26   27 1
    52   26   50 1
    53   26   51 1
    54   27   28 1
    55   28   52 1
    56   28   53 1
    57   28   54 1
    58   29   55 1
    59   29   56 1
    60   29   57 1
@<TRIPOS>MOLECULE
ZINC03979065
   57    60     0     0     0
SMALL
USER_CHARGES

@<TRIPOS>ATOM
      1 C1         -0.0187    1.5258    0.0104 C.3       1 <0>        -0.1441
      2 C2          0.0021   -0.0041    0.0020 C.3       1 <0>        -0.1177
      3 C3          0.7074   -0.4901   -1.2379 C.2       1 <0>         0.4548
      4 O1          1.1483    0.3055   -2.0332 O.2       1 <0>        -0.5067
      5 O2          0.8459   -1.8068   -1.4587 O.3       1 <0>        -0.3374
      6 C4          1.5237   -2.1954   -2.6515 C.3       1 <0>         0.0870
      7 H1          1.3927   -1.4609   -3.4373 H         1 <0>         0.0866
      8 C5          3.0299   -2.4394   -2.3667 C.3       1 <0>        -0.1405
      9 C6          3.3548   -3.8592   -2.9219 C.3       1 <0>        -0.1150
     10 C7          2.2203   -4.0552   -3.9413 C.3       1 <0>        -0.0780
     11 H2          2.3962   -3.3400   -4.7768 H         1 <0>         0.0734
     12 C8          1.0085   -3.5678   -3.1214 C.3       1 <0>        -0.0541
     13 C9         -0.2231   -3.5578   -3.9929 C.3       1 <0>        -0.1070
     14 C10        -0.4704   -4.9937   -4.5017 C.3       1 <0>        -0.1071
     15 C11         0.7237   -5.4970   -5.2868 C.3       1 <0>        -0.0636
     16 H3          0.8445   -4.7689   -6.1210 H         1 <0>         0.0637
     17 C12         2.0374   -5.4337   -4.5185 C.3       1 <0>        -0.0557
     18 H4          2.8413   -5.5550   -5.2957 H         1 <0>         0.0618
     19 C13         2.2770   -6.5384   -3.5155 C.3       1 <0>        -0.1090
     20 C14         1.3179   -7.7128   -3.6811 C.3       1 <0>        -0.0918
     21 C15         1.1207   -7.9427   -5.1580 C.2       1 <0>        -0.0140
     22 C16         1.4848   -9.0862   -5.7256 C.2       1 <0>        -0.2432
     23 C17         1.3272   -9.2964   -7.1623 C.2       1 <0>         0.3886
     24 O3          1.5220  -10.3993   -7.6344 O.2       1 <0>        -0.4666
     25 C18         0.9414   -8.1537   -8.0647 C.3       1 <0>        -0.1676
     26 C19         1.1621   -6.8191   -7.3557 C.3       1 <0>        -0.1060
     27 C20         0.4999   -6.8349   -5.9726 C.3       1 <0>        -0.0276
     28 C21        -0.9930   -7.1262   -6.1391 C.3       1 <0>        -0.1412
     29 C22         0.7387   -4.3961   -1.8672 C.3       1 <0>        -0.1377
     30 H5          1.0039    1.9031    0.0027 H         1 <0>         0.0637
     31 H6         -0.5459    1.8868   -0.8726 H         1 <0>         0.0637
     32 H7         -0.5289    1.8773    0.9072 H         1 <0>         0.0707
     33 H8          0.5293   -0.3651    0.8851 H         1 <0>         0.1051
     34 H9         -1.0205   -0.3814    0.0098 H         1 <0>         0.1051
     35 H10         3.6319   -1.6938   -2.8840 H         1 <0>         0.0726
     36 H11         3.2199   -2.4061   -1.2962 H         1 <0>         0.0744
     37 H12         4.3204   -3.8487   -3.4327 H         1 <0>         0.0673
     38 H13         3.3426   -4.6054   -2.1407 H         1 <0>         0.0794
     39 H14        -1.0876   -3.2216   -3.4175 H         1 <0>         0.0671
     40 H15        -0.0739   -2.8916   -4.8443 H         1 <0>         0.0624
     41 H16        -0.6965   -5.6551   -3.6747 H         1 <0>         0.0701
     42 H17        -1.3519   -4.9254   -5.1528 H         1 <0>         0.0654
     43 H18         3.2946   -6.9347   -3.6992 H         1 <0>         0.0553
     44 H19         2.2717   -6.1961   -2.4951 H         1 <0>         0.0798
     45 H20         1.7519   -8.6019   -3.2263 H         1 <0>         0.0769
     46 H21         0.3663   -7.4809   -3.2096 H         1 <0>         0.0841
     47 H22         1.9047   -9.8726   -5.1157 H         1 <0>         0.1306
     48 H23         1.5730   -8.1873   -8.9620 H         1 <0>         0.0954
     49 H24        -0.0950   -8.2586   -8.3793 H         1 <0>         0.1037
     50 H25         2.2326   -6.6400   -7.2356 H         1 <0>         0.0712
     51 H26         0.7295   -6.0119   -7.9497 H         1 <0>         0.0794
     52 H27        -1.4506   -6.3437   -6.7444 H         1 <0>         0.0666
     53 H28        -1.1224   -8.0895   -6.6325 H         1 <0>         0.0583
     54 H29        -1.4695   -7.1530   -5.1592 H         1 <0>         0.0644
     55 H30        -0.0275   -3.9063   -1.2662 H         1 <0>         0.0643
     56 H31         0.3949   -5.3896   -2.1548 H         1 <0>         0.0604
     57 H32         1.6562   -4.4835   -1.2852 H         1 <0>         0.0579
@<TRIPOS>BOND
     1    1    2 1
     2    1   30 1
     3    1   31 1
     4    1   32 1
     5    2    3 1
     6    2   33 1
     7    2   34 1
     8    3    4 2
     9    3    5 1
    10    5    6 1
    11    6    7 1
    12    6   12 1
    13    6    8 1
    14    8    9 1
    15    8   35 1
    16    8   36 1
    17    9   10 1
    18    9   37 1
    19    9   38 1
    20   10   11 1
    21   10   17 1
    22   10   12 1
    23   12   13 1
    24   12   29 1
    25   13   14 1
    26   13   39 1
    27   13   40 1
    28   14   15 1
    29   14   41 1
    30   14   42 1
    31   15   16 1
    32   15   27 1
    33   15   17 1
    34   17   18 1
    35   17   19 1
    36   19   20 1
    37   19   43 1
    38   19   44 1
    39   20   21 1
    40   20   45 1
    41   20   46 1
    42   21   27 1
    43   21   22 2
    44   22   23 1
    45   22   47 1
    46   23   24 2
    47   23   25 1
    48   25   26 1
    49   25   48 1
    50   25   49 1
    51   26   27 1
    52   26   50 1
    53   26   51 1
    54   27   28 1
    55   28   52 1
    56   28   53 1
    57   28   54 1
    58   29   55 1
    59   29   56 1
    60   29   57 1
@<TRIPOS>MOLECULE
ZINC03979066
   57    60     0     0     0
SMALL
USER_CHARGES

@<TRIPOS>ATOM
      1 C1         -0.0187    1.5258    0.0104 C.3       1 <0>        -0.1440
      2 C2          0.0021   -0.0041    0.0020 C.3       1 <0>        -0.1177
      3 C3          0.7074   -0.4901   -1.2379 C.2       1 <0>         0.4562
      4 O1          1.1483    0.3055   -2.0332 O.2       1 <0>        -0.5061
      5 O2          0.8459   -1.8068   -1.4587 O.3       1 <0>        -0.3404
      6 C4          1.5254   -2.1963   -2.6544 C.3       1 <0>         0.0920
      7 H1          1.3859   -1.4507   -3.4351 H         1 <0>         0.0906
      8 C5          3.0305   -2.4191   -2.3742 C.3       1 <0>        -0.1421
      9 C6          3.4576   -3.6409   -3.2113 C.3       1 <0>        -0.1226
     10 C7          2.2035   -4.0743   -4.0150 C.3       1 <0>        -0.0707
     11 H2          2.1762   -5.1536   -4.1532 H         1 <0>         0.0933
     12 C8          1.0472   -3.5818   -3.1240 C.3       1 <0>        -0.0456
     13 C9         -0.2892   -3.5571   -3.8143 C.3       1 <0>        -0.1068
     14 C10        -0.2713   -2.9418   -5.2015 C.3       1 <0>        -0.1092
     15 C11         0.8856   -3.4121   -6.0722 C.3       1 <0>        -0.0614
     16 H3          0.9569   -2.6484   -6.8997 H         1 <0>         0.0611
     17 C12         2.2034   -3.3115   -5.3335 C.3       1 <0>        -0.0735
     18 H4          2.3596   -2.2399   -5.0883 H         1 <0>         0.0700
     19 C13         3.3748   -3.7328   -6.2173 C.3       1 <0>        -0.1135
     20 C14         3.1739   -5.1759   -6.6827 C.3       1 <0>        -0.0978
     21 C15         1.8621   -5.2468   -7.4417 C.2       1 <0>        -0.0131
     22 C16         1.8843   -5.7572   -8.6697 C.2       1 <0>        -0.2449
     23 C17         0.6597   -5.8810   -9.4633 C.2       1 <0>         0.3880
     24 O3          0.6989   -6.1497  -10.6485 O.2       1 <0>        -0.4615
     25 C18        -0.6584   -5.6874   -8.7442 C.3       1 <0>        -0.1671
     26 C19        -0.5165   -4.5186   -7.7773 C.3       1 <0>        -0.1087
     27 C20         0.6175   -4.7319   -6.7750 C.3       1 <0>        -0.0167
     28 C21         0.1549   -5.8094   -5.7980 C.3       1 <0>        -0.1491
     29 C22         0.9464   -4.5060   -1.9021 C.3       1 <0>        -0.1409
     30 H5          1.0039    1.9031    0.0027 H         1 <0>         0.0638
     31 H6         -0.5459    1.8868   -0.8726 H         1 <0>         0.0638
     32 H7         -0.5289    1.8773    0.9072 H         1 <0>         0.0708
     33 H8          0.5293   -0.3651    0.8851 H         1 <0>         0.1052
     34 H9         -1.0205   -0.3814    0.0098 H         1 <0>         0.1051
     35 H10         3.6013   -1.5418   -2.6762 H         1 <0>         0.0693
     36 H11         3.1889   -2.6196   -1.3147 H         1 <0>         0.0744
     37 H12         4.2649   -3.3591   -3.8867 H         1 <0>         0.0726
     38 H13         3.7878   -4.4482   -2.5586 H         1 <0>         0.0698
     39 H14        -0.7288   -4.5487   -3.8202 H         1 <0>         0.0757
     40 H15        -0.9644   -2.9393   -3.1889 H         1 <0>         0.0554
     41 H16        -1.2230   -3.1577   -5.7063 H         1 <0>         0.0692
     42 H17        -0.2147   -1.8449   -5.1012 H         1 <0>         0.0588
     43 H18         3.4220   -3.0773   -7.0921 H         1 <0>         0.0659
     44 H19         4.3118   -3.6518   -5.6687 H         1 <0>         0.0759
     45 H20         3.9930   -5.4629   -7.3428 H         1 <0>         0.0761
     46 H21         3.1462   -5.8432   -5.8243 H         1 <0>         0.0860
     47 H22         2.8270   -6.0886   -9.0897 H         1 <0>         0.1314
     48 H23        -1.4413   -5.4641   -9.4765 H         1 <0>         0.0922
     49 H24        -0.9287   -6.5981   -8.2095 H         1 <0>         0.1020
     50 H25        -0.3126   -3.6083   -8.3401 H         1 <0>         0.0680
     51 H26        -1.4473   -4.3955   -7.2246 H         1 <0>         0.0816
     52 H27        -0.7656   -5.4874   -5.3112 H         1 <0>         0.0701
     53 H28        -0.0261   -6.7377   -6.3399 H         1 <0>         0.0567
     54 H29         0.9261   -5.9726   -5.0453 H         1 <0>         0.0652
     55 H30         0.2153   -4.1032   -1.2012 H         1 <0>         0.0633
     56 H31         0.6333   -5.4995   -2.2228 H         1 <0>         0.0554
     57 H32         1.9192   -4.5713   -1.4147 H         1 <0>         0.0585
@<TRIPOS>BOND
     1    1    2 1
     2    1   30 1
     3    1   31 1
     4    1   32 1
     5    2    3 1
     6    2   33 1
     7    2   34 1
     8    3    4 2
     9    3    5 1
    10    5    6 1
    11    6    7 1
    12    6   12 1
    13    6    8 1
    14    8    9 1
    15    8   35 1
    16    8   36 1
    17    9   10 1
    18    9   37 1
    19    9   38 1
    20   10   11 1
    21   10   17 1
    22   10   12 1
    23   12   13 1
    24   12   29 1
    25   13   14 1
    26   13   39 1
    27   13   40 1
    28   14   15 1
    29   14   41 1
    30   14   42 1
    31   15   16 1
    32   15   27 1
    33   15   17 1
    34   17   18 1
    35   17   19 1
    36   19   20 1
    37   19   43 1
    38   19   44 1
    39   20   21 1
    40   20   45 1
    41   20   46 1
    42   21   27 1
    43   21   22 2
    44   22   23 1
    45   22   47 1
    46   23   24 2
    47   23   25 1
    48   25   26 1
    49   25   48 1
    50   25   49 1
    51   26   27 1
    52   26   50 1
    53   26   51 1
    54   27   28 1
    55   28   52 1
    56   28   53 1
    57   28   54 1
    58   29   55 1
    59   29   56 1
    60   29   57 1
@<TRIPOS>MOLECULE
ZINC00643143
   65    69     0     0     0
SMALL
USER_CHARGES

@<TRIPOS>ATOM
      1 C1          2.3952   -0.7566    1.2944 C.3       1 <0>        -0.1772
      2 C2          2.3911    0.0040   -0.0066 C.2       1 <0>         0.5136
      3 O1          2.3896    1.2168   -0.0000 O.2       1 <0>        -0.5396
      4 N1          2.3891   -0.6636   -1.1775 N.am      1 <0>        -0.6164
      5 C3          2.3847   -2.1330   -1.2007 C.3       1 <0>         0.0881
      6 C4          1.1892   -2.6064   -2.0367 C.3       1 <0>         0.1060
      7 N2          1.1909   -1.8779   -3.3131 N.pl3     1 <0>        -0.6289
      8 C5          1.1953   -0.4084   -3.2899 C.3       1 <0>         0.1083
      9 C6          2.3851    0.0650   -2.4538 C.3       1 <0>         0.0942
     10 C7          1.1889   -2.5710   -4.5288 C.ar      1 <0>         0.1983
     11 C8          1.0744   -1.8751   -5.7250 C.ar      1 <0>        -0.1597
     12 C9          1.0730   -2.5599   -6.9243 C.ar      1 <0>        -0.0922
     13 C10         1.1857   -3.9423   -6.9342 C.ar      1 <0>         0.0600
     14 C11         1.2996   -4.6382   -5.7398 C.ar      1 <0>        -0.1520
     15 C12         1.3070   -3.9545   -4.5398 C.ar      1 <0>        -0.1606
     16 O2          1.1842   -4.6158   -8.1157 O.3       1 <0>        -0.3149
     17 C13         1.3038   -6.0384   -8.0517 C.3       1 <0>         0.0681
     18 C14         1.2832   -6.6162   -9.4682 C.3       1 <0>         0.0487
     19 C15         1.4415   -8.1570   -9.4411 C.3       1 <0>         0.0198
     20 O3          2.0261   -8.4476  -10.7267 O.3       1 <0>        -0.3482
     21 C16         2.6425   -7.2417  -11.1969 C.3       1 <0>         0.2904
     22 O4          2.4594   -6.2128  -10.2098 O.3       1 <0>        -0.3310
     23 C17         1.9929   -6.8120  -12.5138 C.3       1 <0>         0.0743
     24 N3          0.5601   -6.5918  -12.3026 N.pl3     1 <0>        -0.4104
     25 C18        -0.4322   -7.5266  -12.4261 C.2       1 <0>         0.0348
     26 C19        -1.5921   -6.9032  -12.1438 C.2       1 <0>         0.0007
     27 N4         -1.3156   -5.6228  -11.8558 N.pl3     1 <0>        -0.4742
     28 C20        -0.0279   -5.4302  -11.9440 C.cat     1 <0>         0.2915
     29 C21         4.1148   -7.4775  -11.4154 C.ar      1 <0>        -0.1039
     30 C22         4.6677   -7.2821  -12.6673 C.ar      1 <0>        -0.0821
     31 C23         6.0178   -7.4982  -12.8684 C.ar      1 <0>        -0.1009
     32 C24         6.8171   -7.9098  -11.8165 C.ar      1 <0>        -0.0037
     33 C25         6.2647   -8.1050  -10.5637 C.ar      1 <0>        -0.1014
     34 C26         4.9139   -7.8839  -10.3618 C.ar      1 <0>         0.0199
     35 Cl1         4.2207   -8.1227   -8.7882 Cl        1 <0>        -0.0418
     36 Cl2         8.5129   -8.1817  -12.0695 Cl        1 <0>        -0.0326
     37 H1          1.3685   -0.9413    1.6105 H         1 <0>         0.0962
     38 H2          2.9099   -1.7076    1.1576 H         1 <0>         0.0829
     39 H3          2.9101   -0.1710    2.0560 H         1 <0>         0.0970
     40 H4          3.3104   -2.4946   -1.6485 H         1 <0>         0.0755
     41 H5          2.2940   -2.5147   -0.1837 H         1 <0>         0.1022
     42 H6          1.2760   -3.6763   -2.2261 H         1 <0>         0.0954
     43 H7          0.2632   -2.4013   -1.4997 H         1 <0>         0.0708
     44 H8          1.2861   -0.0267   -4.3068 H         1 <0>         0.0956
     45 H9          0.2697   -0.0468   -2.8421 H         1 <0>         0.0696
     46 H10         2.2946    1.1346   -2.2643 H         1 <0>         0.1049
     47 H11         3.3108   -0.1365   -2.9929 H         1 <0>         0.0718
     48 H12         0.9862   -0.7987   -5.7174 H         1 <0>         0.1332
     49 H13         0.9836   -2.0189   -7.8548 H         1 <0>         0.1291
     50 H14         1.3871   -5.7146   -5.7484 H         1 <0>         0.1230
     51 H15         1.4005   -4.4961   -3.6102 H         1 <0>         0.1286
     52 H16         2.2428   -6.3025   -7.5652 H         1 <0>         0.0783
     53 H17         0.4708   -6.4477   -7.4801 H         1 <0>         0.0836
     54 H18         0.3727   -6.3261   -9.9926 H         1 <0>         0.0786
     55 H19         2.1103   -8.4614   -8.6360 H         1 <0>         0.0988
     56 H20         0.4706   -8.6422   -9.3408 H         1 <0>         0.1150
     57 H21         2.4549   -5.8884  -12.8625 H         1 <0>         0.1457
     58 H22         2.1343   -7.5934  -13.2606 H         1 <0>         0.1475
     59 H23        -0.3087   -8.5645  -12.6980 H         1 <0>         0.2255
     60 H24        -2.5730   -7.3551  -12.1485 H         1 <0>         0.2264
     61 H25         0.4828   -4.4959  -11.7627 H         1 <0>         0.2614
     62 H26         4.0442   -6.9609  -13.4886 H         1 <0>         0.1450
     63 H27         6.4490   -7.3461  -13.8469 H         1 <0>         0.1524
     64 H28         6.8882   -8.4262   -9.7424 H         1 <0>         0.1545
     65 H29        -1.9692   -4.9473  -11.6161 H         1 <0>         0.4668
@<TRIPOS>BOND
     1    1    2 1
     2    1   37 1
     3    1   38 1
     4    1   39 1
     5    2    3 2
     6    2    4 am
     7    4    9 1
     8    4    5 1
     9    5    6 1
    10    5   40 1
    11    5   41 1
    12    6    7 1
    13    6   42 1
    14    6   43 1
    15    7    8 1
    16    7   10 1
    17    8    9 1
    18    8   44 1
    19    8   45 1
    20    9   46 1
    21    9   47 1
    22   10   15 ar
    23   10   11 ar
    24   11   12 ar
    25   11   48 1
    26   12   13 ar
    27   12   49 1
    28   13   14 ar
    29   13   16 1
    30   14   15 ar
    31   14   50 1
    32   15   51 1
    33   16   17 1
    34   17   18 1
    35   17   52 1
    36   17   53 1
    37   18   22 1
    38   18   19 1
    39   18   54 1
    40   19   20 1
    41   19   55 1
    42   19   56 1
    43   20   21 1
    44   21   22 1
    45   21   23 1
    46   21   29 1
    47   23   24 1
    48   23   57 1
    49   23   58 1
    50   24   28 1
    51   24   25 1
    52   25   26 2
    53   25   59 1
    54   26   27 1
    55   26   60 1
    56   27   28 2
    57   27   65 1
    58   28   61 1
    59   29   34 ar
    60   29   30 ar
    61   30   31 ar
    62   30   62 1
    63   31   32 ar
    64   31   63 1
    65   32   33 ar
    66   32   36 1
    67   33   34 ar
    68   33   64 1
    69   34   35 1
@<TRIPOS>MOLECULE
ZINC10272297
   52    55     0     0     0
SMALL
USER_CHARGES

@<TRIPOS>ATOM
      1 C1         -0.0186    1.5228    0.0104 C.3       1 <0>        -0.1433
      2 C2          0.0021   -0.0041    0.0020 C.3       1 <0>         0.0154
      3 C3         -1.3893   -0.5796    0.0219 C.3       1 <0>        -0.0999
      4 C4         -1.9935   -0.5482    1.4301 C.3       1 <0>        -0.1095
      5 C5         -1.1579    0.2244    2.4319 C.3       1 <0>        -0.0700
      6 H1         -1.1521    1.2872    2.1587 H         1 <0>         0.0773
      7 C6          0.2826   -0.2883    2.5036 C.3       1 <0>        -0.0653
      8 H2          0.2881   -1.2104    3.1170 H         1 <0>         0.0701
      9 C7          0.8344   -0.6072    1.1522 C.3       1 <0>        -0.0708
     10 H3          0.8489   -1.7128    1.0290 H         1 <0>         0.0700
     11 C8          2.2412   -0.0898    0.8157 C.3       1 <0>        -0.1094
     12 C9          2.2852   -0.2290   -0.7320 C.3       1 <0>        -0.1170
     13 C10         0.8448   -0.4171   -1.1947 C.2       1 <0>         0.0549
     14 N1          0.4234   -0.8245   -2.3238 N.2       1 <0>        -0.2187
     15 N2          1.3361   -1.1687   -3.3294 N.pl3     1 <0>        -0.7935
     16 C11         1.1009    0.7691    3.2556 C.3       1 <0>        -0.0802
     17 C12         0.4795    0.9247    4.6189 C.2       1 <0>        -0.1633
     18 C13        -0.7654    0.6565    4.8668 C.2       1 <0>        -0.0997
     19 C14        -1.7592    0.1850    3.8341 C.3       1 <0>        -0.0125
     20 C15        -2.2397   -1.2069    4.2232 C.3       1 <0>        -0.1011
     21 C16        -1.7416   -1.5642    5.6240 C.3       1 <0>        -0.1091
     22 C17        -2.0472   -0.4693    6.6396 C.3       1 <0>         0.1118
     23 H4         -1.7304   -0.8051    7.6325 H         1 <0>         0.0502
     24 C18        -1.2887    0.8172    6.2842 C.3       1 <0>        -0.1213
     25 O1         -3.4520   -0.2110    6.6706 O.3       1 <0>        -0.5622
     26 C19        -2.9576    1.1393    3.8467 C.3       1 <0>        -0.1451
     27 H5          0.9751    1.9010   -0.2298 H         1 <0>         0.0571
     28 H6         -0.7326    1.8806   -0.7314 H         1 <0>         0.0578
     29 H7         -0.3131    1.8767    0.9984 H         1 <0>         0.0722
     30 H8         -2.0331   -0.0131   -0.6646 H         1 <0>         0.0638
     31 H9         -1.3609   -1.6184   -0.3369 H         1 <0>         0.0635
     32 H10        -2.9979   -0.1080    1.3696 H         1 <0>         0.0625
     33 H11        -2.1188   -1.5828    1.7771 H         1 <0>         0.0621
     34 H12         2.3770    0.9425    1.1224 H         1 <0>         0.0778
     35 H13         3.0011   -0.7266    1.2745 H         1 <0>         0.0680
     36 H14         2.7069    0.6725   -1.1744 H         1 <0>         0.0766
     37 H15         2.8823   -1.0971   -1.0090 H         1 <0>         0.0679
     38 H16         2.2893   -1.0962   -3.1648 H         1 <0>         0.3733
     39 H17         1.0149   -1.4793   -4.1903 H         1 <0>         0.4157
     40 H18         2.1292    0.4307    3.3616 H         1 <0>         0.0725
     41 H19         1.0651    1.7167    2.7270 H         1 <0>         0.0758
     42 H20         1.1017    1.2761    5.4256 H         1 <0>         0.1016
     43 H21        -3.3291   -1.2368    4.2065 H         1 <0>         0.0707
     44 H22        -1.8501   -1.9415    3.5164 H         1 <0>         0.0661
     45 H23        -2.2261   -2.4902    5.9437 H         1 <0>         0.0639
     46 H24        -0.6642   -1.7315    5.5877 H         1 <0>         0.0736
     47 H25        -0.4459    0.9447    6.9709 H         1 <0>         0.0704
     48 H26        -1.9444    1.6820    6.3581 H         1 <0>         0.0818
     49 H27        -3.7115    0.4772    7.2984 H         1 <0>         0.3754
     50 H28        -3.6899    0.8128    3.1083 H         1 <0>         0.0553
     51 H29        -3.4137    1.1368    4.8366 H         1 <0>         0.0697
     52 H30        -2.6217    2.1475    3.6040 H         1 <0>         0.0475
@<TRIPOS>BOND
     1    1    2 1
     2    1   27 1
     3    1   28 1
     4    1   29 1
     5    2    9 1
     6    2   13 1
     7    2    3 1
     8    3    4 1
     9    3   30 1
    10    3   31 1
    11    4    5 1
    12    4   32 1
    13    4   33 1
    14    5    6 1
    15    5   19 1
    16    5    7 1
    17    7    8 1
    18    7    9 1
    19    7   16 1
    20    9   10 1
    21    9   11 1
    22   11   12 1
    23   11   34 1
    24   11   35 1
    25   12   13 1
    26   12   36 1
    27   12   37 1
    28   13   14 2
    29   14   15 1
    30   15   38 1
    31   15   39 1
    32   16   17 1
    33   16   40 1
    34   16   41 1
    35   17   18 2
    36   17   42 1
    37   18   24 1
    38   18   19 1
    39   19   20 1
    40   19   26 1
    41   20   21 1
    42   20   43 1
    43   20   44 1
    44   21   22 1
    45   21   45 1
    46   21   46 1
    47   22   23 1
    48   22   24 1
    49   22   25 1
    50   24   47 1
    51   24   48 1
    52   25   49 1
    53   26   50 1
    54   26   51 1
    55   26   52 1
@<TRIPOS>MOLECULE
ZINC10272299
   52    55     0     0     0
SMALL
USER_CHARGES

@<TRIPOS>ATOM
      1 C1         -0.0186    1.5223    0.0104 C.3       1 <0>        -0.1446
      2 C2          0.0021   -0.0041    0.0020 C.3       1 <0>         0.0122
      3 C3         -1.4016   -0.5511    0.0205 C.3       1 <0>        -0.1023
      4 C4         -2.0291   -0.3121    1.4096 C.3       1 <0>        -0.1082
      5 C5         -1.2008   -0.9740    2.4946 C.3       1 <0>        -0.0684
      6 H1         -1.1168   -2.0413    2.2143 H         1 <0>         0.0628
      7 C6          0.2398   -0.4255    2.5074 C.3       1 <0>        -0.0583
      8 H2          0.8211   -1.0260    3.2435 H         1 <0>         0.0707
      9 C7          0.8298   -0.6197    1.1455 C.3       1 <0>        -0.0727
     10 H3          0.8952   -1.7251    0.9606 H         1 <0>         0.0683
     11 C8          2.2217   -0.0476    0.8474 C.3       1 <0>        -0.1095
     12 C9          2.2902   -0.1722   -0.7037 C.3       1 <0>        -0.1165
     13 C10         0.8596   -0.4056   -1.1850 C.2       1 <0>         0.0551
     14 N1          0.4600   -0.8347   -2.3129 N.2       1 <0>        -0.2182
     15 N2          1.3907   -1.1628   -3.3073 N.pl3     1 <0>        -0.7937
     16 C11         0.2075    1.0180    2.9968 C.3       1 <0>        -0.0857
     17 C12        -0.3756    1.0237    4.3881 C.2       1 <0>        -0.1640
     18 C13        -1.2678    0.1594    4.7592 C.2       1 <0>        -0.0994
     19 C14        -1.8013   -0.9409    3.8810 C.3       1 <0>        -0.0082
     20 C15        -1.5481   -2.2792    4.5913 C.3       1 <0>        -0.1049
     21 C16        -0.8343   -2.0412    5.9185 C.3       1 <0>        -0.1082
     22 C17        -1.6483   -1.1271    6.8300 C.3       1 <0>         0.1105
     23 H4         -1.1279   -1.0111    7.7832 H         1 <0>         0.0523
     24 C18        -1.8182    0.2475    6.1734 C.3       1 <0>        -0.1219
     25 O1         -2.9323   -1.7074    7.0679 O.3       1 <0>        -0.5644
     26 C19        -3.3199   -0.7687    3.7883 C.3       1 <0>        -0.1401
     27 H5          1.0004    1.8990    0.0987 H         1 <0>         0.0610
     28 H6         -0.4609    1.8848   -0.9176 H         1 <0>         0.0564
     29 H7         -0.6102    1.8730    0.8561 H         1 <0>         0.0706
     30 H8         -2.0087   -0.0486   -0.7376 H         1 <0>         0.0674
     31 H9         -1.3894   -1.6237   -0.1882 H         1 <0>         0.0636
     32 H10        -2.1191    0.7525    1.5953 H         1 <0>         0.0656
     33 H11        -3.0289   -0.7553    1.3649 H         1 <0>         0.0645
     34 H12         2.3200    0.9827    1.1689 H         1 <0>         0.0779
     35 H13         2.9953   -0.6675    1.3079 H         1 <0>         0.0674
     36 H14         2.6871    0.7447   -1.1342 H         1 <0>         0.0774
     37 H15         2.9177   -1.0198   -0.9782 H         1 <0>         0.0675
     38 H16         2.3400   -1.0626   -3.1351 H         1 <0>         0.3733
     39 H17         1.0858   -1.4901   -4.1680 H         1 <0>         0.4157
     40 H18         1.2079    1.4374    3.0239 H         1 <0>         0.0708
     41 H19        -0.4527    1.6318    2.3903 H         1 <0>         0.0834
     42 H20        -0.0383    1.7683    5.0837 H         1 <0>         0.1035
     43 H21        -2.5018   -2.7729    4.7673 H         1 <0>         0.0736
     44 H22        -0.9262   -2.9056    3.9523 H         1 <0>         0.0621
     45 H23        -0.6842   -2.9997    6.4197 H         1 <0>         0.0641
     46 H24         0.1395   -1.5881    5.7302 H         1 <0>         0.0752
     47 H25        -1.2510    0.9949    6.7375 H         1 <0>         0.0696
     48 H26        -2.8678    0.5356    6.1592 H         1 <0>         0.0819
     49 H27        -3.5032   -1.1778    7.6411 H         1 <0>         0.3757
     50 H28        -3.7468   -1.6031    3.2318 H         1 <0>         0.0546
     51 H29        -3.7449   -0.7458    4.7917 H         1 <0>         0.0618
     52 H30        -3.5490    0.1653    3.2752 H         1 <0>         0.0528
@<TRIPOS>BOND
     1    1    2 1
     2    1   27 1
     3    1   28 1
     4    1   29 1
     5    2    9 1
     6    2   13 1
     7    2    3 1
     8    3    4 1
     9    3   30 1
    10    3   31 1
    11    4    5 1
    12    4   32 1
    13    4   33 1
    14    5    6 1
    15    5   19 1
    16    5    7 1
    17    7    8 1
    18    7    9 1
    19    7   16 1
    20    9   10 1
    21    9   11 1
    22   11   12 1
    23   11   34 1
    24   11   35 1
    25   12   13 1
    26   12   36 1
    27   12   37 1
    28   13   14 2
    29   14   15 1
    30   15   38 1
    31   15   39 1
    32   16   17 1
    33   16   40 1
    34   16   41 1
    35   17   18 2
    36   17   42 1
    37   18   24 1
    38   18   19 1
    39   19   20 1
    40   19   26 1
    41   20   21 1
    42   20   43 1
    43   20   44 1
    44   21   22 1
    45   21   45 1
    46   21   46 1
    47   22   23 1
    48   22   24 1
    49   22   25 1
    50   24   47 1
    51   24   48 1
    52   25   49 1
    53   26   50 1
    54   26   51 1
    55   26   52 1
@<TRIPOS>MOLECULE
ZINC13759939
   52    55     0     0     0
SMALL
USER_CHARGES
(3S,8R,9S,10R,13S,14S)-3-hydroxy-10,13-dimethyl-1,2,3,4,7,8,9,11,12,14,15,16-dodecahydrocyclopenta[a]phenanthren-17-one hydrazone
@<TRIPOS>ATOM
      1 C1         -0.5640    4.6772   -5.2665 C.3       1 <0>        -0.1442
      2 C2         -2.0819    4.5139   -5.1652 C.3       1 <0>         0.0021
      3 C3         -2.6050    5.3417   -4.0074 C.3       1 <0>        -0.1000
      4 C4         -1.8099    4.9280   -2.7594 C.3       1 <0>        -0.1226
      5 C5         -1.9312    3.4322   -2.4822 C.3       1 <0>        -0.0667
      6 H1         -2.9676    3.2133   -2.2254 H         1 <0>         0.0668
      7 C6         -1.5479    2.5907   -3.7072 C.3       1 <0>        -0.0700
      8 H2         -0.4968    2.7266   -3.9619 H         1 <0>         0.0860
      9 C7         -2.4297    3.0318   -4.8622 C.3       1 <0>        -0.0793
     10 H3         -3.4823    2.9127   -4.6054 H         1 <0>         0.0800
     11 C8         -2.1280    2.3733   -6.2145 C.3       1 <0>        -0.1108
     12 C9         -2.6888    3.4099   -7.2262 C.3       1 <0>        -0.1167
     13 C10        -2.7074    4.7551   -6.5073 C.2       1 <0>         0.0627
     14 N1         -3.1639    5.8632   -6.9571 N.2       1 <0>        -0.2184
     15 N2         -3.7219    5.9214   -8.2409 N.pl3     1 <0>        -0.7913
     16 C11        -1.8288    1.1192   -3.3828 C.3       1 <0>        -0.0842
     17 C12        -1.0860    0.7362   -2.1361 C.2       1 <0>        -0.1544
     18 C13        -0.7577    1.5942   -1.2149 C.2       1 <0>        -0.1046
     19 C14        -1.0661    3.0599   -1.2895 C.3       1 <0>        -0.0138
     20 C15        -1.7443    3.5049    0.0093 C.3       1 <0>        -0.1044
     21 C16        -0.8699    3.1080    1.2004 C.3       1 <0>        -0.1161
     22 C17        -0.7399    1.5849    1.2602 C.3       1 <0>         0.1083
     23 H4         -1.7328    1.1375    1.3064 H         1 <0>         0.0544
     24 C18        -0.0127    1.0858    0.0080 C.3       1 <0>        -0.1171
     25 O1          0.0042    1.2147    2.4226 O.3       1 <0>        -0.5688
     26 C19         0.2566    3.8206   -1.4032 C.3       1 <0>        -0.1528
     27 H5         -0.1834    4.0454   -6.0691 H         1 <0>         0.0562
     28 H6         -0.3240    5.7189   -5.4793 H         1 <0>         0.0566
     29 H7         -0.1032    4.3835   -4.3234 H         1 <0>         0.0744
     30 H8         -2.4528    6.4018   -4.2102 H         1 <0>         0.0699
     31 H9         -3.6657    5.1412   -3.8569 H         1 <0>         0.0629
     32 H10        -0.7594    5.1778   -2.9083 H         1 <0>         0.0768
     33 H11        -2.1876    5.4796   -1.8985 H         1 <0>         0.0636
     34 H12        -1.0545    2.2418   -6.3500 H         1 <0>         0.0738
     35 H13        -2.6477    1.4195   -6.3050 H         1 <0>         0.0709
     36 H14        -2.0425    3.4637   -8.1023 H         1 <0>         0.0732
     37 H15        -3.6994    3.1313   -7.5246 H         1 <0>         0.0720
     38 H16        -3.7624    5.1221   -8.7888 H         1 <0>         0.3736
     39 H17        -4.0678    6.7611   -8.5817 H         1 <0>         0.4162
     40 H18        -1.4961    0.4940   -4.2114 H         1 <0>         0.0714
     41 H19        -2.8984    0.9788   -3.2268 H         1 <0>         0.0730
     42 H20        -0.8110   -0.2990   -1.9977 H         1 <0>         0.1032
     43 H21        -1.8751    4.5870   -0.0010 H         1 <0>         0.0742
     44 H22        -2.7174    3.0215    0.0955 H         1 <0>         0.0639
     45 H23         0.1193    3.5517    1.0880 H         1 <0>         0.0746
     46 H24        -1.3267    3.4688    2.1219 H         1 <0>         0.0697
     47 H25         0.0021   -0.0041    0.0020 H         1 <0>         0.0685
     48 H26         1.0085    1.4668    0.0003 H         1 <0>         0.0797
     49 H27         0.1258    0.2608    2.5245 H         1 <0>         0.3779
     50 H28         0.7828    3.5019   -2.3030 H         1 <0>         0.0551
     51 H29         0.0567    4.8906   -1.4589 H         1 <0>         0.0664
     52 H30         0.8725    3.6111   -0.5286 H         1 <0>         0.0580
@<TRIPOS>BOND
     1    1    2 1
     2    1   27 1
     3    1   28 1
     4    1   29 1
     5    2    9 1
     6    2   13 1
     7    2    3 1
     8    3    4 1
     9    3   30 1
    10    3   31 1
    11    4    5 1
    12    4   32 1
    13    4   33 1
    14    5    6 1
    15    5   19 1
    16    5    7 1
    17    7    8 1
    18    7    9 1
    19    7   16 1
    20    9   10 1
    21    9   11 1
    22   11   12 1
    23   11   34 1
    24   11   35 1
    25   12   13 1
    26   12   36 1
    27   12   37 1
    28   13   14 2
    29   14   15 1
    30   15   38 1
    31   15   39 1
    32   16   17 1
    33   16   40 1
    34   16   41 1
    35   17   18 2
    36   17   42 1
    37   18   24 1
    38   18   19 1
    39   19   20 1
    40   19   26 1
    41   20   21 1
    42   20   43 1
    43   20   44 1
    44   21   22 1
    45   21   45 1
    46   21   46 1
    47   22   23 1
    48   22   24 1
    49   22   25 1
    50   24   47 1
    51   24   48 1
    52   25   49 1
    53   26   50 1
    54   26   51 1
    55   26   52 1
@<TRIPOS>MOLECULE
ZINC36323215
   52    55     0     0     0
SMALL
USER_CHARGES

@<TRIPOS>ATOM
      1 C1         -0.0186    1.5223    0.0104 C.3       1 <0>        -0.1434
      2 C2          0.0021   -0.0041    0.0020 C.3       1 <0>         0.0153
      3 C3         -1.3855   -0.5856   -0.0019 C.3       1 <0>        -0.1002
      4 C4         -2.0009   -0.5780    1.4014 C.3       1 <0>        -0.1085
      5 C5         -1.1654    0.1711    2.4216 C.3       1 <0>        -0.0728
      6 H1         -1.1212    1.2254    2.1025 H         1 <0>         0.0757
      7 C6          0.2623   -0.3382    2.5191 C.3       1 <0>        -0.0555
      8 H2          0.8914    0.3871    3.0482 H         1 <0>         0.0771
      9 C7          0.8308   -0.6140    1.1470 C.3       1 <0>        -0.0777
     10 H3          0.8793   -1.7164    1.0060 H         1 <0>         0.0744
     11 C8          2.2261   -0.0455    0.8451 C.3       1 <0>        -0.1105
     12 C9          2.2949   -0.1579   -0.7050 C.3       1 <0>        -0.1167
     13 C10         0.8678   -0.4029   -1.1864 C.2       1 <0>         0.0537
     14 N1          0.4711   -0.8374   -2.3123 N.2       1 <0>        -0.2180
     15 N2          1.4038   -1.1613   -3.3063 N.pl3     1 <0>        -0.7936
     16 C11         0.2888   -1.6738    3.2822 C.3       1 <0>        -0.0848
     17 C12        -0.4674   -1.5835    4.5669 C.2       1 <0>        -0.1519
     18 C13        -1.4236   -0.7306    4.7767 C.2       1 <0>        -0.1038
     19 C14        -1.8602    0.2835    3.7674 C.3       1 <0>        -0.0130
     20 C15        -3.3782    0.2217    3.5974 C.3       1 <0>        -0.1029
     21 C16        -4.0801    0.3030    4.9517 C.3       1 <0>        -0.1145
     22 C17        -3.6420   -0.8516    5.8521 C.3       1 <0>         0.1092
     23 H4         -3.8653   -1.7996    5.3618 H         1 <0>         0.0546
     24 C18        -2.1367   -0.7586    6.1178 C.3       1 <0>        -0.1166
     25 O1         -4.3483   -0.7821    7.0929 O.3       1 <0>        -0.5695
     26 C19        -1.5070    1.6730    4.3177 C.3       1 <0>        -0.1466
     27 H5          0.9710    1.9005   -0.2458 H         1 <0>         0.0584
     28 H6         -0.7445    1.8799   -0.7199 H         1 <0>         0.0589
     29 H7         -0.2972    1.8765    1.0029 H         1 <0>         0.0714
     30 H8         -2.0255   -0.0107   -0.6862 H         1 <0>         0.0643
     31 H9         -1.3510   -1.6186   -0.3787 H         1 <0>         0.0640
     32 H10        -2.9981   -0.1167    1.3416 H         1 <0>         0.0662
     33 H11        -2.1443   -1.6133    1.7381 H         1 <0>         0.0584
     34 H12         2.3232    0.9844    1.1723 H         1 <0>         0.0757
     35 H13         2.9992   -0.6654    1.3036 H         1 <0>         0.0681
     36 H14         2.6803    0.7676   -1.1292 H         1 <0>         0.0774
     37 H15         2.9320   -0.9950   -0.9873 H         1 <0>         0.0676
     38 H16         2.3524   -1.0537   -3.1348 H         1 <0>         0.3734
     39 H17         1.1009   -1.4931   -4.1660 H         1 <0>         0.4158
     40 H18        -0.1543   -2.4488    2.6522 H         1 <0>         0.0733
     41 H19         1.3280   -1.9412    3.4872 H         1 <0>         0.0679
     42 H20        -0.2073   -2.2638    5.3672 H         1 <0>         0.1021
     43 H21        -3.7066    1.0534    2.9702 H         1 <0>         0.0728
     44 H22        -3.6520   -0.7176    3.1114 H         1 <0>         0.0689
     45 H23        -3.8696    1.2517    5.4389 H         1 <0>         0.0722
     46 H24        -5.1626    0.2326    4.7925 H         1 <0>         0.0672
     47 H25        -1.8123   -1.6328    6.6854 H         1 <0>         0.0677
     48 H26        -1.9139    0.1444    6.6821 H         1 <0>         0.0800
     49 H27        -4.1199   -1.4860    7.7154 H         1 <0>         0.3780
     50 H28        -1.8628    2.4382    3.6278 H         1 <0>         0.0576
     51 H29        -1.9818    1.8105    5.2892 H         1 <0>         0.0579
     52 H30        -0.4257    1.7565    4.4267 H         1 <0>         0.0554
@<TRIPOS>BOND
     1    1    2 1
     2    1   27 1
     3    1   28 1
     4    1   29 1
     5    2    9 1
     6    2   13 1
     7    2    3 1
     8    3    4 1
     9    3   30 1
    10    3   31 1
    11    4    5 1
    12    4   32 1
    13    4   33 1
    14    5    6 1
    15    5   19 1
    16    5    7 1
    17    7    8 1
    18    7    9 1
    19    7   16 1
    20    9   10 1
    21    9   11 1
    22   11   12 1
    23   11   34 1
    24   11   35 1
    25   12   13 1
    26   12   36 1
    27   12   37 1
    28   13   14 2
    29   14   15 1
    30   15   38 1
    31   15   39 1
    32   16   17 1
    33   16   40 1
    34   16   41 1
    35   17   18 2
    36   17   42 1
    37   18   24 1
    38   18   19 1
    39   19   20 1
    40   19   26 1
    41   20   21 1
    42   20   43 1
    43   20   44 1
    44   21   22 1
    45   21   45 1
    46   21   46 1
    47   22   23 1
    48   22   24 1
    49   22   25 1
    50   24   47 1
    51   24   48 1
    52   25   49 1
    53   26   50 1
    54   26   51 1
    55   26   52 1
@<TRIPOS>MOLECULE
ZINC04532102
   57    60     0     0     0
SMALL
USER_CHARGES

@<TRIPOS>ATOM
      1 C1          0.6380    1.4058    0.2573 C.3       1 <0>        -0.1509
      2 C2          0.3774   -0.0741    0.1433 C.2       1 <0>         0.1383
      3 N1          0.1923   -0.7743    1.1982 N.2       1 <0>        -0.3188
      4 O1          0.2322   -0.1585    2.4727 O.3       1 <0>        -0.4245
      5 C3          0.3351   -0.7261   -1.2061 C.3       1 <0>        -0.0390
      6 H1          1.2164   -0.4643   -1.7903 H         1 <0>         0.0966
      7 C4         -0.9510   -0.3045   -1.9659 C.3       1 <0>        -0.1139
      8 C5         -1.8749   -1.5553   -1.9943 C.3       1 <0>        -0.1206
      9 C6         -1.2933   -2.4190   -0.8608 C.3       1 <0>        -0.0735
     10 H2         -1.5576   -1.9359    0.0994 H         1 <0>         0.0766
     11 C7          0.2211   -2.2604   -1.1121 C.3       1 <0>        -0.0345
     12 C8          1.0093   -2.9358   -0.0273 C.3       1 <0>        -0.1208
     13 C9          0.5022   -4.3576    0.2489 C.3       1 <0>        -0.1048
     14 C10        -0.5656   -4.8247   -0.7226 C.3       1 <0>        -0.0657
     15 H3         -0.1265   -4.9626   -1.7163 H         1 <0>         0.0747
     16 C11        -1.7383   -3.8470   -0.8071 C.3       1 <0>        -0.0631
     17 H4         -2.3692   -3.9861    0.0924 H         1 <0>         0.0640
     18 C12        -2.5825   -4.2463   -2.0248 C.3       1 <0>        -0.0797
     19 C13        -3.0143   -5.6750   -1.8315 C.2       1 <0>        -0.1629
     20 C14        -2.3789   -6.5181   -1.0798 C.2       1 <0>        -0.1001
     21 C15        -1.1039   -6.2024   -0.3378 C.3       1 <0>        -0.0139
     22 C16        -1.3670   -6.3286    1.1563 C.3       1 <0>        -0.0994
     23 C17        -2.7265   -6.9823    1.4022 C.3       1 <0>        -0.1087
     24 C18        -2.9168   -8.2524    0.5814 C.3       1 <0>         0.1123
     25 H5         -3.8779   -8.7067    0.8472 H         1 <0>         0.0497
     26 C19        -2.9208   -7.9281   -0.9176 C.3       1 <0>        -0.1208
     27 O2         -1.8758   -9.1857    0.8760 O.3       1 <0>        -0.5618
     28 C20        -0.0434   -7.2331   -0.7396 C.3       1 <0>        -0.1456
     29 C21         0.6416   -2.7896   -2.4914 C.3       1 <0>        -0.1537
     30 H6          1.7106    1.5805    0.3411 H         1 <0>         0.0798
     31 H7          0.2557    1.9114   -0.6295 H         1 <0>         0.0757
     32 H8          0.1360    1.7960    1.1427 H         1 <0>         0.0769
     33 H9          0.0813   -0.7674    3.2086 H         1 <0>         0.4004
     34 H10        -1.4434    0.5103   -1.4381 H         1 <0>         0.0672
     35 H11        -0.7010   -0.0024   -2.9816 H         1 <0>         0.0737
     36 H12        -2.9019   -1.2676   -1.7546 H         1 <0>         0.0618
     37 H13        -1.8369   -2.0578   -2.9519 H         1 <0>         0.0761
     38 H14         2.0697   -2.9893   -0.3230 H         1 <0>         0.0463
     39 H15         0.9688   -2.3743    0.9137 H         1 <0>         0.1018
     40 H16         1.3584   -5.0442    0.2122 H         1 <0>         0.0549
     41 H17         0.1080   -4.3907    1.2728 H         1 <0>         0.0599
     42 H18        -3.4600   -3.6058   -2.0881 H         1 <0>         0.0703
     43 H19        -1.9900   -4.1634   -2.9318 H         1 <0>         0.0736
     44 H20        -3.9005   -6.0125   -2.3460 H         1 <0>         0.0998
     45 H21        -0.5847   -6.9316    1.6172 H         1 <0>         0.0689
     46 H22        -1.3706   -5.3371    1.6139 H         1 <0>         0.0658
     47 H23        -2.8088   -7.2312    2.4638 H         1 <0>         0.0634
     48 H24        -3.5154   -6.2710    1.1529 H         1 <0>         0.0729
     49 H25        -3.9462   -7.9708   -1.2977 H         1 <0>         0.0703
     50 H26        -2.3072   -8.6413   -1.4640 H         1 <0>         0.0810
     51 H27        -1.9412  -10.0159    0.3844 H         1 <0>         0.3752
     52 H28         0.8860   -7.0234   -0.2100 H         1 <0>         0.0540
     53 H29        -0.3917   -8.2328   -0.4803 H         1 <0>         0.0707
     54 H30         0.1299   -7.1761   -1.8142 H         1 <0>         0.0461
     55 H31         1.6026   -2.3568   -2.7691 H         1 <0>         0.0528
     56 H32         0.7297   -3.8754   -2.4525 H         1 <0>         0.0644
     57 H33        -0.1093   -2.5123   -3.2313 H         1 <0>         0.0608
@<TRIPOS>BOND
     1    1    2 1
     2    1   30 1
     3    1   31 1
     4    1   32 1
     5    2    3 2
     6    2    5 1
     7    3    4 1
     8    4   33 1
     9    5    6 1
    10    5   11 1
    11    5    7 1
    12    7    8 1
    13    7   34 1
    14    7   35 1
    15    8    9 1
    16    8   36 1
    17    8   37 1
    18    9   10 1
    19    9   16 1
    20    9   11 1
    21   11   12 1
    22   11   29 1
    23   12   13 1
    24   12   38 1
    25   12   39 1
    26   13   14 1
    27   13   40 1
    28   13   41 1
    29   14   15 1
    30   14   21 1
    31   14   16 1
    32   16   17 1
    33   16   18 1
    34   18   19 1
    35   18   42 1
    36   18   43 1
    37   19   20 2
    38   19   44 1
    39   20   26 1
    40   20   21 1
    41   21   22 1
    42   21   28 1
    43   22   23 1
    44   22   45 1
    45   22   46 1
    46   23   24 1
    47   23   47 1
    48   23   48 1
    49   24   25 1
    50   24   26 1
    51   24   27 1
    52   26   49 1
    53   26   50 1
    54   27   51 1
    55   28   52 1
    56   28   53 1
    57   28   54 1
    58   29   55 1
    59   29   56 1
    60   29   57 1
@<TRIPOS>MOLECULE
ZINC04532104
   57    60     0     0     0
SMALL
USER_CHARGES

@<TRIPOS>ATOM
      1 C1         -0.9416    0.7462    0.2209 C.3       1 <0>        -0.1899
      2 C2          0.2232   -0.0967   -0.2307 C.2       1 <0>         0.1433
      3 N1          1.3135   -0.0927    0.4389 N.2       1 <0>        -0.3154
      4 O1          1.4046    0.6534    1.6390 O.3       1 <0>        -0.4142
      5 C3          0.1038   -0.9442   -1.4711 C.3       1 <0>        -0.0278
      6 H1          0.9081   -0.7064   -2.1672 H         1 <0>         0.0957
      7 C4         -1.2658   -0.7149   -2.1423 C.3       1 <0>        -0.1314
      8 C5         -1.9904   -2.0788   -2.1352 C.3       1 <0>        -0.1254
      9 C6         -1.3278   -2.8468   -0.9527 C.3       1 <0>        -0.0767
     10 H2         -1.4600   -3.9256   -1.0360 H         1 <0>         0.0822
     11 C7          0.1469   -2.4326   -1.1011 C.3       1 <0>        -0.0424
     12 C8          0.9610   -2.7008    0.1442 C.3       1 <0>        -0.1021
     13 C9          0.3161   -2.0462    1.3637 C.3       1 <0>        -0.1755
     14 C10        -1.0908   -2.6299    1.5540 C.3       1 <0>        -0.0652
     15 H3         -1.0263   -3.7112    1.6761 H         1 <0>         0.0626
     16 C11        -1.9546   -2.2907    0.3301 C.3       1 <0>        -0.0854
     17 H4         -2.0565   -1.2085    0.2489 H         1 <0>         0.0860
     18 C12        -3.3354   -2.9429    0.4955 C.3       1 <0>        -0.0823
     19 C13        -3.9269   -2.5641    1.8193 C.2       1 <0>        -0.1670
     20 C14        -3.2249   -2.1593    2.8286 C.2       1 <0>        -0.1010
     21 C15        -1.6987   -2.0072    2.8057 C.3       1 <0>        -0.0084
     22 C16        -1.3165   -0.5338    2.9251 C.3       1 <0>        -0.1258
     23 C17        -2.3938    0.2253    3.6989 C.3       1 <0>        -0.1108
     24 C18        -3.0125   -0.6524    4.7851 C.3       1 <0>         0.1072
     25 H5         -3.6285   -0.0379    5.4416 H         1 <0>         0.0509
     26 C19        -3.9207   -1.7722    4.1236 C.3       1 <0>        -0.1211
     27 O2         -1.9734   -1.2699    5.5475 O.3       1 <0>        -0.5501
     28 C20        -1.1315   -2.7343    4.0266 C.3       1 <0>        -0.1309
     29 C21         0.7693   -3.2148   -2.2594 C.3       1 <0>        -0.1446
     30 H6         -0.9456    1.6861   -0.3312 H         1 <0>         0.0839
     31 H7         -1.8721    0.2106    0.0332 H         1 <0>         0.0939
     32 H8         -0.8494    0.9518    1.2874 H         1 <0>         0.1049
     33 H9          2.2389    0.5349    2.1134 H         1 <0>         0.4028
     34 H10        -1.8416    0.0173   -1.5762 H         1 <0>         0.0800
     35 H11        -1.1269   -0.3706   -3.1671 H         1 <0>         0.0722
     36 H12        -3.0569   -1.9445   -1.9546 H         1 <0>         0.0702
     37 H13        -1.8237   -2.6055   -3.0749 H         1 <0>         0.0684
     38 H14         1.0250   -3.7768    0.3063 H         1 <0>         0.0554
     39 H15         1.9652   -2.2986    0.0100 H         1 <0>         0.0701
     40 H16         0.9188   -2.2496    2.2488 H         1 <0>         0.0526
     41 H17         0.2467   -0.9698    1.2064 H         1 <0>         0.1256
     42 H18        -3.9935   -2.6045   -0.3048 H         1 <0>         0.0688
     43 H19        -3.2321   -4.0267    0.4424 H         1 <0>         0.0694
     44 H20        -4.9983   -2.6324    1.9376 H         1 <0>         0.0990
     45 H21        -0.3656   -0.4483    3.4509 H         1 <0>         0.0681
     46 H22        -1.2167   -0.1041    1.9284 H         1 <0>         0.0923
     47 H23        -1.9483    1.1060    4.1614 H         1 <0>         0.0637
     48 H24        -3.1746    0.5421    3.0073 H         1 <0>         0.0687
     49 H25        -4.9154   -1.3814    3.9094 H         1 <0>         0.0758
     50 H26        -3.9936   -2.6390    4.7805 H         1 <0>         0.0768
     51 H27        -2.2924   -1.8921    6.2155 H         1 <0>         0.3720
     52 H28        -0.3241   -2.1431    4.4589 H         1 <0>         0.0606
     53 H29        -1.9195   -2.8698    4.7674 H         1 <0>         0.0716
     54 H30        -0.7467   -3.7079    3.7232 H         1 <0>         0.0265
     55 H31         1.7898   -2.8691   -2.4244 H         1 <0>         0.0563
     56 H32         0.7804   -4.2772   -2.0159 H         1 <0>         0.0570
     57 H33         0.1811   -3.0553   -3.1631 H         1 <0>         0.0586
@<TRIPOS>BOND
     1    1    2 1
     2    1   30 1
     3    1   31 1
     4    1   32 1
     5    2    3 2
     6    2    5 1
     7    3    4 1
     8    4   33 1
     9    5    6 1
    10    5   11 1
    11    5    7 1
    12    7    8 1
    13    7   34 1
    14    7   35 1
    15    8    9 1
    16    8   36 1
    17    8   37 1
    18    9   10 1
    19    9   16 1
    20    9   11 1
    21   11   12 1
    22   11   29 1
    23   12   13 1
    24   12   38 1
    25   12   39 1
    26   13   14 1
    27   13   40 1
    28   13   41 1
    29   14   15 1
    30   14   21 1
    31   14   16 1
    32   16   17 1
    33   16   18 1
    34   18   19 1
    35   18   42 1
    36   18   43 1
    37   19   20 2
    38   19   44 1
    39   20   26 1
    40   20   21 1
    41   21   22 1
    42   21   28 1
    43   22   23 1
    44   22   45 1
    45   22   46 1
    46   23   24 1
    47   23   47 1
    48   23   48 1
    49   24   25 1
    50   24   26 1
    51   24   27 1
    52   26   49 1
    53   26   50 1
    54   27   51 1
    55   28   52 1
    56   28   53 1
    57   28   54 1
    58   29   55 1
    59   29   56 1
    60   29   57 1
@<TRIPOS>MOLECULE
ZINC04529776
   58    61     0     0     0
SMALL
USER_CHARGES
(17-acetyl-10,13-dimethyl-2,3,4,7,8,9,11,12,14,15-decahydro-1H-cyclopenta[a]phenanthren-3-yl) acetate
@<TRIPOS>ATOM
      1 C1         -2.5416   -0.2224    0.1671 C.3       1 <0>        -0.1929
      2 C2         -1.1689   -0.8314    0.0403 C.2       1 <0>         0.3978
      3 O1         -1.0445   -2.0356   -0.0401 O.2       1 <0>        -0.4525
      4 C3          0.0103    0.0271    0.0143 C.2       1 <0>        -0.2099
      5 C4          0.0150    1.3751    0.0131 C.2       1 <0>        -0.0824
      6 C5          1.4591    1.8831   -0.0276 C.3       1 <0>        -0.1004
      7 C6          2.1362    0.7084   -0.7530 C.3       1 <0>        -0.0706
      8 H1          1.7848    0.7182   -1.8115 H         1 <0>         0.0756
      9 C7          1.4437   -0.4527   -0.0040 C.3       1 <0>        -0.0091
     10 C8          1.7074   -1.7642   -0.6955 C.3       1 <0>        -0.0976
     11 C9          3.1041   -1.7624   -1.3417 C.3       1 <0>        -0.1086
     12 C10         4.0577   -0.8582   -0.5751 C.3       1 <0>        -0.0729
     13 H2          4.0497   -1.1286    0.4823 H         1 <0>         0.0790
     14 C11         3.6209    0.6081   -0.7391 C.3       1 <0>        -0.0686
     15 H3          4.0017    0.9548   -1.7240 H         1 <0>         0.0697
     16 C12         4.3442    1.4173    0.3340 C.3       1 <0>        -0.0779
     17 C13         5.8232    1.2102    0.1096 C.2       1 <0>        -0.1584
     18 C14         6.3165    0.1914   -0.5254 C.2       1 <0>        -0.1033
     19 C15         5.5047   -0.9775   -1.0332 C.3       1 <0>        -0.0118
     20 C16         5.6278   -1.0425   -2.5496 C.3       1 <0>        -0.1042
     21 C17         6.6653   -0.0342   -3.0410 C.3       1 <0>        -0.1113
     22 C18         7.9897   -0.1765   -2.2988 C.3       1 <0>         0.0959
     23 H4          8.7185    0.5161   -2.7307 H         1 <0>         0.0840
     24 C19         7.8079    0.1513   -0.8122 C.3       1 <0>        -0.1004
     25 O2          8.4910   -1.5314   -2.4455 O.3       1 <0>        -0.3482
     26 C20         9.8238   -1.6898   -2.4602 C.2       1 <0>         0.4563
     27 O3         10.5477   -0.7283   -2.3540 O.2       1 <0>        -0.5144
     28 C21        10.4173   -3.0670   -2.6091 C.3       1 <0>        -0.1494
     29 C22         6.0832   -2.2648   -0.4351 C.3       1 <0>        -0.1429
     30 C23         1.8708   -0.5380    1.4652 C.3       1 <0>        -0.1468
     31 H5         -2.4681    0.7744    0.1370 H         1 <0>         0.0708
     32 H6         -3.1687   -0.5656   -0.6557 H         1 <0>         0.0915
     33 H7         -2.9873   -0.5255    1.1145 H         1 <0>         0.0937
     34 H8         -0.8614    2.0030    0.0412 H         1 <0>         0.1374
     35 H9          1.5245    2.7952   -0.6242 H         1 <0>         0.0770
     36 H10         1.8564    2.0431    0.9662 H         1 <0>         0.0947
     37 H11         1.6414   -2.5840    0.0297 H         1 <0>         0.0647
     38 H12         0.9532   -1.9348   -1.4733 H         1 <0>         0.0636
     39 H13         3.4905   -2.7851   -1.3569 H         1 <0>         0.0638
     40 H14         3.0164   -1.4154   -2.3764 H         1 <0>         0.0610
     41 H15         4.0812    1.0680    1.3278 H         1 <0>         0.0761
     42 H16         4.1101    2.4749    0.2287 H         1 <0>         0.0736
     43 H17         6.4980    1.9697    0.4663 H         1 <0>         0.1032
     44 H18         5.9330   -2.0470   -2.8476 H         1 <0>         0.0721
     45 H19         4.6660   -0.8126   -3.0096 H         1 <0>         0.0704
     46 H20         6.2797    0.9760   -2.9037 H         1 <0>         0.0834
     47 H21         6.8384   -0.1992   -4.1076 H         1 <0>         0.0679
     48 H22         8.2490    1.1285   -0.5957 H         1 <0>         0.0790
     49 H23         8.2945   -0.6029   -0.1963 H         1 <0>         0.0812
     50 H24        10.0898   -3.5037   -3.5526 H         1 <0>         0.0999
     51 H25        11.5050   -2.9969   -2.5994 H         1 <0>         0.1005
     52 H26        10.0864   -3.6965   -1.7831 H         1 <0>         0.0996
     53 H27         5.5049   -3.1199   -0.7850 H         1 <0>         0.0576
     54 H28         7.1215   -2.3760   -0.7476 H         1 <0>         0.0648
     55 H29         6.0346   -2.2139    0.6527 H         1 <0>         0.0500
     56 H30         1.2985   -1.3193    1.9652 H         1 <0>         0.0551
     57 H31         2.9336   -0.7734    1.5216 H         1 <0>         0.0679
     58 H32         1.6841    0.4183    1.9539 H         1 <0>         0.0555
@<TRIPOS>BOND
     1    1    2 1
     2    1   31 1
     3    1   32 1
     4    1   33 1
     5    2    3 2
     6    2    4 1
     7    4    9 1
     8    4    5 2
     9    5    6 1
    10    5   34 1
    11    6    7 1
    12    6   35 1
    13    6   36 1
    14    7    8 1
    15    7   14 1
    16    7    9 1
    17    9   10 1
    18    9   30 1
    19   10   11 1
    20   10   37 1
    21   10   38 1
    22   11   12 1
    23   11   39 1
    24   11   40 1
    25   12   13 1
    26   12   19 1
    27   12   14 1
    28   14   15 1
    29   14   16 1
    30   16   17 1
    31   16   41 1
    32   16   42 1
    33   17   18 2
    34   17   43 1
    35   18   24 1
    36   18   19 1
    37   19   20 1
    38   19   29 1
    39   20   21 1
    40   20   44 1
    41   20   45 1
    42   21   22 1
    43   21   46 1
    44   21   47 1
    45   22   23 1
    46   22   24 1
    47   22   25 1
    48   24   48 1
    49   24   49 1
    50   25   26 1
    51   26   27 2
    52   26   28 1
    53   28   50 1
    54   28   51 1
    55   28   52 1
    56   29   53 1
    57   29   54 1
    58   29   55 1
    59   30   56 1
    60   30   57 1
    61   30   58 1
@<TRIPOS>MOLECULE
ZINC04529777
   58    61     0     0     0
SMALL
USER_CHARGES
(17-acetyl-10,13-dimethyl-2,3,4,7,8,9,11,12,14,15-decahydro-1H-cyclopenta[a]phenanthren-3-yl) acetate
@<TRIPOS>ATOM
      1 C1        -10.2329    3.4180   -0.2416 C.3       1 <0>        -0.1934
      2 C2         -9.7258    2.0147   -0.4523 C.2       1 <0>         0.3985
      3 O1         -9.5086    1.6104   -1.5755 O.2       1 <0>        -0.4502
      4 C3         -9.4954    1.1400    0.6971 C.2       1 <0>        -0.1983
      5 C4         -9.8011    1.4324    1.9682 C.2       1 <0>        -0.0830
      6 C5         -9.4097    0.2782    2.8738 C.3       1 <0>        -0.1098
      7 C6         -8.3040   -0.4556    2.0497 C.3       1 <0>        -0.0756
      8 H1         -8.1974   -1.5111    2.2998 H         1 <0>         0.0936
      9 C7         -8.8764   -0.2320    0.6392 C.3       1 <0>        -0.0083
     10 C8         -7.8452   -0.3810   -0.4527 C.3       1 <0>        -0.1152
     11 C9         -6.6332    0.5073   -0.1838 C.3       1 <0>        -0.1083
     12 C10        -6.0028    0.0900    1.1525 C.3       1 <0>        -0.0649
     13 H2         -5.7236   -0.9635    1.1324 H         1 <0>         0.0739
     14 C11        -7.0124    0.3357    2.2735 C.3       1 <0>        -0.0710
     15 H3         -7.2420    1.3990    2.3423 H         1 <0>         0.0756
     16 C12        -6.3939   -0.1448    3.5949 C.3       1 <0>        -0.0835
     17 C13        -5.0409    0.4699    3.7847 C.2       1 <0>        -0.1580
     18 C14        -4.3309    0.9571    2.8181 C.2       1 <0>        -0.1034
     19 C15        -4.7614    0.9481    1.3773 C.3       1 <0>        -0.0141
     20 C16        -5.0044    2.3840    0.9169 C.3       1 <0>        -0.0976
     21 C17        -4.1340    3.3477    1.7220 C.3       1 <0>        -0.1139
     22 C18        -2.7884    2.7141    2.0699 C.3       1 <0>         0.0897
     23 H4         -2.1193    3.4774    2.4670 H         1 <0>         0.0855
     24 C19        -2.9961    1.6172    3.1238 C.3       1 <0>        -0.0994
     25 O2         -2.2040    2.1324    0.8747 O.3       1 <0>        -0.3303
     26 C20        -0.8639    2.0974    0.8068 C.2       1 <0>         0.4482
     27 O3         -0.2011    2.5381    1.7158 O.2       1 <0>        -0.5161
     28 C21        -0.1859    1.5083   -0.4034 C.3       1 <0>        -0.1507
     29 C22        -3.6248    0.3599    0.5388 C.3       1 <0>        -0.1418
     30 C23        -9.9869   -1.2588    0.4085 C.3       1 <0>        -0.1431
     31 H5         -9.4594    4.0512   -0.2135 H         1 <0>         0.0860
     32 H6        -10.8968    3.6915   -1.0618 H         1 <0>         0.0883
     33 H7        -10.7789    3.4694    0.7004 H         1 <0>         0.0814
     34 H8        -10.2583    2.3529    2.2997 H         1 <0>         0.1362
     35 H9         -9.0062    0.6477    3.8165 H         1 <0>         0.0805
     36 H10       -10.2615   -0.3782    3.0516 H         1 <0>         0.0871
     37 H11        -8.2907   -0.0998   -1.4069 H         1 <0>         0.0829
     38 H12        -7.5232   -1.4213   -0.5007 H         1 <0>         0.0597
     39 H13        -6.9485    1.5493   -0.1297 H         1 <0>         0.0627
     40 H14        -5.9050    0.3847   -0.9856 H         1 <0>         0.0630
     41 H15        -6.2981   -1.2304    3.5753 H         1 <0>         0.0717
     42 H16        -7.0414    0.1439    4.4229 H         1 <0>         0.0697
     43 H17        -4.6349    0.5090    4.7847 H         1 <0>         0.1011
     44 H18        -6.0544    2.6375    1.0626 H         1 <0>         0.0647
     45 H19        -4.7552    2.4695   -0.1408 H         1 <0>         0.0699
     46 H20        -4.6528    3.6137    2.6430 H         1 <0>         0.0812
     47 H21        -3.9632    4.2504    1.1355 H         1 <0>         0.0686
     48 H22        -2.1939    0.8821    3.0590 H         1 <0>         0.0790
     49 H23        -3.0186    2.0582    4.1204 H         1 <0>         0.0850
     50 H24        -0.0239    0.4419   -0.2460 H         1 <0>         0.1032
     51 H25         0.7731    2.0024   -0.5591 H         1 <0>         0.1010
     52 H26        -0.8166    1.6544   -1.2803 H         1 <0>         0.0934
     53 H27        -2.6876    0.4410    1.0893 H         1 <0>         0.0742
     54 H28        -3.8334   -0.6892    0.3291 H         1 <0>         0.0425
     55 H29        -3.5438    0.9088   -0.3995 H         1 <0>         0.0615
     56 H30        -9.5661   -2.2636    0.4456 H         1 <0>         0.0587
     57 H31       -10.7457   -1.1538    1.1840 H         1 <0>         0.0547
     58 H32       -10.4401   -1.0905   -0.5684 H         1 <0>         0.0569
@<TRIPOS>BOND
     1    1    2 1
     2    1   31 1
     3    1   32 1
     4    1   33 1
     5    2    3 2
     6    2    4 1
     7    4    9 1
     8    4    5 2
     9    5    6 1
    10    5   34 1
    11    6    7 1
    12    6   35 1
    13    6   36 1
    14    7    8 1
    15    7   14 1
    16    7    9 1
    17    9   10 1
    18    9   30 1
    19   10   11 1
    20   10   37 1
    21   10   38 1
    22   11   12 1
    23   11   39 1
    24   11   40 1
    25   12   13 1
    26   12   19 1
    27   12   14 1
    28   14   15 1
    29   14   16 1
    30   16   17 1
    31   16   41 1
    32   16   42 1
    33   17   18 2
    34   17   43 1
    35   18   24 1
    36   18   19 1
    37   19   20 1
    38   19   29 1
    39   20   21 1
    40   20   44 1
    41   20   45 1
    42   21   22 1
    43   21   46 1
    44   21   47 1
    45   22   23 1
    46   22   24 1
    47   22   25 1
    48   24   48 1
    49   24   49 1
    50   25   26 1
    51   26   27 2
    52   26   28 1
    53   28   50 1
    54   28   51 1
    55   28   52 1
    56   29   53 1
    57   29   54 1
    58   29   55 1
    59   30   56 1
    60   30   57 1
    61   30   58 1
@<TRIPOS>MOLECULE
ZINC05382966
   58    61     0     0     0
SMALL
USER_CHARGES
(17-acetyl-10,13-dimethyl-2,3,4,7,8,9,11,12,14,15-decahydro-1H-cyclopenta[a]phenanthren-3-yl) acetate
@<TRIPOS>ATOM
      1 C1          1.3519    1.4158    0.1188 C.3       1 <0>        -0.1929
      2 C2         -0.0894    0.9759    0.1019 C.2       1 <0>         0.3996
      3 O1         -0.3641   -0.2045    0.1588 O.2       1 <0>        -0.4521
      4 C3         -1.1522    1.9676    0.0235 C.2       1 <0>        -0.2099
      5 C4         -1.0047    3.3022   -0.1478 C.2       1 <0>        -0.0817
      6 C5         -2.3829    3.9779   -0.1219 C.3       1 <0>        -0.1010
      7 C6         -3.1362    2.9667    0.7572 C.3       1 <0>        -0.0755
      8 H1         -2.6826    3.0222    1.7829 H         1 <0>         0.0747
      9 C7         -2.6331    1.6802    0.0703 C.3       1 <0>        -0.0115
     10 C8         -3.1209    0.4729    0.8188 C.3       1 <0>        -0.1005
     11 C9         -4.6628    0.5255    0.9182 C.3       1 <0>        -0.1075
     12 C10        -5.1123    1.7881    1.6247 C.3       1 <0>        -0.0662
     13 H2         -4.5947    1.7875    2.6060 H         1 <0>         0.0616
     14 C11        -4.6187    3.0549    0.8985 C.3       1 <0>        -0.0580
     15 H3         -4.8632    3.9278    1.5530 H         1 <0>         0.0702
     16 C12        -5.3956    3.2232   -0.4004 C.3       1 <0>        -0.0837
     17 C13        -6.8624    3.3300   -0.0609 C.2       1 <0>        -0.1586
     18 C14        -7.3777    2.6982    0.9448 C.2       1 <0>        -0.1037
     19 C15        -6.5879    1.8806    1.9335 C.3       1 <0>        -0.0086
     20 C16        -6.8021    2.5022    3.3226 C.3       1 <0>        -0.1053
     21 C17        -7.8047    3.6481    3.2347 C.3       1 <0>        -0.1103
     22 C18        -9.1213    3.2052    2.6039 C.3       1 <0>         0.0942
     23 H4         -9.8220    4.0445    2.6089 H         1 <0>         0.0841
     24 C19        -8.8828    2.7571    1.1566 C.3       1 <0>        -0.1011
     25 O2         -9.6915    2.1107    3.3681 O.3       1 <0>        -0.3488
     26 C20       -11.0304    2.0182    3.3941 C.2       1 <0>         0.4565
     27 O3        -11.7034    2.8253    2.7979 O.2       1 <0>        -0.5142
     28 C21       -11.6941    0.9077    4.1670 C.3       1 <0>        -0.1493
     29 C22        -7.1992    0.4764    1.9731 C.3       1 <0>        -0.1428
     30 C23        -3.0574    1.5671   -1.3947 C.3       1 <0>        -0.1470
     31 H5          1.7191    1.3903   -0.8110 H         1 <0>         0.0856
     32 H6          1.4171    2.4320    0.5074 H         1 <0>         0.0816
     33 H7          1.9289    0.7454    0.7558 H         1 <0>         0.0881
     34 H8         -0.0663    3.8156   -0.2821 H         1 <0>         0.1376
     35 H9         -2.3151    4.9444    0.3875 H         1 <0>         0.0757
     36 H10        -2.8066    4.0931   -1.1058 H         1 <0>         0.0969
     37 H11        -2.8286   -0.4408    0.2942 H         1 <0>         0.0725
     38 H12        -2.6977    0.4582    1.8267 H         1 <0>         0.0583
     39 H13        -5.1023    0.4642   -0.0704 H         1 <0>         0.0652
     40 H14        -4.9523   -0.3598    1.4942 H         1 <0>         0.0641
     41 H15        -5.3014    2.3560   -1.0476 H         1 <0>         0.0822
     42 H16        -5.0834    4.1245   -0.9197 H         1 <0>         0.0698
     43 H17        -7.4924    3.9225   -0.6960 H         1 <0>         0.1054
     44 H18        -7.1723    1.7372    4.0015 H         1 <0>         0.0742
     45 H19        -5.8487    2.8844    3.6867 H         1 <0>         0.0663
     46 H20        -7.3755    4.4542    2.6366 H         1 <0>         0.0842
     47 H21        -8.0017    4.0283    4.2387 H         1 <0>         0.0681
     48 H22        -9.3177    3.4893    0.4705 H         1 <0>         0.0781
     49 H23        -9.3373    1.7858    0.9792 H         1 <0>         0.0840
     50 H24       -11.4146    0.9792    5.2181 H         1 <0>         0.0999
     51 H25       -12.7764    0.9954    4.0720 H         1 <0>         0.1006
     52 H26       -11.3713   -0.0547    3.7698 H         1 <0>         0.0997
     53 H27        -6.7057   -0.1131    2.7458 H         1 <0>         0.0561
     54 H28        -8.2636    0.5496    2.1962 H         1 <0>         0.0629
     55 H29        -7.0633   -0.0065    1.0053 H         1 <0>         0.0536
     56 H30        -2.4174    0.8465   -1.9038 H         1 <0>         0.0545
     57 H31        -4.0939    1.2338   -1.4481 H         1 <0>         0.0651
     58 H32        -2.9635    2.5404   -1.8764 H         1 <0>         0.0593
@<TRIPOS>BOND
     1    1    2 1
     2    1   31 1
     3    1   32 1
     4    1   33 1
     5    2    3 2
     6    2    4 1
     7    4    9 1
     8    4    5 2
     9    5    6 1
    10    5   34 1
    11    6    7 1
    12    6   35 1
    13    6   36 1
    14    7    8 1
    15    7   14 1
    16    7    9 1
    17    9   10 1
    18    9   30 1
    19   10   11 1
    20   10   37 1
    21   10   38 1
    22   11   12 1
    23   11   39 1
    24   11   40 1
    25   12   13 1
    26   12   19 1
    27   12   14 1
    28   14   15 1
    29   14   16 1
    30   16   17 1
    31   16   41 1
    32   16   42 1
    33   17   18 2
    34   17   43 1
    35   18   24 1
    36   18   19 1
    37   19   20 1
    38   19   29 1
    39   20   21 1
    40   20   44 1
    41   20   45 1
    42   21   22 1
    43   21   46 1
    44   21   47 1
    45   22   23 1
    46   22   24 1
    47   22   25 1
    48   24   48 1
    49   24   49 1
    50   25   26 1
    51   26   27 2
    52   26   28 1
    53   28   50 1
    54   28   51 1
    55   28   52 1
    56   29   53 1
    57   29   54 1
    58   29   55 1
    59   30   56 1
    60   30   57 1
    61   30   58 1
@<TRIPOS>MOLECULE
ZINC05382972
   58    61     0     0     0
SMALL
USER_CHARGES
(17-acetyl-10,13-dimethyl-2,3,4,7,8,9,11,12,14,15-decahydro-1H-cyclopenta[a]phenanthren-3-yl) acetate
@<TRIPOS>ATOM
      1 C1         -3.3720    5.2054    1.7001 C.3       1 <0>        -0.1929
      2 C2         -2.1826    5.0653    0.7854 C.2       1 <0>         0.3982
      3 O1         -1.3670    5.9604    0.7094 O.2       1 <0>        -0.4535
      4 C3         -2.0114    3.8508   -0.0105 C.2       1 <0>        -0.2023
      5 C4         -2.9208    2.8631   -0.0850 C.2       1 <0>        -0.0817
      6 C5         -2.4230    1.7629   -0.9987 C.3       1 <0>        -0.1158
      7 C6         -0.8755    1.9750   -1.0281 C.3       1 <0>        -0.0663
      8 H1         -0.4189    1.6141   -1.9458 H         1 <0>         0.0981
      9 C7         -0.8231    3.5053   -0.8674 C.3       1 <0>         0.0031
     10 C8          0.4912    4.0334   -0.3668 C.3       1 <0>        -0.1213
     11 C9          1.2468    3.2099    0.6475 C.3       1 <0>        -0.0973
     12 C10         1.1245    1.7037    0.4726 C.3       1 <0>        -0.0618
     13 H2          1.3908    1.2586    1.4679 H         1 <0>         0.0582
     14 C11        -0.3212    1.3145    0.2310 C.3       1 <0>        -0.0664
     15 H3         -0.9234    1.6732    1.0910 H         1 <0>         0.0710
     16 C12        -0.4667   -0.2030    0.1648 C.3       1 <0>        -0.0858
     17 C13         0.5636   -0.8041   -0.7385 C.2       1 <0>        -0.1464
     18 C14         1.6895   -0.2288   -1.0257 C.2       1 <0>        -0.1079
     19 C15         2.1118    1.1219   -0.5126 C.3       1 <0>        -0.0023
     20 C16         3.4742    0.9522    0.1700 C.3       1 <0>        -0.1037
     21 C17         4.4793    0.2831   -0.7706 C.3       1 <0>        -0.1163
     22 C18         3.9914   -1.0959   -1.2018 C.3       1 <0>         0.0938
     23 H4          3.8574   -1.7329   -0.3238 H         1 <0>         0.0857
     24 C19         2.6554   -0.9666   -1.9391 C.3       1 <0>        -0.0996
     25 O2          4.9690   -1.7028   -2.0887 O.3       1 <0>        -0.3549
     26 C20         5.0591   -3.0420   -2.0712 C.2       1 <0>         0.4585
     27 O3          4.3453   -3.6860   -1.3394 O.2       1 <0>        -0.5140
     28 C21         6.0507   -3.7422   -2.9643 C.3       1 <0>        -0.1483
     29 C22         2.3048    2.0348   -1.7218 C.3       1 <0>        -0.1466
     30 C23        -1.0757    4.1142   -2.2609 C.3       1 <0>        -0.1446
     31 H5         -3.8881    4.3489    1.7093 H         1 <0>         0.0715
     32 H6         -3.0293    5.4340    2.7093 H         1 <0>         0.0924
     33 H7         -4.0124    6.0117    1.3425 H         1 <0>         0.0940
     34 H8         -3.8681    2.8580    0.4371 H         1 <0>         0.1374
     35 H9         -2.8536    1.8669   -1.9963 H         1 <0>         0.0862
     36 H10        -2.6792    0.7810   -0.5909 H         1 <0>         0.0832
     37 H11         0.3122    5.0335    0.0770 H         1 <0>         0.0800
     38 H12         1.1360    4.2531   -1.2290 H         1 <0>         0.0611
     39 H13         0.8806    3.4673    1.6581 H         1 <0>         0.0513
     40 H14         2.3104    3.4923    0.6349 H         1 <0>         0.0634
     41 H15        -0.3462   -0.6218    1.1702 H         1 <0>         0.0716
     42 H16        -1.4600   -0.4782   -0.1919 H         1 <0>         0.0747
     43 H17         0.3643   -1.7774   -1.1800 H         1 <0>         0.1041
     44 H18         3.3619    0.3323    1.0652 H         1 <0>         0.0647
     45 H19         3.8480    1.9374    0.4614 H         1 <0>         0.0755
     46 H20         5.4316    0.1581   -0.2323 H         1 <0>         0.0688
     47 H21         4.6621    0.9055   -1.6457 H         1 <0>         0.0803
     48 H22         2.2654   -1.9687   -2.1507 H         1 <0>         0.0711
     49 H23         2.7938   -0.4208   -2.8700 H         1 <0>         0.0832
     50 H24         6.6004   -3.0029   -3.5467 H         1 <0>         0.0911
     51 H25         6.7482   -4.3154   -2.3535 H         1 <0>         0.1050
     52 H26         5.5206   -4.4148   -3.6386 H         1 <0>         0.1048
     53 H27         1.3667    2.1132   -2.2713 H         1 <0>         0.0597
     54 H28         2.6120    3.0247   -1.3844 H         1 <0>         0.0628
     55 H29         3.0734    1.6181   -2.3727 H         1 <0>         0.0563
     56 H30        -0.2766    3.8141   -2.9388 H         1 <0>         0.0586
     57 H31        -2.0313    3.7578   -2.6454 H         1 <0>         0.0543
     58 H32        -1.0977    5.2013   -2.1839 H         1 <0>         0.0559
@<TRIPOS>BOND
     1    1    2 1
     2    1   31 1
     3    1   32 1
     4    1   33 1
     5    2    3 2
     6    2    4 1
     7    4    9 1
     8    4    5 2
     9    5    6 1
    10    5   34 1
    11    6    7 1
    12    6   35 1
    13    6   36 1
    14    7    8 1
    15    7   14 1
    16    7    9 1
    17    9   10 1
    18    9   30 1
    19   10   11 1
    20   10   37 1
    21   10   38 1
    22   11   12 1
    23   11   39 1
    24   11   40 1
    25   12   13 1
    26   12   19 1
    27   12   14 1
    28   14   15 1
    29   14   16 1
    30   16   17 1
    31   16   41 1
    32   16   42 1
    33   17   18 2
    34   17   43 1
    35   18   24 1
    36   18   19 1
    37   19   20 1
    38   19   29 1
    39   20   21 1
    40   20   44 1
    41   20   45 1
    42   21   22 1
    43   21   46 1
    44   21   47 1
    45   22   23 1
    46   22   24 1
    47   22   25 1
    48   24   48 1
    49   24   49 1
    50   25   26 1
    51   26   27 2
    52   26   28 1
    53   28   50 1
    54   28   51 1
    55   28   52 1
    56   29   53 1
    57   29   54 1
    58   29   55 1
    59   30   56 1
    60   30   57 1
    61   30   58 1
@<TRIPOS>MOLECULE
ZINC16890042
   51    54     0     0     0
SMALL
USER_CHARGES
(8S,9R,10R,13S,14S)-17-acetyl-10,13-dimethyl-1,2,6,7,8,9,11,12,14,15-decahydrocyclopenta[a]phenanthren-3-one
@<TRIPOS>ATOM
      1 C1         -2.7131    6.8409   -5.5382 C.3       1 <0>        -0.1930
      2 C2         -2.0207    6.5514   -4.2314 C.2       1 <0>         0.3977
      3 O1         -1.4795    7.4486   -3.6198 O.2       1 <0>        -0.4526
      4 C3         -2.0012    5.1916   -3.7014 C.2       1 <0>        -0.2096
      5 C4         -2.4664    4.0890   -4.3231 C.2       1 <0>        -0.0816
      6 C5         -2.2674    2.8702   -3.4183 C.3       1 <0>        -0.1014
      7 C6         -2.3079    3.5424   -2.0359 C.3       1 <0>        -0.0721
      8 H1         -3.3551    3.8637   -1.8379 H         1 <0>         0.0783
      9 C7         -1.4443    4.7843   -2.3567 C.3       1 <0>        -0.0094
     10 C8         -1.5588    5.7971   -1.2469 C.3       1 <0>        -0.0988
     11 C9         -1.7293    5.0921    0.1083 C.3       1 <0>        -0.1110
     12 C10        -1.0717    3.7190    0.1117 C.3       1 <0>        -0.0700
     13 H2         -0.0230    3.8029   -0.1665 H         1 <0>         0.0845
     14 C11        -1.7980    2.7816   -0.8574 C.3       1 <0>        -0.0704
     15 H3         -2.6866    2.4032   -0.3052 H         1 <0>         0.0654
     16 C12        -0.9519    1.5626   -1.1761 C.3       1 <0>        -0.1059
     17 C13        -0.2867    1.0495    0.1069 C.3       1 <0>        -0.0971
     18 C14        -1.0379    1.5820    1.3057 C.2       1 <0>        -0.0134
     19 C15        -1.6133    0.7426    2.1605 C.2       1 <0>        -0.2428
     20 C16        -2.3511    1.2298    3.3229 C.2       1 <0>         0.3865
     21 O2         -2.8214    0.4377    4.1147 O.2       1 <0>        -0.4651
     22 C17        -2.5310    2.7094    3.5448 C.3       1 <0>        -0.1598
     23 C18        -2.4154    3.4483    2.2107 C.3       1 <0>        -0.1077
     24 C19        -1.1156    3.0781    1.5060 C.3       1 <0>        -0.0347
     25 C20         0.0887    3.5521    2.3206 C.3       1 <0>        -0.1402
     26 C21         0.0264    4.4274   -2.5922 C.3       1 <0>        -0.1448
     27 H4         -3.1728    6.0140   -5.8622 H         1 <0>         0.0709
     28 H5         -3.4486    7.6320   -5.3922 H         1 <0>         0.0921
     29 H6         -1.9774    7.1605   -6.2762 H         1 <0>         0.0937
     30 H7         -2.9105    4.0667   -5.3053 H         1 <0>         0.1380
     31 H8         -3.1008    2.1733   -3.5319 H         1 <0>         0.0776
     32 H9         -1.3233    2.3766   -3.6122 H         1 <0>         0.0949
     33 H10        -2.4239    6.4476   -1.4239 H         1 <0>         0.0614
     34 H11        -0.6586    6.4228   -1.2230 H         1 <0>         0.0675
     35 H12        -2.7978    4.9853    0.3222 H         1 <0>         0.0635
     36 H13        -1.2852    5.7147    0.8916 H         1 <0>         0.0658
     37 H14        -0.1805    1.8100   -1.8975 H         1 <0>         0.0721
     38 H15        -1.5876    0.7741   -1.5786 H         1 <0>         0.0687
     39 H16        -0.3182   -0.0394    0.1136 H         1 <0>         0.0775
     40 H17         0.7460    1.3898    0.1388 H         1 <0>         0.0838
     41 H18        -1.5267   -0.3222    1.9949 H         1 <0>         0.1301
     42 H19        -1.8279    3.0399    4.1744 H         1 <0>         0.0931
     43 H20        -3.5267    2.8865    3.9669 H         1 <0>         0.0961
     44 H21        -2.4388    4.5259    2.3946 H         1 <0>         0.0833
     45 H22        -3.2645    3.1834    1.5758 H         1 <0>         0.0719
     46 H23         0.0574    4.6373    2.4176 H         1 <0>         0.0676
     47 H24         0.0589    3.0978    3.3110 H         1 <0>         0.0589
     48 H25         1.0082    3.2589    1.8139 H         1 <0>         0.0615
     49 H26         0.4741    4.0950   -1.6556 H         1 <0>         0.0667
     50 H27         0.0926    3.6280   -3.3303 H         1 <0>         0.0554
     51 H28         0.5592    5.3050   -2.9584 H         1 <0>         0.0566
@<TRIPOS>BOND
     1    1    2 1
     2    1   27 1
     3    1   28 1
     4    1   29 1
     5    2    3 2
     6    2    4 1
     7    4    9 1
     8    4    5 2
     9    5    6 1
    10    5   30 1
    11    6    7 1
    12    6   31 1
    13    6   32 1
    14    7    8 1
    15    7   14 1
    16    7    9 1
    17    9   10 1
    18    9   26 1
    19   10   11 1
    20   10   33 1
    21   10   34 1
    22   11   12 1
    23   11   35 1
    24   11   36 1
    25   12   13 1
    26   12   24 1
    27   12   14 1
    28   14   15 1
    29   14   16 1
    30   16   17 1
    31   16   37 1
    32   16   38 1
    33   17   18 1
    34   17   39 1
    35   17   40 1
    36   18   24 1
    37   18   19 2
    38   19   20 1
    39   19   41 1
    40   20   21 2
    41   20   22 1
    42   22   23 1
    43   22   42 1
    44   22   43 1
    45   23   24 1
    46   23   44 1
    47   23   45 1
    48   24   25 1
    49   25   46 1
    50   25   47 1
    51   25   48 1
    52   26   49 1
    53   26   50 1
    54   26   51 1
@<TRIPOS>MOLECULE
ZINC36294378
   43    46     0     0     0
SMALL
USER_CHARGES

@<TRIPOS>ATOM
      1 C1         -0.0168    1.3892    0.0097 C.ar      1 <0>        -0.1102
      2 C2          1.1709    2.0865    0.0021 C.ar      1 <0>        -0.1064
      3 C3          2.3881    1.4157   -0.0111 C.ar      1 <0>        -0.0670
      4 C4          2.4125    0.0376   -0.0136 C.ar      1 <0>        -0.0665
      5 C5          1.2216   -0.6727   -0.0102 C.ar      1 <0>        -0.1090
      6 C6          0.0021   -0.0041    0.0020 C.ar      1 <0>        -0.0434
      7 C7         -1.2693   -0.7687    0.0063 C.ar      1 <0>        -0.0350
      8 C8         -1.2456   -2.1621    0.0045 C.ar      1 <0>        -0.1029
      9 C9         -2.4285   -2.8729    0.0090 C.ar      1 <0>        -0.1260
     10 C10        -3.6427   -2.2032    0.0154 C.ar      1 <0>         0.0813
     11 C11        -3.6723   -0.8110    0.0173 C.ar      1 <0>         0.0851
     12 C12        -2.4890   -0.0946    0.0181 C.ar      1 <0>        -0.1225
     13 O1         -4.8641   -0.1560    0.0236 O.3       1 <0>        -0.4868
     14 O2         -4.8060   -2.9070    0.0194 O.3       1 <0>        -0.4874
     15 C13         3.6966   -0.7504   -0.0113 C.3       1 <0>        -0.0834
     16 C14         4.8678    0.1291   -0.4438 C.3       1 <0>        -0.1199
     17 C15         4.8484    1.4098    0.3989 C.3       1 <0>        -0.1118
     18 C16         3.6443    2.2476   -0.0261 C.3       1 <0>        -0.0097
     19 H1          3.8100    2.6302   -1.0332 H         1 <0>         0.0948
     20 C17         3.4846    3.4060    0.9245 C.ar      1 <0>        -0.0292
     21 C18         3.2560    3.1896    2.2748 C.ar      1 <0>        -0.1614
     22 C19         3.1146    4.2766    3.1166 C.ar      1 <0>         0.1004
     23 N1          3.1943    5.5069    2.6487 N.ar      1 <0>        -0.4872
     24 C20         3.4107    5.7502    1.3708 C.ar      1 <0>         0.1011
     25 C21         3.5684    4.7134    0.4706 C.ar      1 <0>        -0.1722
     26 H2         -0.9576    1.9194    0.0260 H         1 <0>         0.1250
     27 H3          1.1563    3.1664    0.0061 H         1 <0>         0.1208
     28 H4          1.2412   -1.7525   -0.0174 H         1 <0>         0.1265
     29 H5         -0.3011   -2.6859   -0.0009 H         1 <0>         0.1337
     30 H6         -2.4085   -3.9527    0.0072 H         1 <0>         0.1370
     31 H7         -2.5103    0.9852    0.0241 H         1 <0>         0.1365
     32 H8         -5.2048    0.0323    0.9088 H         1 <0>         0.3887
     33 H9         -5.1387   -3.1120    0.9039 H         1 <0>         0.3886
     34 H10         3.8837   -1.1294    0.9934 H         1 <0>         0.0787
     35 H11         3.6042   -1.5901   -0.7000 H         1 <0>         0.0774
     36 H12         5.8055   -0.4027   -0.2820 H         1 <0>         0.0733
     37 H13         4.7664    0.3825   -1.4991 H         1 <0>         0.0684
     38 H14         4.7629    1.1532    1.4548 H         1 <0>         0.0709
     39 H15         5.7659    1.9738    0.2307 H         1 <0>         0.0721
     40 H16         3.1889    2.1844    2.6639 H         1 <0>         0.1320
     41 H17         2.9363    4.1166    4.1697 H         1 <0>         0.1549
     42 H18         3.4695    6.7714    1.0243 H         1 <0>         0.1560
     43 H19         3.7503    4.9190   -0.5739 H         1 <0>         0.1348
@<TRIPOS>BOND
     1    1    6 ar
     2    1    2 ar
     3    1   26 1
     4    2    3 ar
     5    2   27 1
     6    3   18 1
     7    3    4 ar
     8    4    5 ar
     9    4   15 1
    10    5    6 ar
    11    5   28 1
    12    6    7 1
    13    7   12 ar
    14    7    8 ar
    15    8    9 ar
    16    8   29 1
    17    9   10 ar
    18    9   30 1
    19   10   11 ar
    20   10   14 1
    21   11   12 ar
    22   11   13 1
    23   12   31 1
    24   13   32 1
    25   14   33 1
    26   15   16 1
    27   15   34 1
    28   15   35 1
    29   16   17 1
    30   16   36 1
    31   16   37 1
    32   17   18 1
    33   17   38 1
    34   17   39 1
    35   18   19 1
    36   18   20 1
    37   20   25 ar
    38   20   21 ar
    39   21   22 ar
    40   21   40 1
    41   22   23 ar
    42   22   41 1
    43   23   24 ar
    44   24   25 ar
    45   24   42 1
    46   25   43 1
@<TRIPOS>MOLECULE
ZINC36294380
   43    46     0     0     0
SMALL
USER_CHARGES

@<TRIPOS>ATOM
      1 C1         -0.0168    1.3892    0.0097 C.ar      1 <0>        -0.1102
      2 C2          1.1709    2.0865    0.0021 C.ar      1 <0>        -0.1065
      3 C3          2.3881    1.4157   -0.0152 C.ar      1 <0>        -0.0672
      4 C4          2.4124    0.0376   -0.0279 C.ar      1 <0>        -0.0665
      5 C5          1.2216   -0.6726   -0.0162 C.ar      1 <0>        -0.1091
      6 C6          0.0021   -0.0041    0.0020 C.ar      1 <0>        -0.0434
      7 C7         -1.2693   -0.7687    0.0137 C.ar      1 <0>        -0.0350
      8 C8         -1.2455   -2.1621    0.0119 C.ar      1 <0>        -0.1029
      9 C9         -2.4283   -2.8730    0.0232 C.ar      1 <0>        -0.1260
     10 C10        -3.6425   -2.2033    0.0366 C.ar      1 <0>         0.0813
     11 C11        -3.6722   -0.8111    0.0386 C.ar      1 <0>         0.0851
     12 C12        -2.4889   -0.0947    0.0325 C.ar      1 <0>        -0.1225
     13 O1         -4.8639   -0.1561    0.0517 O.3       1 <0>        -0.4867
     14 O2         -4.8058   -2.9071    0.0474 O.3       1 <0>        -0.4874
     15 C13         3.6961   -0.7501   -0.0633 C.3       1 <0>        -0.0836
     16 C14         4.8755    0.1248    0.3563 C.3       1 <0>        -0.1197
     17 C15         4.8401    1.4144   -0.4721 C.3       1 <0>        -0.1120
     18 C16         3.6444    2.2476   -0.0152 C.3       1 <0>        -0.0094
     19 H1          3.8294    2.6193    0.9926 H         1 <0>         0.0947
     20 C17         3.4667    3.4160   -0.9502 C.ar      1 <0>        -0.0296
     21 C18         3.2010    3.2142   -2.2959 C.ar      1 <0>        -0.1612
     22 C19         3.0441    4.3102   -3.1231 C.ar      1 <0>         0.1008
     23 N1          3.1448    5.5354   -2.6460 N.ar      1 <0>        -0.4870
     24 C20         3.3966    5.7649   -1.3720 C.ar      1 <0>         0.1009
     25 C21         3.5593    4.7185   -0.4839 C.ar      1 <0>        -0.1724
     26 H2         -0.9576    1.9194    0.0260 H         1 <0>         0.1250
     27 H3          1.1563    3.1664    0.0093 H         1 <0>         0.1209
     28 H4          1.2411   -1.7524   -0.0214 H         1 <0>         0.1264
     29 H5         -0.3011   -2.6859    0.0011 H         1 <0>         0.1337
     30 H6         -2.4083   -3.9528    0.0214 H         1 <0>         0.1370
     31 H7         -2.5102    0.9851    0.0385 H         1 <0>         0.1365
     32 H8         -5.1994    0.0322    0.9388 H         1 <0>         0.3887
     33 H9         -5.1333   -3.1121    0.9338 H         1 <0>         0.3885
     34 H10         3.6167   -1.5972    0.6181 H         1 <0>         0.0773
     35 H11         3.8640   -1.1183   -1.0754 H         1 <0>         0.0788
     36 H12         4.7943    0.3668    1.4159 H         1 <0>         0.0682
     37 H13         5.8098   -0.4051    0.1708 H         1 <0>         0.0732
     38 H14         5.7607    1.9767   -0.3155 H         1 <0>         0.0721
     39 H15         4.7344    1.1692   -1.5289 H         1 <0>         0.0710
     40 H16         3.1180    2.2132   -2.6928 H         1 <0>         0.1321
     41 H17         2.8369    4.1615   -4.1726 H         1 <0>         0.1551
     42 H18         3.4723    6.7823   -1.0178 H         1 <0>         0.1559
     43 H19         3.7604    4.9129    0.5592 H         1 <0>         0.1346
@<TRIPOS>BOND
     1    1    6 ar
     2    1    2 ar
     3    1   26 1
     4    2    3 ar
     5    2   27 1
     6    3   18 1
     7    3    4 ar
     8    4    5 ar
     9    4   15 1
    10    5    6 ar
    11    5   28 1
    12    6    7 1
    13    7   12 ar
    14    7    8 ar
    15    8    9 ar
    16    8   29 1
    17    9   10 ar
    18    9   30 1
    19   10   11 ar
    20   10   14 1
    21   11   12 ar
    22   11   13 1
    23   12   31 1
    24   13   32 1
    25   14   33 1
    26   15   16 1
    27   15   34 1
    28   15   35 1
    29   16   17 1
    30   16   36 1
    31   16   37 1
    32   17   18 1
    33   17   38 1
    34   17   39 1
    35   18   19 1
    36   18   20 1
    37   20   25 ar
    38   20   21 ar
    39   21   22 ar
    40   21   40 1
    41   22   23 ar
    42   22   41 1
    43   23   24 ar
    44   24   25 ar
    45   24   42 1
    46   25   43 1
