@<TRIPOS>MOLECULE
ZINC36087977
   43    45     0     0     0
SMALL
USER_CHARGES

@<TRIPOS>ATOM
      1 C1         -0.0187    1.5258    0.0104 C.3       1 <0>        -0.1261
      2 C2          0.0021   -0.0041    0.0020 C.3       1 <0>        -0.0605
      3 C3         -1.3895   -0.7050    0.0620 C.3       1 <0>        -0.1123
      4 C4         -1.0841   -2.1388    0.5524 C.3       1 <0>        -0.1202
      5 C5          0.4633   -2.1691    0.7425 C.3       1 <0>        -0.0933
      6 H1          0.8484   -2.9565    1.3905 H         1 <0>         0.1010
      7 C6          0.7270   -0.6945    1.2108 C.3       1 <0>        -0.0626
      8 C7          2.2202   -0.3632    1.2496 C.3       1 <0>        -0.1446
      9 C8          0.0423   -0.3846    2.5435 C.3       1 <0>        -0.1370
     10 C9          1.0354   -2.1392   -0.7077 C.3       1 <0>        -0.1319
     11 C10         0.7443   -0.6691   -1.1972 C.3       1 <0>         0.0886
     12 H2          1.6654   -0.1305   -1.4198 H         1 <0>         0.0901
     13 O1         -0.1023   -0.7073   -2.3478 O.3       1 <0>        -0.3390
     14 C11         0.4970   -0.6493   -3.5475 C.2       1 <0>         0.4603
     15 O2          1.7004   -0.5689   -3.6184 O.2       1 <0>        -0.4965
     16 C12        -0.3313   -0.6846   -4.8060 C.3       1 <0>        -0.0763
     17 C13         0.5759   -0.6063   -6.0068 C.ar      1 <0>        -0.0351
     18 C14         0.9293    0.6191   -6.5505 C.ar      1 <0>        -0.1570
     19 C15         1.7634    0.6517   -7.6521 C.ar      1 <0>         0.1020
     20 N1          2.2208   -0.4644   -8.1850 N.ar      1 <0>        -0.4822
     21 C16         1.9057   -1.6472   -7.6944 C.ar      1 <0>         0.1019
     22 C17         1.0815   -1.7578   -6.5905 C.ar      1 <0>        -0.1570
     23 H3          1.0039    1.9031    0.0027 H         1 <0>         0.0597
     24 H4         -0.5459    1.8868   -0.8726 H         1 <0>         0.0600
     25 H5         -0.5289    1.8773    0.9072 H         1 <0>         0.0662
     26 H6         -2.0427   -0.1928    0.7685 H         1 <0>         0.0660
     27 H7         -1.8449   -0.7309   -0.9279 H         1 <0>         0.0755
     28 H8         -1.5872   -2.3315    1.4999 H         1 <0>         0.0660
     29 H9         -1.3893   -2.8696   -0.1965 H         1 <0>         0.0650
     30 H10         2.3508    0.7147    1.3454 H         1 <0>         0.0584
     31 H11         2.6811   -0.8622    2.1020 H         1 <0>         0.0592
     32 H12         2.6925   -0.7060    0.3290 H         1 <0>         0.0588
     33 H13        -0.9869   -0.7422    2.5150 H         1 <0>         0.0630
     34 H14         0.5778   -0.8829    3.3516 H         1 <0>         0.0573
     35 H15         0.0484    0.6921    2.7133 H         1 <0>         0.0572
     36 H16         2.1105   -2.3182   -0.6958 H         1 <0>         0.0730
     37 H17         0.5329   -2.8799   -1.3298 H         1 <0>         0.0761
     38 H18        -0.9004   -1.6136   -4.8404 H         1 <0>         0.1202
     39 H19        -1.0175    0.1623   -4.8132 H         1 <0>         0.1203
     40 H20         0.5573    1.5366   -6.1190 H         1 <0>         0.1348
     41 H21         2.0434    1.6022   -8.0816 H         1 <0>         0.1583
     42 H22         2.2995   -2.5395   -8.1581 H         1 <0>         0.1582
     43 H23         0.8310   -2.7292   -6.1903 H         1 <0>         0.1347
@<TRIPOS>BOND
     1    1    2 1
     2    1   23 1
     3    1   24 1
     4    1   25 1
     5    2    7 1
     6    2   11 1
     7    2    3 1
     8    3    4 1
     9    3   26 1
    10    3   27 1
    11    4    5 1
    12    4   28 1
    13    4   29 1
    14    5    6 1
    15    5    7 1
    16    5   10 1
    17    7    8 1
    18    7    9 1
    19    8   30 1
    20    8   31 1
    21    8   32 1
    22    9   33 1
    23    9   34 1
    24    9   35 1
    25   10   11 1
    26   10   36 1
    27   10   37 1
    28   11   12 1
    29   11   13 1
    30   13   14 1
    31   14   15 2
    32   14   16 1
    33   16   17 1
    34   16   38 1
    35   16   39 1
    36   17   22 ar
    37   17   18 ar
    38   18   19 ar
    39   18   40 1
    40   19   20 ar
    41   19   41 1
    42   20   21 ar
    43   21   22 ar
    44   21   42 1
    45   22   43 1
@<TRIPOS>MOLECULE
ZINC36087979
   43    45     0     0     0
SMALL
USER_CHARGES

@<TRIPOS>ATOM
      1 C1         -0.0187    1.5258    0.0104 C.3       1 <0>        -0.1227
      2 C2          0.0021   -0.0041    0.0020 C.3       1 <0>        -0.0578
      3 C3          0.7443   -0.6691   -1.1972 C.3       1 <0>        -0.1162
      4 C4          1.0617   -2.1027   -0.7139 C.3       1 <0>        -0.1242
      5 C5          0.4813   -2.1688    0.7318 C.3       1 <0>        -0.0939
      6 H1          0.8820   -2.9559    1.3706 H         1 <0>         0.1015
      7 C6          0.7270   -0.6945    1.2108 C.3       1 <0>        -0.0617
      8 C7          0.0314   -0.4000    2.5413 C.3       1 <0>        -0.1383
      9 C8          2.2164   -0.3480    1.2605 C.3       1 <0>        -0.1388
     10 C9         -1.0651   -2.1745    0.5318 C.3       1 <0>        -0.1323
     11 C10        -1.3895   -0.7050    0.0620 C.3       1 <0>         0.0882
     12 H2         -1.8449   -0.7309   -0.9279 H         1 <0>         0.0851
     13 O1         -2.2459   -0.0336    0.9882 O.3       1 <0>        -0.3326
     14 C11        -3.5639   -0.0707    0.7366 C.2       1 <0>         0.4583
     15 O2         -3.9767   -0.6539   -0.2377 O.2       1 <0>        -0.4964
     16 C12        -4.5287    0.6151    1.6693 C.3       1 <0>        -0.0763
     17 C13        -5.9360    0.4250    1.1650 C.ar      1 <0>        -0.0351
     18 C14        -6.5030    1.3334    0.2842 C.ar      1 <0>        -0.1570
     19 C15        -7.7963    1.1263   -0.1569 C.ar      1 <0>         0.1019
     20 N1         -8.4887    0.0807    0.2507 N.ar      1 <0>        -0.4823
     21 C16        -7.9817   -0.8033    1.0877 C.ar      1 <0>         0.1018
     22 C17        -6.6926   -0.6653    1.5663 C.ar      1 <0>        -0.1570
     23 H3          1.0039    1.9031    0.0027 H         1 <0>         0.0630
     24 H4         -0.5459    1.8868   -0.8726 H         1 <0>         0.0559
     25 H5         -0.5289    1.8773    0.9072 H         1 <0>         0.0667
     26 H6          0.0986   -0.6982   -2.0748 H         1 <0>         0.0654
     27 H7          1.6654   -0.1305   -1.4198 H         1 <0>         0.0747
     28 H8          0.5719   -2.8366   -1.3539 H         1 <0>         0.0659
     29 H9          2.1388   -2.2689   -0.6989 H         1 <0>         0.0690
     30 H10        -0.9940   -0.7680    2.5045 H         1 <0>         0.0690
     31 H11         0.5672   -0.8977    3.3495 H         1 <0>         0.0511
     32 H12         0.0252    0.6756    2.7178 H         1 <0>         0.0564
     33 H13         2.3353    0.7305    1.3637 H         1 <0>         0.0567
     34 H14         2.6774   -0.8476    2.1126 H         1 <0>         0.0557
     35 H15         2.6976   -0.6802    0.3406 H         1 <0>         0.0607
     36 H16        -1.3483   -2.9115   -0.2197 H         1 <0>         0.0770
     37 H17        -1.5696   -2.3801    1.4759 H         1 <0>         0.0724
     38 H18        -4.4387    0.1839    2.6664 H         1 <0>         0.1201
     39 H19        -4.2985    1.6797    1.7117 H         1 <0>         0.1204
     40 H20        -5.9412    2.1921   -0.0527 H         1 <0>         0.1348
     41 H21        -8.2452    1.8292   -0.8431 H         1 <0>         0.1582
     42 H22        -8.5794   -1.6471    1.3995 H         1 <0>         0.1582
     43 H23        -6.2812   -1.3953    2.2477 H         1 <0>         0.1346
@<TRIPOS>BOND
     1    1    2 1
     2    1   23 1
     3    1   24 1
     4    1   25 1
     5    2    7 1
     6    2   11 1
     7    2    3 1
     8    3    4 1
     9    3   26 1
    10    3   27 1
    11    4    5 1
    12    4   28 1
    13    4   29 1
    14    5    6 1
    15    5    7 1
    16    5   10 1
    17    7    8 1
    18    7    9 1
    19    8   30 1
    20    8   31 1
    21    8   32 1
    22    9   33 1
    23    9   34 1
    24    9   35 1
    25   10   11 1
    26   10   36 1
    27   10   37 1
    28   11   12 1
    29   11   13 1
    30   13   14 1
    31   14   15 2
    32   14   16 1
    33   16   17 1
    34   16   38 1
    35   16   39 1
    36   17   22 ar
    37   17   18 ar
    38   18   19 ar
    39   18   40 1
    40   19   20 ar
    41   19   41 1
    42   20   21 ar
    43   21   22 ar
    44   21   42 1
    45   22   43 1
@<TRIPOS>MOLECULE
ZINC05138115
   45    46     0     0     0
SMALL
USER_CHARGES
(4-tert-butylcyclohexyl) 2-(4-pyridyl)acetate
@<TRIPOS>ATOM
      1 C1         -4.3157    1.0135    2.5473 C.3       1 <0>        -0.1452
      2 C2         -2.8804    1.5431    2.5365 C.3       1 <0>        -0.0640
      3 C3         -2.1404    1.0362    3.7760 C.3       1 <0>        -0.1449
      4 C4         -2.9011    3.0729    2.5449 C.3       1 <0>        -0.1480
      5 C5         -2.1642    1.0497    1.2777 C.3       1 <0>        -0.0788
      6 C6         -0.7288    1.5792    1.2668 C.3       1 <0>        -0.1156
      7 C7         -0.0127    1.0858    0.0080 C.3       1 <0>        -0.1152
      8 C8         -0.7527    1.5927   -1.2315 C.3       1 <0>         0.0910
      9 C9         -2.1881    1.0631   -1.2207 C.3       1 <0>        -0.1344
     10 C10        -2.9042    1.5565    0.0381 C.3       1 <0>        -0.1147
     11 O1         -0.0731    1.1244   -2.4261 O.3       1 <0>        -0.3529
     12 C11        -0.1520    1.9028   -3.5168 C.2       1 <0>         0.4628
     13 O2         -0.7685    2.9410   -3.4747 O.2       1 <0>        -0.4970
     14 C12         0.5284    1.4817   -4.7939 C.3       1 <0>        -0.0768
     15 C13         0.2884    2.5220   -5.8575 C.ar      1 <0>        -0.0349
     16 C14        -0.8096    2.4357   -6.6997 C.ar      1 <0>        -0.1574
     17 C15        -0.9995    3.4105   -7.6608 C.ar      1 <0>         0.1020
     18 N1         -0.1462    4.4080   -7.7876 N.ar      1 <0>        -0.4824
     19 C16         0.9111    4.5194   -7.0074 C.ar      1 <0>         0.1020
     20 C17         1.1634    3.5850   -6.0210 C.ar      1 <0>        -0.1573
     21 H1         -4.3010   -0.0764    2.5413 H         1 <0>         0.0544
     22 H2         -4.8259    1.3650    3.4441 H         1 <0>         0.0545
     23 H3         -4.8429    1.3746    1.6643 H         1 <0>         0.0576
     24 H4         -1.1178    1.4135    3.7683 H         1 <0>         0.0578
     25 H5         -2.6506    1.3878    4.6728 H         1 <0>         0.0545
     26 H6         -2.1256   -0.0536    3.7700 H         1 <0>         0.0545
     27 H7         -3.4283    3.4340    1.6618 H         1 <0>         0.0575
     28 H8         -3.4113    3.4244    3.4417 H         1 <0>         0.0538
     29 H9         -1.8785    3.4502    2.5372 H         1 <0>         0.0574
     30 H10        -2.1494   -0.0402    1.2717 H         1 <0>         0.0733
     31 H11        -0.2017    1.2182    2.1499 H         1 <0>         0.0765
     32 H12        -0.7436    2.6691    1.2728 H         1 <0>         0.0691
     33 H13         0.0021   -0.0041    0.0020 H         1 <0>         0.0752
     34 H14         1.0099    1.4631    0.0003 H         1 <0>         0.0713
     35 H15        -0.7675    2.6825   -1.2255 H         1 <0>         0.0849
     36 H16        -2.7153    1.4241   -2.1037 H         1 <0>         0.0667
     37 H17        -2.1733   -0.0268   -1.2266 H         1 <0>         0.0728
     38 H18        -2.9190    2.6464    0.0441 H         1 <0>         0.0690
     39 H19        -3.9268    1.1792    0.0459 H         1 <0>         0.0732
     40 H20         1.5996    1.3815   -4.6189 H         1 <0>         0.1206
     41 H21         0.1230    0.5251   -5.1232 H         1 <0>         0.1206
     42 H22        -1.5095    1.6187   -6.6038 H         1 <0>         0.1349
     43 H23        -1.8541    3.3524   -8.3185 H         1 <0>         0.1583
     44 H24         1.5879    5.3504   -7.1412 H         1 <0>         0.1583
     45 H25         2.0315    3.6813   -5.3856 H         1 <0>         0.1349
@<TRIPOS>BOND
     1    1    2 1
     2    1   21 1
     3    1   22 1
     4    1   23 1
     5    2    3 1
     6    2    4 1
     7    2    5 1
     8    3   24 1
     9    3   25 1
    10    3   26 1
    11    4   27 1
    12    4   28 1
    13    4   29 1
    14    5   10 1
    15    5    6 1
    16    5   30 1
    17    6    7 1
    18    6   31 1
    19    6   32 1
    20    7    8 1
    21    7   33 1
    22    7   34 1
    23    8    9 1
    24    8   11 1
    25    8   35 1
    26    9   10 1
    27    9   36 1
    28    9   37 1
    29   10   38 1
    30   10   39 1
    31   11   12 1
    32   12   13 2
    33   12   14 1
    34   14   15 1
    35   14   40 1
    36   14   41 1
    37   15   20 ar
    38   15   16 ar
    39   16   17 ar
    40   16   42 1
    41   17   18 ar
    42   17   43 1
    43   18   19 ar
    44   19   20 ar
    45   19   44 1
    46   20   45 1
@<TRIPOS>MOLECULE
ZINC04715271
   57    61     0     0     0
SMALL
USER_CHARGES

@<TRIPOS>ATOM
      1 C1         -0.0187    1.5258    0.0104 C.3       1 <0>        -0.1412
      2 C2          0.0021   -0.0041    0.0020 C.3       1 <0>        -0.0497
      3 C3         -1.4158   -0.5383    0.0747 C.3       1 <0>        -0.1025
      4 C4         -2.0766    0.0985    1.3072 C.3       1 <0>        -0.1193
      5 C5         -1.2974   -0.2005    2.5849 C.3       1 <0>        -0.0650
      6 H1         -1.3396   -1.2738    2.7698 H         1 <0>         0.0659
      7 C6          0.1760    0.2126    2.4648 C.3       1 <0>        -0.0700
      8 H2          0.2558    1.2920    2.3361 H         1 <0>         0.0841
      9 C7          0.7512   -0.5278    1.2565 C.3       1 <0>        -0.0818
     10 H3          0.6133   -1.6041    1.3599 H         1 <0>         0.0777
     11 C8          2.2065   -0.1932    0.9115 C.3       1 <0>        -0.1153
     12 C9          2.3041   -0.5750   -0.5908 C.3       1 <0>        -0.1174
     13 C10         0.8628   -0.5037   -1.1540 C.3       1 <0>        -0.0032
     14 H4          0.5320   -1.4927   -1.4713 H         1 <0>         0.0851
     15 C11         0.8003    0.4639   -2.3077 C.2       1 <0>         0.0993
     16 C12         1.5964    1.6028   -2.4669 C.2       1 <0>        -0.2662
     17 C13         1.2374    2.2032   -3.6252 C.2       1 <0>         0.0550
     18 N1          0.2492    1.4701   -4.1794 N.pl3     1 <0>        -0.4815
     19 H5         -0.2034    1.6619   -5.0156 H         1 <0>         0.4379
     20 N2         -0.0041    0.3805   -3.3362 N.2       1 <0>        -0.2958
     21 C14         0.9009   -0.2238    3.7428 C.3       1 <0>        -0.0838
     22 C15         0.2069    0.3714    4.9330 C.2       1 <0>        -0.1541
     23 C16        -1.0539    0.6915    4.9320 C.2       1 <0>        -0.1053
     24 C17        -1.9443    0.5134    3.7599 C.3       1 <0>        -0.0151
     25 C18        -3.2133   -0.2280    4.1900 C.3       1 <0>        -0.1037
     26 C19        -3.8438    0.4949    5.3819 C.3       1 <0>        -0.1180
     27 C20        -2.8812    0.4656    6.5703 C.3       1 <0>         0.1081
     28 H6         -2.6211   -0.5673    6.8017 H         1 <0>         0.0590
     29 C21        -1.6478    1.2798    6.2008 C.3       1 <0>        -0.1151
     30 O1         -3.5083    1.0647    7.7060 O.3       1 <0>        -0.5701
     31 C22        -2.3616    1.9110    3.2980 C.3       1 <0>        -0.1507
     32 H7          1.0039    1.9031    0.0027 H         1 <0>         0.0587
     33 H8         -0.5459    1.8868   -0.8726 H         1 <0>         0.0499
     34 H9         -0.5289    1.8773    0.9072 H         1 <0>         0.0623
     35 H10        -1.9639   -0.2608   -0.8257 H         1 <0>         0.0639
     36 H11        -1.3990   -1.6229    0.1810 H         1 <0>         0.0629
     37 H12        -2.1262    1.1782    1.1657 H         1 <0>         0.0739
     38 H13        -3.0892   -0.2919    1.4090 H         1 <0>         0.0602
     39 H14         2.4017    0.8699    1.0528 H         1 <0>         0.0694
     40 H15         2.8924   -0.7950    1.5078 H         1 <0>         0.0664
     41 H16         2.9463    0.1323   -1.1156 H         1 <0>         0.0730
     42 H17         2.6969   -1.5864   -0.6950 H         1 <0>         0.0678
     43 H18         2.3620    1.9433   -1.7854 H         1 <0>         0.1456
     44 H19         1.6649    3.1073   -4.0330 H         1 <0>         0.1739
     45 H20         0.8840   -1.3111    3.8176 H         1 <0>         0.0725
     46 H21         1.9336    0.1236    3.7122 H         1 <0>         0.0710
     47 H22         0.7807    0.5415    5.8320 H         1 <0>         0.1021
     48 H23        -3.9210   -0.2485    3.3612 H         1 <0>         0.0730
     49 H24        -2.9588   -1.2484    4.4766 H         1 <0>         0.0637
     50 H25        -4.0523    1.5296    5.1096 H         1 <0>         0.0738
     51 H26        -4.7743   -0.0018    5.6565 H         1 <0>         0.0684
     52 H27        -0.9271    1.2004    7.0146 H         1 <0>         0.0659
     53 H28        -1.9021    2.3268    6.0359 H         1 <0>         0.0822
     54 H29        -2.9542    1.0807    8.4984 H         1 <0>         0.3777
     55 H30        -3.0710    1.8249    2.4749 H         1 <0>         0.0628
     56 H31        -2.8292    2.4430    4.1265 H         1 <0>         0.0571
     57 H32        -1.4819    2.4608    2.9634 H         1 <0>         0.0547
@<TRIPOS>BOND
     1    1    2 1
     2    1   32 1
     3    1   33 1
     4    1   34 1
     5    2    9 1
     6    2   13 1
     7    2    3 1
     8    3    4 1
     9    3   35 1
    10    3   36 1
    11    4    5 1
    12    4   37 1
    13    4   38 1
    14    5    6 1
    15    5   24 1
    16    5    7 1
    17    7    8 1
    18    7    9 1
    19    7   21 1
    20    9   10 1
    21    9   11 1
    22   11   12 1
    23   11   39 1
    24   11   40 1
    25   12   13 1
    26   12   41 1
    27   12   42 1
    28   13   14 1
    29   13   15 1
    30   15   20 2
    31   15   16 1
    32   16   17 2
    33   16   43 1
    34   17   18 1
    35   17   44 1
    36   18   19 1
    37   18   20 1
    38   21   22 1
    39   21   45 1
    40   21   46 1
    41   22   23 2
    42   22   47 1
    43   23   29 1
    44   23   24 1
    45   24   25 1
    46   24   31 1
    47   25   26 1
    48   25   48 1
    49   25   49 1
    50   26   27 1
    51   26   50 1
    52   26   51 1
    53   27   28 1
    54   27   29 1
    55   27   30 1
    56   29   52 1
    57   29   53 1
    58   30   54 1
    59   31   55 1
    60   31   56 1
    61   31   57 1
@<TRIPOS>MOLECULE
ZINC01027711
   24    25     0     0     0
SMALL
USER_CHARGES
1-[(4-nitrophenyl)methyl]imidazole
@<TRIPOS>ATOM
      1 C1          1.1709    2.0855    0.0021 C.ar      1 <0>        -0.0970
      2 C2          2.3773    1.4107   -0.0150 C.ar      1 <0>        -0.0536
      3 C3          2.3960    0.0285   -0.0212 C.ar      1 <0>        -0.0347
      4 C4          1.2084   -0.6789   -0.0132 C.ar      1 <0>        -0.0531
      5 C5          0.0021   -0.0041    0.0020 C.ar      1 <0>        -0.0977
      6 C6         -0.0167    1.3781    0.0096 C.ar      1 <0>        -0.0672
      7 C7         -1.3319    2.1138    0.0199 C.3       1 <0>         0.1418
      8 N1         -1.7515    2.3447    1.4044 N.pl3     1 <0>        -0.4610
      9 C8         -1.4462    3.4343    2.1746 C.2       1 <0>        -0.0563
     10 C9         -2.0300    3.2404    3.3726 C.2       1 <0>        -0.0244
     11 N2         -2.6741    2.0645    3.3349 N.2       1 <0>        -0.4908
     12 C10        -2.5165    1.5251    2.1571 C.2       1 <0>         0.1846
     13 N3          3.6878   -0.6940   -0.0370 N.pl3     1 <0>         0.0235
     14 O1          3.7043   -1.9119   -0.0429 O.2       1 <0>        -0.1525
     15 O2          4.7342   -0.0707   -0.0441 O.3       1 <0>        -0.1529
     16 H1          1.1563    3.1654    0.0077 H         1 <0>         0.1491
     17 H2          3.3051    1.9634   -0.0213 H         1 <0>         0.1582
     18 H3          1.2231   -1.7588   -0.0184 H         1 <0>         0.1586
     19 H4         -0.9258   -0.5567    0.0083 H         1 <0>         0.1503
     20 H5         -1.2169    3.0707   -0.4893 H         1 <0>         0.1108
     21 H6         -2.0859    1.5173   -0.4937 H         1 <0>         0.1132
     22 H7         -0.8520    4.2860    1.8783 H         1 <0>         0.1751
     23 H8         -1.9870    3.9137    4.2160 H         1 <0>         0.1713
     24 H9         -2.9276    0.5787    1.8380 H         1 <0>         0.2047
@<TRIPOS>BOND
     1    1    6 ar
     2    1    2 ar
     3    1   16 1
     4    2    3 ar
     5    2   17 1
     6    3    4 ar
     7    3   13 1
     8    4    5 ar
     9    4   18 1
    10    5    6 ar
    11    5   19 1
    12    6    7 1
    13    7    8 1
    14    7   20 1
    15    7   21 1
    16    8   12 1
    17    8    9 1
    18    9   10 2
    19    9   22 1
    20   10   11 1
    21   10   23 1
    22   11   12 2
    23   12   24 1
    24   13   14 2
    25   13   15 1
@<TRIPOS>MOLECULE
ZINC01027711
   25    26     0     0     0
SMALL
USER_CHARGES
1-[(4-nitrophenyl)methyl]imidazole
@<TRIPOS>ATOM
      1 C1          1.1709    2.0855    0.0021 C.ar      1 <0>        -0.0894
      2 C2          2.3773    1.4107   -0.0150 C.ar      1 <0>        -0.0519
      3 C3          2.3960    0.0285   -0.0212 C.ar      1 <0>        -0.0170
      4 C4          1.2084   -0.6789   -0.0132 C.ar      1 <0>        -0.0529
      5 C5          0.0021   -0.0041    0.0020 C.ar      1 <0>        -0.0944
      6 C6         -0.0167    1.3781    0.0096 C.ar      1 <0>        -0.1006
      7 C7         -1.3319    2.1138    0.0199 C.3       1 <0>         0.1379
      8 N1         -1.7515    2.3447    1.4044 N.pl3     1 <0>        -0.4113
      9 C8         -1.4462    3.4343    2.1746 C.2       1 <0>         0.0241
     10 C9         -2.0300    3.2404    3.3726 C.2       1 <0>         0.0080
     11 C10        -2.5165    1.5251    2.1571 C.cat     1 <0>         0.2896
     12 N2          3.6878   -0.6940   -0.0370 N.pl3     1 <0>         0.0140
     13 O1          3.7043   -1.9119   -0.0429 O.2       1 <0>        -0.1393
     14 O2          4.7342   -0.0707   -0.0441 O.3       1 <0>        -0.1384
     15 H1          1.1563    3.1654    0.0077 H         1 <0>         0.1537
     16 H2          3.3051    1.9634   -0.0213 H         1 <0>         0.1650
     17 H3          1.2231   -1.7588   -0.0184 H         1 <0>         0.1647
     18 H4         -0.9258   -0.5567    0.0083 H         1 <0>         0.1528
     19 H5         -1.2169    3.0707   -0.4893 H         1 <0>         0.1400
     20 H6         -2.0859    1.5173   -0.4937 H         1 <0>         0.1377
     21 H7         -0.8520    4.2860    1.8783 H         1 <0>         0.2227
     22 H8         -1.9870    3.9137    4.2160 H         1 <0>         0.2244
     23 H9         -2.9276    0.5787    1.8380 H         1 <0>         0.2592
     24 N3         -2.6734    2.0651    3.3339 N.pl3     1 <0>        -0.4816
     25 H10        -3.2063    1.6541    4.1093 H         1 <0>         0.4830
@<TRIPOS>BOND
     1    1    6 ar
     2    1    2 ar
     3    1   15 1
     4    2    3 ar
     5    2   16 1
     6    3    4 ar
     7    3   12 1
     8    4    5 ar
     9    4   17 1
    10    5    6 ar
    11    5   18 1
    12    6    7 1
    13    7    8 1
    14    7   19 1
    15    7   20 1
    16    8   11 1
    17    8    9 1
    18    9   10 2
    19    9   21 1
    20   10   22 1
    21   10   24 1
    22   11   23 1
    23   11   24 2
    24   12   13 2
    25   12   14 1
    26   24   25 1
@<TRIPOS>MOLECULE
ZINC13549136
   23    24     0     0     0
SMALL
USER_CHARGES
4-(imidazol-1-ylmethyl)phenol
@<TRIPOS>ATOM
      1 C1          1.1698    2.0883    0.0021 C.ar      1 <0>        -0.0806
      2 C2          2.3774    1.4175   -0.0131 C.ar      1 <0>        -0.1462
      3 C3          2.3989    0.0304   -0.0203 C.ar      1 <0>         0.1181
      4 C4          1.2070   -0.6796   -0.0127 C.ar      1 <0>        -0.1457
      5 C5          0.0021   -0.0041    0.0020 C.ar      1 <0>        -0.0813
      6 C6         -0.0167    1.3784    0.0096 C.ar      1 <0>        -0.1290
      7 C7         -1.3326    2.1128    0.0199 C.3       1 <0>         0.1480
      8 N1         -1.7524    2.3433    1.4043 N.pl3     1 <0>        -0.4564
      9 C8         -1.4483    3.4332    2.1746 C.2       1 <0>        -0.0551
     10 C9         -2.0318    3.2387    3.3726 C.2       1 <0>        -0.0291
     11 N2         -2.6748    2.0622    3.3349 N.2       1 <0>        -0.4947
     12 C10        -2.5167    1.5229    2.1571 C.2       1 <0>         0.1829
     13 O1          3.5855   -0.6319   -0.0353 O.3       1 <0>        -0.4987
     14 H1          1.1525    3.1682    0.0077 H         1 <0>         0.1280
     15 H2          3.3039    1.9724   -0.0187 H         1 <0>         0.1327
     16 H3          1.2211   -1.7595   -0.0179 H         1 <0>         0.1332
     17 H4         -0.9260   -0.5563    0.0079 H         1 <0>         0.1293
     18 H5         -1.2185    3.0698   -0.4893 H         1 <0>         0.1018
     19 H6         -2.0860    1.5156   -0.4937 H         1 <0>         0.1043
     20 H7         -0.8549    4.2855    1.8784 H         1 <0>         0.1724
     21 H8         -1.9895    3.9120    4.2160 H         1 <0>         0.1692
     22 H9         -2.9269    0.5762    1.8380 H         1 <0>         0.2022
     23 H10         3.9205   -0.8188   -0.9229 H         1 <0>         0.3945
@<TRIPOS>BOND
     1    1    6 ar
     2    1    2 ar
     3    1   14 1
     4    2    3 ar
     5    2   15 1
     6    3    4 ar
     7    3   13 1
     8    4    5 ar
     9    4   16 1
    10    5    6 ar
    11    5   17 1
    12    6    7 1
    13    7    8 1
    14    7   18 1
    15    7   19 1
    16    8   12 1
    17    8    9 1
    18    9   10 2
    19    9   20 1
    20   10   11 1
    21   10   21 1
    22   11   12 2
    23   12   22 1
    24   13   23 1
@<TRIPOS>MOLECULE
ZINC13549136
   24    25     0     0     0
SMALL
USER_CHARGES
4-(imidazol-1-ylmethyl)phenol
@<TRIPOS>ATOM
      1 C1          1.1698    2.0883    0.0021 C.ar      1 <0>        -0.0725
      2 C2          2.3774    1.4175   -0.0131 C.ar      1 <0>        -0.1454
      3 C3          2.3989    0.0304   -0.0203 C.ar      1 <0>         0.1417
      4 C4          1.2070   -0.6796   -0.0127 C.ar      1 <0>        -0.1461
      5 C5          0.0021   -0.0041    0.0020 C.ar      1 <0>        -0.0773
      6 C6         -0.0167    1.3784    0.0096 C.ar      1 <0>        -0.1621
      7 C7         -1.3326    2.1128    0.0199 C.3       1 <0>         0.1427
      8 N1         -1.7524    2.3433    1.4043 N.pl3     1 <0>        -0.4055
      9 C8         -1.4483    3.4332    2.1746 C.2       1 <0>         0.0246
     10 C9         -2.0318    3.2387    3.3726 C.2       1 <0>         0.0039
     11 C10        -2.5167    1.5229    2.1571 C.cat     1 <0>         0.2868
     12 O1          3.5855   -0.6319   -0.0353 O.3       1 <0>        -0.4968
     13 H1          1.1525    3.1682    0.0077 H         1 <0>         0.1329
     14 H2          3.3039    1.9724   -0.0187 H         1 <0>         0.1402
     15 H3          1.2211   -1.7595   -0.0179 H         1 <0>         0.1398
     16 H4         -0.9260   -0.5563    0.0079 H         1 <0>         0.1319
     17 H5         -1.2185    3.0698   -0.4893 H         1 <0>         0.1313
     18 H6         -2.0860    1.5156   -0.4937 H         1 <0>         0.1290
     19 H7         -0.8549    4.2855    1.8784 H         1 <0>         0.2203
     20 H8         -1.9895    3.9120    4.2160 H         1 <0>         0.2223
     21 H9         -2.9269    0.5762    1.8380 H         1 <0>         0.2568
     22 H10         3.9205   -0.8188   -0.9229 H         1 <0>         0.4045
     23 N2         -2.6741    2.0628    3.3339 N.pl3     1 <0>        -0.4838
     24 H11        -3.2067    1.6514    4.1094 H         1 <0>         0.4810
@<TRIPOS>BOND
     1    1    6 ar
     2    1    2 ar
     3    1   13 1
     4    2    3 ar
     5    2   14 1
     6    3    4 ar
     7    3   12 1
     8    4    5 ar
     9    4   15 1
    10    5    6 ar
    11    5   16 1
    12    6    7 1
    13    7    8 1
    14    7   17 1
    15    7   18 1
    16    8   11 1
    17    8    9 1
    18    9   10 2
    19    9   19 1
    20   10   20 1
    21   10   23 1
    22   11   21 1
    23   11   23 2
    24   12   22 1
    25   23   24 1
@<TRIPOS>MOLECULE
ZINC05128638
   29    31     0     0     0
SMALL
USER_CHARGES
2-(3-thienylmethylene)tetralin-1-one
@<TRIPOS>ATOM
      1 C1         -1.4471   -7.1796    0.1650 C.ar      1 <0>        -0.0867
      2 C2         -0.1381   -7.4505    0.5234 C.ar      1 <0>        -0.1363
      3 C3          0.8017   -6.4399    0.5233 C.ar      1 <0>        -0.0602
      4 C4          0.4254   -5.1458    0.1697 C.ar      1 <0>        -0.1618
      5 C5         -0.8877   -4.8832   -0.2232 C.ar      1 <0>        -0.0360
      6 C6         -1.8202   -5.9010   -0.2087 C.ar      1 <0>        -0.1327
      7 C7         -1.2816   -3.5070   -0.6872 C.3       1 <0>        -0.0862
      8 C8         -0.5307   -2.4346    0.1031 C.3       1 <0>        -0.0815
      9 C9          0.9497   -2.7109    0.0812 C.2       1 <0>        -0.2088
     10 C10         1.8324   -1.6873   -0.0240 C.2       1 <0>         0.0150
     11 C11         1.3592   -0.3021    0.0425 C.2       1 <0>        -0.1284
     12 C12         2.0471    0.7644   -0.6439 C.2       1 <0>        -0.1351
     13 C13         1.5346    2.0037   -0.5212 C.2       1 <0>        -0.1877
     14 S1          0.1137    1.7542    0.5231 S.3       1 <0>         0.1083
     15 C14         0.2321    0.0440    0.7669 C.2       1 <0>        -0.1843
     16 C15         1.4148   -4.0445    0.1769 C.2       1 <0>         0.4353
     17 O1          2.6065   -4.2814    0.2631 O.2       1 <0>        -0.4597
     18 H1         -2.1818   -7.9711    0.1774 H         1 <0>         0.1280
     19 H2          0.1481   -8.4535    0.8036 H         1 <0>         0.1295
     20 H3          1.8251   -6.6514    0.7961 H         1 <0>         0.1331
     21 H4         -2.8431   -5.6987   -0.4903 H         1 <0>         0.1294
     22 H5         -1.0484   -3.4054   -1.7471 H         1 <0>         0.0855
     23 H6         -2.3535   -3.3727   -0.5421 H         1 <0>         0.0859
     24 H7         -0.8813   -2.4308    1.1351 H         1 <0>         0.0791
     25 H8         -0.7217   -1.4585   -0.3428 H         1 <0>         0.0924
     26 H9          2.8843   -1.8929   -0.1569 H         1 <0>         0.1371
     27 H10         2.9346    0.5770   -1.2301 H         1 <0>         0.1433
     28 H11         1.8971    2.9253   -0.9520 H         1 <0>         0.1887
     29 H12        -0.4170   -0.5975    1.3445 H         1 <0>         0.1948
@<TRIPOS>BOND
     1    1    6 ar
     2    1    2 ar
     3    1   18 1
     4    2    3 ar
     5    2   19 1
     6    3    4 ar
     7    3   20 1
     8    4   16 1
     9    4    5 ar
    10    5    6 ar
    11    5    7 1
    12    6   21 1
    13    7    8 1
    14    7   22 1
    15    7   23 1
    16    8    9 1
    17    8   24 1
    18    8   25 1
    19    9   10 2
    20    9   16 1
    21   10   11 1
    22   10   26 1
    23   11   15 2
    24   11   12 1
    25   12   13 2
    26   12   27 1
    27   13   14 1
    28   13   28 1
    29   14   15 1
    30   15   29 1
    31   16   17 2
@<TRIPOS>MOLECULE
ZINC04810192
   22    23     0     0     0
SMALL
USER_CHARGES
1-[(4-bromophenyl)methyl]imidazole
@<TRIPOS>ATOM
      1 C1         -2.4965   -0.3703   -2.0466 C.ar      1 <0>        -0.0921
      2 C2         -2.8727   -0.6385   -3.3493 C.ar      1 <0>        -0.0907
      3 C3         -2.3389   -1.7287   -4.0125 C.ar      1 <0>        -0.0810
      4 C4         -1.4249   -2.5470   -3.3735 C.ar      1 <0>        -0.0903
      5 C5         -1.0453   -2.2749   -2.0726 C.ar      1 <0>        -0.0928
      6 C6         -1.5790   -1.1852   -1.4101 C.ar      1 <0>        -0.1038
      7 C7         -1.1652   -0.8893    0.0084 C.3       1 <0>         0.1456
      8 N1          0.0021   -0.0041    0.0020 N.pl3     1 <0>        -0.4572
      9 C8         -0.0165    1.3646    0.0095 C.2       1 <0>        -0.0553
     10 C9          1.2671    1.7717   -0.0005 C.2       1 <0>        -0.0279
     11 N2          2.0482    0.6814   -0.0138 N.2       1 <0>        -0.4938
     12 C10         1.2973   -0.3859   -0.0124 C.2       1 <0>         0.1836
     13 Br1        -2.8582   -2.1000   -5.7925 Br        1 <0>        -0.0424
     14 H1         -2.9163    0.4785   -1.5272 H         1 <0>         0.1330
     15 H2         -3.5861    0.0009   -3.8479 H         1 <0>         0.1370
     16 H3         -1.0076   -3.3981   -3.8911 H         1 <0>         0.1375
     17 H4         -0.3314   -2.9135   -1.5737 H         1 <0>         0.1344
     18 H5         -0.9120   -1.8207    0.5149 H         1 <0>         0.1066
     19 H6         -1.9875   -0.4025    0.5327 H         1 <0>         0.1043
     20 H7         -0.8923    1.9965    0.0173 H         1 <0>         0.1730
     21 H8          1.6079    2.7966    0.0017 H         1 <0>         0.1696
     22 H9          1.6529   -1.4057   -0.0210 H         1 <0>         0.2027
@<TRIPOS>BOND
     1    1    6 ar
     2    1    2 ar
     3    1   14 1
     4    2    3 ar
     5    2   15 1
     6    3    4 ar
     7    3   13 1
     8    4    5 ar
     9    4   16 1
    10    5    6 ar
    11    5   17 1
    12    6    7 1
    13    7    8 1
    14    7   18 1
    15    7   19 1
    16    8   12 1
    17    8    9 1
    18    9   10 2
    19    9   20 1
    20   10   11 1
    21   10   21 1
    22   11   12 2
    23   12   22 1
@<TRIPOS>MOLECULE
ZINC04810192
   23    24     0     0     0
SMALL
USER_CHARGES
1-[(4-bromophenyl)methyl]imidazole
@<TRIPOS>ATOM
      1 C1         -2.4965   -0.3703   -2.0466 C.ar      1 <0>        -0.0846
      2 C2         -2.8727   -0.6385   -3.3493 C.ar      1 <0>        -0.0886
      3 C3         -2.3389   -1.7287   -4.0125 C.ar      1 <0>        -0.0683
      4 C4         -1.4249   -2.5470   -3.3735 C.ar      1 <0>        -0.0894
      5 C5         -1.0453   -2.2749   -2.0726 C.ar      1 <0>        -0.0897
      6 C6         -1.5790   -1.1852   -1.4101 C.ar      1 <0>        -0.1364
      7 C7         -1.1652   -0.8893    0.0084 C.3       1 <0>         0.1406
      8 N1          0.0021   -0.0041    0.0020 N.pl3     1 <0>        -0.4067
      9 C8         -0.0165    1.3646    0.0095 C.2       1 <0>         0.0247
     10 C9          1.2671    1.7717   -0.0005 C.2       1 <0>         0.0048
     11 C10         1.2973   -0.3859   -0.0124 C.cat     1 <0>         0.2877
     12 Br1        -2.8582   -2.1000   -5.7925 Br        1 <0>        -0.0216
     13 H1         -2.9163    0.4785   -1.5272 H         1 <0>         0.1379
     14 H2         -3.5861    0.0009   -3.8479 H         1 <0>         0.1442
     15 H3         -1.0076   -3.3981   -3.8911 H         1 <0>         0.1439
     16 H4         -0.3314   -2.9135   -1.5737 H         1 <0>         0.1370
     17 H5         -0.9120   -1.8207    0.5149 H         1 <0>         0.1314
     18 H6         -1.9875   -0.4025    0.5327 H         1 <0>         0.1338
     19 H7         -0.8923    1.9965    0.0173 H         1 <0>         0.2209
     20 H8          1.6079    2.7966    0.0017 H         1 <0>         0.2228
     21 H9          1.6529   -1.4057   -0.0210 H         1 <0>         0.2574
     22 N2          2.0468    0.6814   -0.0138 N.pl3     1 <0>        -0.4832
     23 H10         3.0735    0.6858   -0.0235 H         1 <0>         0.4814
@<TRIPOS>BOND
     1    1    6 ar
     2    1    2 ar
     3    1   13 1
     4    2    3 ar
     5    2   14 1
     6    3    4 ar
     7    3   12 1
     8    4    5 ar
     9    4   15 1
    10    5    6 ar
    11    5   16 1
    12    6    7 1
    13    7    8 1
    14    7   17 1
    15    7   18 1
    16    8   11 1
    17    8    9 1
    18    9   10 2
    19    9   19 1
    20   10   20 1
    21   10   22 1
    22   11   21 1
    23   11   22 2
    24   22   23 1
@<TRIPOS>MOLECULE
ZINC35143440
   25    26     0     0     0
SMALL
USER_CHARGES

@<TRIPOS>ATOM
      1 C1         -0.0184    1.5028    0.0103 C.3       1 <0>        -0.1197
      2 C2          0.0021   -0.0041    0.0020 C.ar      1 <0>        -0.0734
      3 C3          0.0057   -0.6887   -1.1989 C.ar      1 <0>        -0.1218
      4 C4          0.0245   -2.0709   -1.2065 C.ar      1 <0>        -0.0936
      5 C5          0.0400   -2.7685   -0.0132 C.ar      1 <0>        -0.1259
      6 C6          0.0373   -2.0839    1.1877 C.ar      1 <0>        -0.0944
      7 C7          0.0229   -0.7016    1.1953 C.ar      1 <0>        -0.1213
      8 C8          0.0595   -4.2753   -0.0215 C.3       1 <0>         0.1475
      9 N1          1.4468   -4.7457   -0.0317 N.pl3     1 <0>        -0.4551
     10 C9          2.2117   -4.9953   -1.1392 C.2       1 <0>        -0.0549
     11 C10         3.4153   -5.4066   -0.6968 C.2       1 <0>        -0.0299
     12 N2          3.3862   -5.4081    0.6442 N.2       1 <0>        -0.4953
     13 C11         2.2119   -5.0085    1.0496 C.2       1 <0>         0.1828
     14 H1          1.0042    1.8801    0.0026 H         1 <0>         0.0737
     15 H2         -0.5455    1.8639   -0.8728 H         1 <0>         0.0688
     16 H3         -0.5286    1.8543    0.9071 H         1 <0>         0.0689
     17 H4         -0.0064   -0.1436   -2.1312 H         1 <0>         0.1254
     18 H5          0.0266   -2.6057   -2.1448 H         1 <0>         0.1225
     19 H6          0.0491   -2.6289    2.1200 H         1 <0>         0.1239
     20 H7          0.0245   -0.1667    2.1335 H         1 <0>         0.1259
     21 H8         -0.4447   -4.6501    0.8693 H         1 <0>         0.1029
     22 H9         -0.4546   -4.6404   -0.9106 H         1 <0>         0.1005
     23 H10         1.9081   -4.8842   -2.1696 H         1 <0>         0.1718
     24 H11         4.2566   -5.6862   -1.3136 H         1 <0>         0.1689
     25 H12         1.9023   -4.9073    2.0793 H         1 <0>         0.2017
@<TRIPOS>BOND
     1    1    2 1
     2    1   14 1
     3    1   15 1
     4    1   16 1
     5    2    7 ar
     6    2    3 ar
     7    3    4 ar
     8    3   17 1
     9    4    5 ar
    10    4   18 1
    11    5    6 ar
    12    5    8 1
    13    6    7 ar
    14    6   19 1
    15    7   20 1
    16    8    9 1
    17    8   21 1
    18    8   22 1
    19    9   13 1
    20    9   10 1
    21   10   11 2
    22   10   23 1
    23   11   12 1
    24   11   24 1
    25   12   13 2
    26   13   25 1
@<TRIPOS>MOLECULE
ZINC35143440
   26    27     0     0     0
SMALL
USER_CHARGES

@<TRIPOS>ATOM
      1 C1         -0.0184    1.5028    0.0103 C.3       1 <0>        -0.1292
      2 C2          0.0021   -0.0041    0.0020 C.ar      1 <0>        -0.0505
      3 C3          0.0057   -0.6887   -1.1989 C.ar      1 <0>        -0.1197
      4 C4          0.0245   -2.0709   -1.2065 C.ar      1 <0>        -0.0860
      5 C5          0.0400   -2.7685   -0.0132 C.ar      1 <0>        -0.1585
      6 C6          0.0373   -2.0839    1.1877 C.ar      1 <0>        -0.0910
      7 C7          0.0229   -0.7016    1.1953 C.ar      1 <0>        -0.1204
      8 C8          0.0595   -4.2753   -0.0215 C.3       1 <0>         0.1416
      9 N1          1.4468   -4.7457   -0.0317 N.pl3     1 <0>        -0.4028
     10 C9          2.2118   -4.9949   -1.1392 C.2       1 <0>         0.0268
     11 C10         3.4154   -5.4063   -0.6968 C.2       1 <0>         0.0024
     12 N2          3.3861   -5.4083    0.6442 N.pl3     1 <0>        -0.4768
     13 C11         2.2117   -5.0090    1.0496 C.cat     1 <0>         0.2875
     14 H1          1.0042    1.8801    0.0026 H         1 <0>         0.0800
     15 H2         -0.5455    1.8639   -0.8728 H         1 <0>         0.0753
     16 H3         -0.5286    1.8543    0.9071 H         1 <0>         0.0751
     17 H4         -0.0064   -0.1436   -2.1312 H         1 <0>         0.1332
     18 H5          0.0266   -2.6057   -2.1448 H         1 <0>         0.1279
     19 H6          0.0491   -2.6289    2.1200 H         1 <0>         0.1270
     20 H7          0.0245   -0.1667    2.1335 H         1 <0>         0.1328
     21 H8         -0.4447   -4.6501    0.8693 H         1 <0>         0.1283
     22 H9         -0.4546   -4.6404   -0.9106 H         1 <0>         0.1309
     23 H10         1.9084   -4.8833   -2.1696 H         1 <0>         0.2210
     24 H11         4.2568   -5.6857   -1.3136 H         1 <0>         0.2232
     25 H12         1.9020   -4.9082    2.0793 H         1 <0>         0.2575
     26 H13         4.1228   -5.6629    1.2216 H         1 <0>         0.4646
@<TRIPOS>BOND
     1    1    2 1
     2    1   14 1
     3    1   15 1
     4    1   16 1
     5    2    7 ar
     6    2    3 ar
     7    3    4 ar
     8    3   17 1
     9    4    5 ar
    10    4   18 1
    11    5    6 ar
    12    5    8 1
    13    6    7 ar
    14    6   19 1
    15    7   20 1
    16    8    9 1
    17    8   21 1
    18    8   22 1
    19    9   13 1
    20    9   10 1
    21   10   11 2
    22   10   23 1
    23   11   12 1
    24   11   24 1
    25   12   13 2
    26   12   26 1
    27   13   25 1
@<TRIPOS>MOLECULE
ZINC03797541
   57    61     0     0     0
SMALL
USER_CHARGES
10,13-dimethyl-17-(3-pyridyl)-2,3,4,7,8,9,11,12,14,15-decahydro-1H-cyclopenta[a]phenanthren-3-ol
@<TRIPOS>ATOM
      1 C1         -3.0005    8.6246    4.0035 C.3       1 <0>        -0.1491
      2 C2         -1.5307    9.0386    4.0998 C.3       1 <0>        -0.0133
      3 C3         -1.0142    8.6413    5.4855 C.3       1 <0>        -0.1037
      4 C4         -1.7796    9.4217    6.5560 C.3       1 <0>        -0.1152
      5 C5         -1.5148   10.9190    6.3896 C.3       1 <0>         0.1085
      6 H1         -0.4414   11.1046    6.4279 H         1 <0>         0.0545
      7 C6         -2.0663   11.3880    5.0400 C.3       1 <0>        -0.1172
      8 C7         -1.4536   10.5285    3.9469 C.2       1 <0>        -0.1050
      9 C8         -0.8930   11.1255    2.9362 C.2       1 <0>        -0.1539
     10 C9         -0.2479   10.3827    1.8028 C.3       1 <0>        -0.0846
     11 C10        -0.8955    8.9996    1.6721 C.3       1 <0>        -0.0707
     12 H2         -1.9394    9.0972    1.3741 H         1 <0>         0.0873
     13 C11        -0.7684    8.2826    3.0242 C.3       1 <0>        -0.0658
     14 H3          0.2852    8.2630    3.3028 H         1 <0>         0.0655
     15 C12        -1.2595    6.8398    2.9616 C.3       1 <0>        -0.1222
     16 C13        -0.5949    6.0525    1.8194 C.3       1 <0>        -0.1001
     17 C14        -0.8818    6.8129    0.5418 C.3       1 <0>        -0.0258
     18 C15        -0.1314    8.1758    0.6527 C.3       1 <0>        -0.0812
     19 H4          0.9128    8.0583    0.9427 H         1 <0>         0.0839
     20 C16        -0.2588    8.6096   -0.8146 C.3       1 <0>        -0.0911
     21 C17        -0.0432    7.2868   -1.5501 C.2       1 <0>        -0.1428
     22 C18        -0.3843    6.2636   -0.7530 C.2       1 <0>        -0.0881
     23 C19        -0.2890    4.8303   -1.1016 C.ar      1 <0>        -0.0792
     24 C20         0.9568    4.2349   -1.3302 C.ar      1 <0>        -0.0655
     25 C21         0.9915    2.8899   -1.6531 C.ar      1 <0>        -0.1698
     26 C22        -0.1947    2.1833   -1.7389 C.ar      1 <0>         0.0948
     27 N1         -1.3550    2.7722   -1.5230 N.ar      1 <0>        -0.4826
     28 C23        -1.4393    4.0483   -1.2079 C.ar      1 <0>         0.1106
     29 C24        -2.3860    7.0715    0.4352 C.3       1 <0>        -0.1525
     30 O1         -2.1602   11.6369    7.4433 O.3       1 <0>        -0.5687
     31 H5         -3.3614    8.7990    2.9899 H         1 <0>         0.0560
     32 H6         -3.0965    7.5664    4.2464 H         1 <0>         0.0633
     33 H7         -3.5906    9.2136    4.7057 H         1 <0>         0.0570
     34 H8         -1.1652    7.5725    5.6371 H         1 <0>         0.0735
     35 H9          0.0487    8.8721    5.5573 H         1 <0>         0.0641
     36 H10        -2.8473    9.2284    6.4519 H         1 <0>         0.0738
     37 H11        -1.4484    9.1023    7.5441 H         1 <0>         0.0699
     38 H12        -1.8005   12.4326    4.8778 H         1 <0>         0.0690
     39 H13        -3.1507   11.2785    5.0285 H         1 <0>         0.0800
     40 H14        -0.8920   12.2052    2.9114 H         1 <0>         0.1035
     41 H15         0.8176   10.2685    2.0020 H         1 <0>         0.0729
     42 H16        -0.3873   10.9390    0.8758 H         1 <0>         0.0714
     43 H17        -1.0353    6.3480    3.9082 H         1 <0>         0.0621
     44 H18        -2.3390    6.8392    2.8110 H         1 <0>         0.0765
     45 H19         0.4804    5.9896    1.9866 H         1 <0>         0.0628
     46 H20        -1.0215    5.0512    1.7596 H         1 <0>         0.0622
     47 H21         0.5143    9.3320   -1.0764 H         1 <0>         0.0718
     48 H22        -1.2511    9.0120   -1.0183 H         1 <0>         0.0826
     49 H23         0.3282    7.1907   -2.5597 H         1 <0>         0.1266
     50 H24         1.8676    4.8106   -1.2568 H         1 <0>         0.1336
     51 H25         1.9348    2.3969   -1.8366 H         1 <0>         0.1365
     52 H26        -0.1706    1.1334   -1.9911 H         1 <0>         0.1558
     53 H27        -2.4076    4.4941   -1.0343 H         1 <0>         0.1537
     54 H28        -2.9104    6.1230    0.3194 H         1 <0>         0.0542
     55 H29        -2.7338    7.5709    1.3395 H         1 <0>         0.0747
     56 H30        -2.5854    7.7048   -0.4292 H         1 <0>         0.0576
     57 H31        -2.0345   12.5947    7.4012 H         1 <0>         0.3780
@<TRIPOS>BOND
     1    1    2 1
     2    1   31 1
     3    1   32 1
     4    1   33 1
     5    2    8 1
     6    2   13 1
     7    2    3 1
     8    3    4 1
     9    3   34 1
    10    3   35 1
    11    4    5 1
    12    4   36 1
    13    4   37 1
    14    5    6 1
    15    5    7 1
    16    5   30 1
    17    7    8 1
    18    7   38 1
    19    7   39 1
    20    8    9 2
    21    9   10 1
    22    9   40 1
    23   10   11 1
    24   10   41 1
    25   10   42 1
    26   11   12 1
    27   11   18 1
    28   11   13 1
    29   13   14 1
    30   13   15 1
    31   15   16 1
    32   15   43 1
    33   15   44 1
    34   16   17 1
    35   16   45 1
    36   16   46 1
    37   17   22 1
    38   17   18 1
    39   17   29 1
    40   18   19 1
    41   18   20 1
    42   20   21 1
    43   20   47 1
    44   20   48 1
    45   21   22 2
    46   21   49 1
    47   22   23 1
    48   23   28 ar
    49   23   24 ar
    50   24   25 ar
    51   24   50 1
    52   25   26 ar
    53   25   51 1
    54   26   27 ar
    55   26   52 1
    56   27   28 ar
    57   28   53 1
    58   29   54 1
    59   29   55 1
    60   29   56 1
    61   30   57 1
@<TRIPOS>MOLECULE
ZINC01036032
   32    34     0     0     0
SMALL
USER_CHARGES
2-benzylidenetetralin-1-one
@<TRIPOS>ATOM
      1 C1          2.3783    0.0114    0.2114 C.ar      1 <0>        -0.1099
      2 C2          2.1925    1.1441    0.9850 C.ar      1 <0>        -0.1227
      3 C3          1.0010    1.8353    0.9269 C.ar      1 <0>        -0.1035
      4 C4         -0.0219    1.3888    0.0834 C.ar      1 <0>        -0.0715
      5 C5          0.1737    0.2428   -0.6949 C.ar      1 <0>        -0.0988
      6 C6          1.3712   -0.4370   -0.6256 C.ar      1 <0>        -0.1211
      7 C7         -1.2985    2.1168    0.0197 C.2       1 <0>        -0.0342
      8 C8         -1.3144    3.4631    0.1291 C.2       1 <0>        -0.1882
      9 C9         -0.0446    4.2944    0.1334 C.3       1 <0>        -0.0876
     10 C10        -0.1254    5.3114   -1.0016 C.3       1 <0>        -0.0841
     11 C11        -1.4230    6.0703   -0.9891 C.ar      1 <0>        -0.0279
     12 C12        -1.4612    7.3225   -1.5822 C.ar      1 <0>        -0.1364
     13 C13        -2.6334    8.0528   -1.6038 C.ar      1 <0>        -0.0843
     14 C14        -3.7879    7.5444   -1.0344 C.ar      1 <0>        -0.1364
     15 C15        -3.7673    6.3015   -0.4365 C.ar      1 <0>        -0.0614
     16 C16        -2.5830    5.5637   -0.4086 C.ar      1 <0>        -0.1646
     17 C17        -2.5694    4.2336    0.2469 C.2       1 <0>         0.4358
     18 O1         -3.5363    3.8047    0.8493 O.2       1 <0>        -0.4444
     19 H1          3.3139   -0.5257    0.2615 H         1 <0>         0.1244
     20 H2          2.9832    1.4875    1.6357 H         1 <0>         0.1264
     21 H3          0.8576    2.7189    1.5311 H         1 <0>         0.1310
     22 H4         -0.6113   -0.1085   -1.3483 H         1 <0>         0.1265
     23 H5          1.5238   -1.3216   -1.2261 H         1 <0>         0.1260
     24 H6         -2.2230    1.5750   -0.1145 H         1 <0>         0.1325
     25 H7          0.0483    4.8158    1.0861 H         1 <0>         0.0804
     26 H8          0.8184    3.6451   -0.0141 H         1 <0>         0.0976
     27 H9          0.6990    6.0178   -0.9036 H         1 <0>         0.0873
     28 H10        -0.0317    4.7882   -1.9533 H         1 <0>         0.0865
     29 H11        -0.5675    7.7303   -2.0309 H         1 <0>         0.1294
     30 H12        -2.6493    9.0275   -2.0688 H         1 <0>         0.1284
     31 H13        -4.7022    8.1189   -1.0585 H         1 <0>         0.1306
     32 H14        -4.6657    5.9001    0.0087 H         1 <0>         0.1340
@<TRIPOS>BOND
     1    1    6 ar
     2    1    2 ar
     3    1   19 1
     4    2    3 ar
     5    2   20 1
     6    3    4 ar
     7    3   21 1
     8    4    5 ar
     9    4    7 1
    10    5    6 ar
    11    5   22 1
    12    6   23 1
    13    7    8 2
    14    7   24 1
    15    8   17 1
    16    8    9 1
    17    9   10 1
    18    9   25 1
    19    9   26 1
    20   10   11 1
    21   10   27 1
    22   10   28 1
    23   11   16 ar
    24   11   12 ar
    25   12   13 ar
    26   12   29 1
    27   13   14 ar
    28   13   30 1
    29   14   15 ar
    30   14   31 1
    31   15   16 ar
    32   15   32 1
    33   16   17 1
    34   17   18 2
@<TRIPOS>MOLECULE
ZINC00643143
   65    69     0     0     0
SMALL
USER_CHARGES

@<TRIPOS>ATOM
      1 C1          2.3952   -0.7566    1.2944 C.3       1 <0>        -0.1772
      2 C2          2.3911    0.0040   -0.0066 C.2       1 <0>         0.5136
      3 O1          2.3896    1.2168   -0.0000 O.2       1 <0>        -0.5396
      4 N1          2.3891   -0.6636   -1.1775 N.am      1 <0>        -0.6164
      5 C3          2.3847   -2.1330   -1.2007 C.3       1 <0>         0.0881
      6 C4          1.1892   -2.6064   -2.0367 C.3       1 <0>         0.1060
      7 N2          1.1909   -1.8779   -3.3131 N.pl3     1 <0>        -0.6289
      8 C5          1.1953   -0.4084   -3.2899 C.3       1 <0>         0.1083
      9 C6          2.3851    0.0650   -2.4538 C.3       1 <0>         0.0942
     10 C7          1.1889   -2.5710   -4.5288 C.ar      1 <0>         0.1983
     11 C8          1.0744   -1.8751   -5.7250 C.ar      1 <0>        -0.1597
     12 C9          1.0730   -2.5599   -6.9243 C.ar      1 <0>        -0.0922
     13 C10         1.1857   -3.9423   -6.9342 C.ar      1 <0>         0.0600
     14 C11         1.2996   -4.6382   -5.7398 C.ar      1 <0>        -0.1520
     15 C12         1.3070   -3.9545   -4.5398 C.ar      1 <0>        -0.1606
     16 O2          1.1842   -4.6158   -8.1157 O.3       1 <0>        -0.3149
     17 C13         1.3038   -6.0384   -8.0517 C.3       1 <0>         0.0681
     18 C14         1.2832   -6.6162   -9.4682 C.3       1 <0>         0.0487
     19 C15         1.4415   -8.1570   -9.4411 C.3       1 <0>         0.0198
     20 O3          2.0261   -8.4476  -10.7267 O.3       1 <0>        -0.3482
     21 C16         2.6425   -7.2417  -11.1969 C.3       1 <0>         0.2904
     22 O4          2.4594   -6.2128  -10.2098 O.3       1 <0>        -0.3310
     23 C17         1.9929   -6.8120  -12.5138 C.3       1 <0>         0.0743
     24 N3          0.5601   -6.5918  -12.3026 N.pl3     1 <0>        -0.4104
     25 C18        -0.4322   -7.5266  -12.4261 C.2       1 <0>         0.0348
     26 C19        -1.5921   -6.9032  -12.1438 C.2       1 <0>         0.0007
     27 N4         -1.3156   -5.6228  -11.8558 N.pl3     1 <0>        -0.4742
     28 C20        -0.0279   -5.4302  -11.9440 C.cat     1 <0>         0.2915
     29 C21         4.1148   -7.4775  -11.4154 C.ar      1 <0>        -0.1039
     30 C22         4.6677   -7.2821  -12.6673 C.ar      1 <0>        -0.0821
     31 C23         6.0178   -7.4982  -12.8684 C.ar      1 <0>        -0.1009
     32 C24         6.8171   -7.9098  -11.8165 C.ar      1 <0>        -0.0037
     33 C25         6.2647   -8.1050  -10.5637 C.ar      1 <0>        -0.1014
     34 C26         4.9139   -7.8839  -10.3618 C.ar      1 <0>         0.0199
     35 Cl1         4.2207   -8.1227   -8.7882 Cl        1 <0>        -0.0418
     36 Cl2         8.5129   -8.1817  -12.0695 Cl        1 <0>        -0.0326
     37 H1          1.3685   -0.9413    1.6105 H         1 <0>         0.0962
     38 H2          2.9099   -1.7076    1.1576 H         1 <0>         0.0829
     39 H3          2.9101   -0.1710    2.0560 H         1 <0>         0.0970
     40 H4          3.3104   -2.4946   -1.6485 H         1 <0>         0.0755
     41 H5          2.2940   -2.5147   -0.1837 H         1 <0>         0.1022
     42 H6          1.2760   -3.6763   -2.2261 H         1 <0>         0.0954
     43 H7          0.2632   -2.4013   -1.4997 H         1 <0>         0.0708
     44 H8          1.2861   -0.0267   -4.3068 H         1 <0>         0.0956
     45 H9          0.2697   -0.0468   -2.8421 H         1 <0>         0.0696
     46 H10         2.2946    1.1346   -2.2643 H         1 <0>         0.1049
     47 H11         3.3108   -0.1365   -2.9929 H         1 <0>         0.0718
     48 H12         0.9862   -0.7987   -5.7174 H         1 <0>         0.1332
     49 H13         0.9836   -2.0189   -7.8548 H         1 <0>         0.1291
     50 H14         1.3871   -5.7146   -5.7484 H         1 <0>         0.1230
     51 H15         1.4005   -4.4961   -3.6102 H         1 <0>         0.1286
     52 H16         2.2428   -6.3025   -7.5652 H         1 <0>         0.0783
     53 H17         0.4708   -6.4477   -7.4801 H         1 <0>         0.0836
     54 H18         0.3727   -6.3261   -9.9926 H         1 <0>         0.0786
     55 H19         2.1103   -8.4614   -8.6360 H         1 <0>         0.0988
     56 H20         0.4706   -8.6422   -9.3408 H         1 <0>         0.1150
     57 H21         2.4549   -5.8884  -12.8625 H         1 <0>         0.1457
     58 H22         2.1343   -7.5934  -13.2606 H         1 <0>         0.1475
     59 H23        -0.3087   -8.5645  -12.6980 H         1 <0>         0.2255
     60 H24        -2.5730   -7.3551  -12.1485 H         1 <0>         0.2264
     61 H25         0.4828   -4.4959  -11.7627 H         1 <0>         0.2614
     62 H26         4.0442   -6.9609  -13.4886 H         1 <0>         0.1450
     63 H27         6.4490   -7.3461  -13.8469 H         1 <0>         0.1524
     64 H28         6.8882   -8.4262   -9.7424 H         1 <0>         0.1545
     65 H29        -1.9692   -4.9473  -11.6161 H         1 <0>         0.4668
@<TRIPOS>BOND
     1    1    2 1
     2    1   37 1
     3    1   38 1
     4    1   39 1
     5    2    3 2
     6    2    4 am
     7    4    9 1
     8    4    5 1
     9    5    6 1
    10    5   40 1
    11    5   41 1
    12    6    7 1
    13    6   42 1
    14    6   43 1
    15    7    8 1
    16    7   10 1
    17    8    9 1
    18    8   44 1
    19    8   45 1
    20    9   46 1
    21    9   47 1
    22   10   15 ar
    23   10   11 ar
    24   11   12 ar
    25   11   48 1
    26   12   13 ar
    27   12   49 1
    28   13   14 ar
    29   13   16 1
    30   14   15 ar
    31   14   50 1
    32   15   51 1
    33   16   17 1
    34   17   18 1
    35   17   52 1
    36   17   53 1
    37   18   22 1
    38   18   19 1
    39   18   54 1
    40   19   20 1
    41   19   55 1
    42   19   56 1
    43   20   21 1
    44   21   22 1
    45   21   23 1
    46   21   29 1
    47   23   24 1
    48   23   57 1
    49   23   58 1
    50   24   28 1
    51   24   25 1
    52   25   26 2
    53   25   59 1
    54   26   27 1
    55   26   60 1
    56   27   28 2
    57   27   65 1
    58   28   61 1
    59   29   34 ar
    60   29   30 ar
    61   30   31 ar
    62   30   62 1
    63   31   32 ar
    64   31   63 1
    65   32   33 ar
    66   32   36 1
    67   33   34 ar
    68   33   64 1
    69   34   35 1
@<TRIPOS>MOLECULE
ZINC01019761
   23    24     0     0     0
SMALL
USER_CHARGES
4-(imidazol-1-ylmethyl)benzonitrile
@<TRIPOS>ATOM
      1 C1          1.1682    2.0938    0.0021 C.ar      1 <0>        -0.0982
      2 C2          2.3774    1.4300   -0.0129 C.ar      1 <0>        -0.0700
      3 C3          2.4037    0.0339   -0.0202 C.ar      1 <0>        -0.0150
      4 C4          1.2041   -0.6807   -0.0126 C.ar      1 <0>        -0.0695
      5 C5          0.0021   -0.0041    0.0020 C.ar      1 <0>        -0.0989
      6 C6         -0.0167    1.3794    0.0096 C.ar      1 <0>        -0.0900
      7 C7         -1.3338    2.1116    0.0198 C.3       1 <0>         0.1429
      8 N1         -1.7541    2.3413    1.4043 N.pl3     1 <0>        -0.4579
      9 C8         -1.4518    3.4317    2.1746 C.2       1 <0>        -0.0549
     10 C9         -2.0351    3.2362    3.3726 C.2       1 <0>        -0.0279
     11 N2         -2.6761    2.0586    3.3348 N.2       1 <0>        -0.4940
     12 C10        -2.5170    1.5197    2.1570 C.2       1 <0>         0.1840
     13 C11         3.6553   -0.6618   -0.0359 C.1       1 <0>         0.2464
     14 N3          4.6481   -1.2137   -0.0483 N.1       1 <0>        -0.4043
     15 H1          1.1464    3.1735    0.0078 H         1 <0>         0.1353
     16 H2          3.3016    1.9888   -0.0187 H         1 <0>         0.1375
     17 H3          1.2174   -1.7606   -0.0178 H         1 <0>         0.1379
     18 H4         -0.9265   -0.5555    0.0079 H         1 <0>         0.1367
     19 H5         -1.2214    3.0688   -0.4894 H         1 <0>         0.1056
     20 H6         -2.0862    1.5130   -0.4937 H         1 <0>         0.1080
     21 H7         -0.8598    4.2850    1.8784 H         1 <0>         0.1736
     22 H8         -1.9940    3.9096    4.2159 H         1 <0>         0.1693
     23 H9         -2.9256    0.5722    1.8379 H         1 <0>         0.2033
@<TRIPOS>BOND
     1    1    6 ar
     2    1    2 ar
     3    1   15 1
     4    2    3 ar
     5    2   16 1
     6    3    4 ar
     7    3   13 1
     8    4    5 ar
     9    4   17 1
    10    5    6 ar
    11    5   18 1
    12    6    7 1
    13    7    8 1
    14    7   19 1
    15    7   20 1
    16    8   12 1
    17    8    9 1
    18    9   10 2
    19    9   21 1
    20   10   11 1
    21   10   22 1
    22   11   12 2
    23   12   23 1
    24   13   14 3
@<TRIPOS>MOLECULE
ZINC01019761
   24    25     0     0     0
SMALL
USER_CHARGES
4-(imidazol-1-ylmethyl)benzonitrile
@<TRIPOS>ATOM
      1 C1          1.1682    2.0938    0.0021 C.ar      1 <0>        -0.0899
      2 C2          2.3774    1.4300   -0.0129 C.ar      1 <0>        -0.0694
      3 C3          2.4037    0.0339   -0.0202 C.ar      1 <0>         0.0124
      4 C4          1.2041   -0.6807   -0.0126 C.ar      1 <0>        -0.0702
      5 C5          0.0021   -0.0041    0.0020 C.ar      1 <0>        -0.0949
      6 C6         -0.0167    1.3794    0.0096 C.ar      1 <0>        -0.1240
      7 C7         -1.3338    2.1116    0.0198 C.3       1 <0>         0.1382
      8 N1         -1.7541    2.3413    1.4043 N.pl3     1 <0>        -0.4075
      9 C8         -1.4518    3.4317    2.1746 C.2       1 <0>         0.0252
     10 C9         -2.0351    3.2362    3.3726 C.2       1 <0>         0.0046
     11 C10        -2.5170    1.5197    2.1570 C.cat     1 <0>         0.2882
     12 C11         3.6553   -0.6618   -0.0359 C.1       1 <0>         0.2292
     13 N2          4.6481   -1.2137   -0.0483 N.1       1 <0>        -0.3780
     14 H1          1.1464    3.1735    0.0078 H         1 <0>         0.1402
     15 H2          3.3016    1.9888   -0.0187 H         1 <0>         0.1447
     16 H3          1.2174   -1.7606   -0.0178 H         1 <0>         0.1444
     17 H4         -0.9265   -0.5555    0.0079 H         1 <0>         0.1392
     18 H5         -1.2214    3.0688   -0.4894 H         1 <0>         0.1350
     19 H6         -2.0862    1.5130   -0.4937 H         1 <0>         0.1326
     20 H7         -0.8598    4.2850    1.8784 H         1 <0>         0.2214
     21 H8         -1.9940    3.9096    4.2159 H         1 <0>         0.2224
     22 H9         -2.9256    0.5722    1.8379 H         1 <0>         0.2579
     23 N3         -2.6754    2.0592    3.3338 N.pl3     1 <0>        -0.4834
     24 H10        -3.2073    1.6468    4.1092 H         1 <0>         0.4815
@<TRIPOS>BOND
     1    1    6 ar
     2    1    2 ar
     3    1   14 1
     4    2    3 ar
     5    2   15 1
     6    3    4 ar
     7    3   12 1
     8    4    5 ar
     9    4   16 1
    10    5    6 ar
    11    5   17 1
    12    6    7 1
    13    7    8 1
    14    7   18 1
    15    7   19 1
    16    8   11 1
    17    8    9 1
    18    9   10 2
    19    9   20 1
    20   10   21 1
    21   10   23 1
    22   11   22 1
    23   11   23 2
    24   12   13 3
    25   23   24 1
@<TRIPOS>MOLECULE
ZINC36322898
   22    23     0     0     0
SMALL
USER_CHARGES

@<TRIPOS>ATOM
      1 C1         -0.0167    1.3779    0.0096 C.ar      1 <0>        -0.0782
      2 C2          1.1703    2.0869    0.0021 C.ar      1 <0>        -0.1245
      3 C3          2.3786    1.4129   -0.0131 C.ar      1 <0>         0.0797
      4 C4          2.3974    0.0262   -0.0207 C.ar      1 <0>         0.0700
      5 C5          1.2078   -0.6805   -0.0132 C.ar      1 <0>        -0.1058
      6 C6          0.0021   -0.0041    0.0020 C.ar      1 <0>        -0.1013
      7 C7         -1.2931   -0.7745    0.0103 C.3       1 <0>         0.1486
      8 N1         -1.7260   -1.0167   -1.3682 N.pl3     1 <0>        -0.4592
      9 C8         -2.5247   -0.2014   -2.1238 C.2       1 <0>        -0.0553
     10 C9         -2.6702   -0.7997   -3.3215 C.2       1 <0>        -0.0271
     11 N2         -1.9791   -1.9490   -3.2978 N.2       1 <0>        -0.4930
     12 C10        -1.4068   -2.0831   -2.1327 C.2       1 <0>         0.1840
     13 F1          3.5760   -0.6341   -0.0360 F         1 <0>        -0.1235
     14 F2          3.5389    2.1050   -0.0209 F         1 <0>        -0.1234
     15 H1         -0.9594    1.9045    0.0260 H         1 <0>         0.1428
     16 H2          1.1543    3.1668    0.0077 H         1 <0>         0.1516
     17 H3          1.2211   -1.7604   -0.0195 H         1 <0>         0.1489
     18 H4         -1.1455   -1.7278    0.5176 H         1 <0>         0.1092
     19 H5         -2.0554   -0.1981    0.5345 H         1 <0>         0.1088
     20 H6         -2.9557    0.7405   -1.8182 H         1 <0>         0.1743
     21 H7         -3.2428   -0.4206   -4.1550 H         1 <0>         0.1700
     22 H8         -0.7834   -2.9112   -1.8292 H         1 <0>         0.2033
@<TRIPOS>BOND
     1    1    6 ar
     2    1    2 ar
     3    1   15 1
     4    2    3 ar
     5    2   16 1
     6    3    4 ar
     7    3   14 1
     8    4    5 ar
     9    4   13 1
    10    5    6 ar
    11    5   17 1
    12    6    7 1
    13    7    8 1
    14    7   18 1
    15    7   19 1
    16    8   12 1
    17    8    9 1
    18    9   10 2
    19    9   20 1
    20   10   11 1
    21   10   21 1
    22   11   12 2
    23   12   22 1
@<TRIPOS>MOLECULE
ZINC36322898
   23    24     0     0     0
SMALL
USER_CHARGES

@<TRIPOS>ATOM
      1 C1         -0.0167    1.3779    0.0096 C.ar      1 <0>        -0.0706
      2 C2          1.1703    2.0869    0.0021 C.ar      1 <0>        -0.1224
      3 C3          2.3786    1.4129   -0.0131 C.ar      1 <0>         0.1002
      4 C4          2.3974    0.0262   -0.0207 C.ar      1 <0>         0.0732
      5 C5          1.2078   -0.6805   -0.0132 C.ar      1 <0>        -0.1044
      6 C6          0.0021   -0.0041    0.0020 C.ar      1 <0>        -0.1335
      7 C7         -1.2931   -0.7745    0.0103 C.3       1 <0>         0.1438
      8 N1         -1.7260   -1.0167   -1.3682 N.pl3     1 <0>        -0.4078
      9 C8         -2.5243   -0.2011   -2.1240 C.2       1 <0>         0.0270
     10 C9         -2.6699   -0.7996   -3.3216 C.2       1 <0>         0.0046
     11 N2         -1.9793   -1.9492   -3.2977 N.pl3     1 <0>        -0.4753
     12 C10        -1.4072   -2.0834   -2.1325 C.cat     1 <0>         0.2895
     13 F1          3.5760   -0.6341   -0.0360 F         1 <0>        -0.1160
     14 F2          3.5389    2.1050   -0.0209 F         1 <0>        -0.1129
     15 H1         -0.9594    1.9045    0.0260 H         1 <0>         0.1480
     16 H2          1.1543    3.1668    0.0077 H         1 <0>         0.1590
     17 H3          1.2211   -1.7604   -0.0195 H         1 <0>         0.1519
     18 H4         -1.1455   -1.7278    0.5176 H         1 <0>         0.1344
     19 H5         -2.0554   -0.1981    0.5345 H         1 <0>         0.1390
     20 H6         -2.9550    0.7410   -1.8185 H         1 <0>         0.2233
     21 H7         -3.2424   -0.4203   -4.1552 H         1 <0>         0.2242
     22 H8         -0.7841   -2.9116   -1.8289 H         1 <0>         0.2590
     23 H9         -1.9126   -2.5795   -4.0320 H         1 <0>         0.4658
@<TRIPOS>BOND
     1    1    6 ar
     2    1    2 ar
     3    1   15 1
     4    2    3 ar
     5    2   16 1
     6    3    4 ar
     7    3   14 1
     8    4    5 ar
     9    4   13 1
    10    5    6 ar
    11    5   17 1
    12    6    7 1
    13    7    8 1
    14    7   18 1
    15    7   19 1
    16    8   12 1
    17    8    9 1
    18    9   10 2
    19    9   20 1
    20   10   11 1
    21   10   21 1
    22   11   12 2
    23   11   23 1
    24   12   22 1
@<TRIPOS>MOLECULE
ZINC04385934
   22    23     0     0     0
SMALL
USER_CHARGES
1-[(3,4-dichlorophenyl)methyl]imidazole
@<TRIPOS>ATOM
      1 C1         -1.2191    1.7507    0.0173 C.ar      1 <0>        -0.0821
      2 C2         -0.0126    1.0758    0.0080 C.ar      1 <0>        -0.0974
      3 C3          1.1756    1.7836    0.0004 C.ar      1 <0>        -0.0226
      4 C4          1.1559    3.1683    0.0076 C.ar      1 <0>        -0.0324
      5 C5         -0.0519    3.8418    0.0222 C.ar      1 <0>        -0.0780
      6 C6         -1.2387    3.1327    0.0297 C.ar      1 <0>        -0.1028
      7 C7         -2.5546    3.8671    0.0462 C.3       1 <0>         0.1479
      8 N1         -2.9942    4.1124   -1.3296 N.pl3     1 <0>        -0.4588
      9 C8         -2.7055    5.2131   -2.0904 C.2       1 <0>        -0.0551
     10 C9         -3.3014    5.0288   -3.2840 C.2       1 <0>        -0.0266
     11 N2         -3.9443    3.8522   -3.2495 N.2       1 <0>        -0.4928
     12 C10        -3.7647    3.2977   -2.0820 C.2       1 <0>         0.1839
     13 Cl1         2.6465    4.0581   -0.0025 Cl        1 <0>        -0.0401
     14 Cl2         2.6909    0.9366   -0.0186 Cl        1 <0>        -0.0399
     15 H1         -2.1468    1.1977    0.0191 H         1 <0>         0.1419
     16 H2          0.0021   -0.0041    0.0020 H         1 <0>         0.1481
     17 H3         -0.0680    4.9217    0.0274 H         1 <0>         0.1436
     18 H4         -3.3006    3.2642    0.5640 H         1 <0>         0.1102
     19 H5         -2.4333    4.8185    0.5640 H         1 <0>         0.1064
     20 H6         -2.1119    6.0645   -1.7918 H         1 <0>         0.1735
     21 H7         -3.2704    5.7109   -4.1208 H         1 <0>         0.1699
     22 H8         -4.1654    2.3447   -1.7694 H         1 <0>         0.2034
@<TRIPOS>BOND
     1    1    6 ar
     2    1    2 ar
     3    1   15 1
     4    2    3 ar
     5    2   16 1
     6    3    4 ar
     7    3   14 1
     8    4    5 ar
     9    4   13 1
    10    5    6 ar
    11    5   17 1
    12    6    7 1
    13    7    8 1
    14    7   18 1
    15    7   19 1
    16    8   12 1
    17    8    9 1
    18    9   10 2
    19    9   20 1
    20   10   11 1
    21   10   21 1
    22   11   12 2
    23   12   22 1
@<TRIPOS>MOLECULE
ZINC04385934
   23    24     0     0     0
SMALL
USER_CHARGES
1-[(3,4-dichlorophenyl)methyl]imidazole
@<TRIPOS>ATOM
      1 C1         -1.2191    1.7507    0.0173 C.ar      1 <0>        -0.0801
      2 C2         -0.0126    1.0758    0.0080 C.ar      1 <0>        -0.0956
      3 C3          1.1756    1.7836    0.0004 C.ar      1 <0>        -0.0108
      4 C4          1.1559    3.1683    0.0076 C.ar      1 <0>        -0.0346
      5 C5         -0.0519    3.8418    0.0222 C.ar      1 <0>        -0.0725
      6 C6         -1.2387    3.1327    0.0297 C.ar      1 <0>        -0.1345
      7 C7         -2.5546    3.8671    0.0462 C.3       1 <0>         0.1431
      8 N1         -2.9942    4.1124   -1.3296 N.pl3     1 <0>        -0.4086
      9 C8         -2.7055    5.2131   -2.0904 C.2       1 <0>         0.0247
     10 C9         -3.3014    5.0288   -3.2840 C.2       1 <0>         0.0059
     11 C10        -3.7647    3.2977   -2.0820 C.cat     1 <0>         0.2883
     12 Cl1         2.6465    4.0581   -0.0025 Cl        1 <0>        -0.0234
     13 Cl2         2.6909    0.9366   -0.0186 Cl        1 <0>        -0.0208
     14 H1         -2.1468    1.1977    0.0191 H         1 <0>         0.1443
     15 H2          0.0021   -0.0041    0.0020 H         1 <0>         0.1541
     16 H3         -0.0680    4.9217    0.0274 H         1 <0>         0.1481
     17 H4         -3.3006    3.2642    0.5640 H         1 <0>         0.1350
     18 H5         -2.4333    4.8185    0.5640 H         1 <0>         0.1358
     19 H6         -2.1119    6.0645   -1.7918 H         1 <0>         0.2213
     20 H7         -3.2704    5.7109   -4.1208 H         1 <0>         0.2232
     21 H8         -4.1654    2.3447   -1.7694 H         1 <0>         0.2581
     22 N2         -3.9436    3.8527   -3.2485 N.pl3     1 <0>        -0.4826
     23 H9         -4.4907    3.4516   -4.0192 H         1 <0>         0.4818
@<TRIPOS>BOND
     1    1    6 ar
     2    1    2 ar
     3    1   14 1
     4    2    3 ar
     5    2   15 1
     6    3    4 ar
     7    3   13 1
     8    4    5 ar
     9    4   12 1
    10    5    6 ar
    11    5   16 1
    12    6    7 1
    13    7    8 1
    14    7   17 1
    15    7   18 1
    16    8   11 1
    17    8    9 1
    18    9   10 2
    19    9   19 1
    20   10   20 1
    21   10   22 1
    22   11   21 1
    23   11   22 2
    24   22   23 1
@<TRIPOS>MOLECULE
ZINC34061016
   29    30     0     0     0
SMALL
USER_CHARGES
1-(3-phenylpropyl)imidazole
@<TRIPOS>ATOM
      1 C1         -1.9880    2.4498    6.0211 C.ar      1 <0>        -0.1152
      2 C2         -2.3423    1.2401    5.4536 C.ar      1 <0>        -0.1157
      3 C3         -1.6956    0.7945    4.3161 C.ar      1 <0>        -0.1160
      4 C4         -0.6942    1.5584    3.7462 C.ar      1 <0>        -0.0972
      5 C5         -0.3360    2.7654    4.3169 C.ar      1 <0>        -0.1165
      6 C6         -0.9864    3.2135    5.4515 C.ar      1 <0>        -0.1162
      7 C7          0.0111    1.0724    2.5063 C.3       1 <0>        -0.0769
      8 C8         -0.7288    1.5792    1.2668 C.3       1 <0>        -0.1353
      9 C9         -0.0127    1.0858    0.0080 C.3       1 <0>         0.0875
     10 N1         -0.7213    1.5711   -1.1789 N.pl3     1 <0>        -0.4096
     11 C10        -1.7343    0.9295   -1.8390 C.2       1 <0>         0.0199
     12 C11        -2.0963    1.7245   -2.8640 C.2       1 <0>        -0.0049
     13 N2         -1.3191    2.8173   -2.8361 N.pl3     1 <0>        -0.4954
     14 C12        -0.4931    2.7323   -1.8294 C.cat     1 <0>         0.2935
     15 H1         -2.4936    2.7981    6.9096 H         1 <0>         0.1260
     16 H2         -3.1246    0.6433    5.8988 H         1 <0>         0.1257
     17 H3         -1.9724   -0.1506    3.8727 H         1 <0>         0.1213
     18 H4          0.4493    3.3601    3.8743 H         1 <0>         0.1210
     19 H5         -0.7093    4.1584    5.8951 H         1 <0>         0.1255
     20 H6          1.0431    1.4531    2.4985 H         1 <0>         0.0826
     21 H7          0.0260   -0.0275    2.5002 H         1 <0>         0.0828
     22 H8         -1.7608    1.1985    1.2746 H         1 <0>         0.0823
     23 H9         -0.7437    2.6791    1.2728 H         1 <0>         0.0803
     24 H10         1.0193    1.4666    0.0002 H         1 <0>         0.1233
     25 H11         0.0023   -0.0141    0.0019 H         1 <0>         0.1259
     26 H12        -2.1625   -0.0289   -1.5852 H         1 <0>         0.2187
     27 H13        -2.8727    1.5161   -3.5852 H         1 <0>         0.2212
     28 H14         0.2496    3.4690   -1.5607 H         1 <0>         0.2559
     29 H15        -1.4463    3.6022   -3.5962 H         1 <0>         0.5055
@<TRIPOS>BOND
     1    1    6 ar
     2    1    2 ar
     3    1   15 1
     4    2    3 ar
     5    2   16 1
     6    3    4 ar
     7    3   17 1
     8    4    5 ar
     9    4    7 1
    10    5    6 ar
    11    5   18 1
    12    6   19 1
    13    7    8 1
    14    7   20 1
    15    7   21 1
    16    8    9 1
    17    8   22 1
    18    8   23 1
    19    9   10 1
    20    9   24 1
    21    9   25 1
    22   10   14 1
    23   10   11 1
    24   11   12 2
    25   11   26 1
    26   12   13 1
    27   12   27 1
    28   13   14 2
    29   13   29 1
    30   14   28 1
@<TRIPOS>MOLECULE
ZINC34061016
   28    29     0     0     0
SMALL
USER_CHARGES
1-(3-phenylpropyl)imidazole
@<TRIPOS>ATOM
      1 C1         -1.9880    2.4498    6.0211 C.ar      1 <0>        -0.1227
      2 C2         -2.3423    1.2401    5.4536 C.ar      1 <0>        -0.1178
      3 C3         -1.6956    0.7945    4.3161 C.ar      1 <0>        -0.1173
      4 C4         -0.6942    1.5584    3.7462 C.ar      1 <0>        -0.0853
      5 C5         -0.3360    2.7654    4.3169 C.ar      1 <0>        -0.1170
      6 C6         -0.9864    3.2135    5.4515 C.ar      1 <0>        -0.1176
      7 C7          0.0111    1.0724    2.5063 C.3       1 <0>        -0.0788
      8 C8         -0.7288    1.5792    1.2668 C.3       1 <0>        -0.1297
      9 C9         -0.0127    1.0858    0.0080 C.3       1 <0>         0.1012
     10 N1         -0.7213    1.5711   -1.1789 N.pl3     1 <0>        -0.4594
     11 C10        -1.7343    0.9295   -1.8390 C.2       1 <0>        -0.0575
     12 C11        -2.0963    1.7245   -2.8640 C.2       1 <0>        -0.0300
     13 N2         -1.3191    2.8173   -2.8361 N.2       1 <0>        -0.4961
     14 C12        -0.4931    2.7323   -1.8294 C.2       1 <0>         0.1803
     15 H1         -2.4936    2.7981    6.9096 H         1 <0>         0.1222
     16 H2         -3.1246    0.6433    5.8988 H         1 <0>         0.1225
     17 H3         -1.9724   -0.1506    3.8727 H         1 <0>         0.1208
     18 H4          0.4493    3.3601    3.8743 H         1 <0>         0.1214
     19 H5         -0.7093    4.1584    5.8951 H         1 <0>         0.1227
     20 H6          1.0431    1.4531    2.4985 H         1 <0>         0.0779
     21 H7          0.0260   -0.0275    2.5002 H         1 <0>         0.0773
     22 H8         -1.7608    1.1985    1.2746 H         1 <0>         0.0732
     23 H9         -0.7437    2.6791    1.2728 H         1 <0>         0.0739
     24 H10         1.0193    1.4666    0.0002 H         1 <0>         0.0966
     25 H11         0.0023   -0.0141    0.0019 H         1 <0>         0.0942
     26 H12        -2.1625   -0.0289   -1.5852 H         1 <0>         0.1729
     27 H13        -2.8727    1.5161   -3.5852 H         1 <0>         0.1692
     28 H14         0.2496    3.4690   -1.5607 H         1 <0>         0.2030
@<TRIPOS>BOND
     1    1    6 ar
     2    1    2 ar
     3    1   15 1
     4    2    3 ar
     5    2   16 1
     6    3    4 ar
     7    3   17 1
     8    4    5 ar
     9    4    7 1
    10    5    6 ar
    11    5   18 1
    12    6   19 1
    13    7    8 1
    14    7   20 1
    15    7   21 1
    16    8    9 1
    17    8   22 1
    18    8   23 1
    19    9   10 1
    20    9   24 1
    21    9   25 1
    22   10   14 1
    23   10   11 1
    24   11   12 2
    25   11   26 1
    26   12   13 1
    27   12   27 1
    28   13   14 2
    29   14   28 1
@<TRIPOS>MOLECULE
ZINC04695498
   31    33     0     0     0
SMALL
USER_CHARGES
(2E)-2-(2-pyridylmethylene)tetralin-1-one
@<TRIPOS>ATOM
      1 C1          5.7043    2.3089    2.3498 C.ar      1 <0>        -0.0836
      2 C2          5.7539    1.0053    1.8875 C.ar      1 <0>        -0.1387
      3 C3          4.6885    0.4877    1.1807 C.ar      1 <0>        -0.0608
      4 C4          3.5668    1.2812    0.9352 C.ar      1 <0>        -0.1652
      5 C5          3.5109    2.5894    1.4095 C.ar      1 <0>        -0.0259
      6 C6          4.5927    3.0943    2.1138 C.ar      1 <0>        -0.1384
      7 C7          2.3199    3.4803    1.1913 C.3       1 <0>        -0.0790
      8 C8          1.5152    3.0714   -0.0392 C.3       1 <0>        -0.1455
      9 C9          1.2378    1.5812    0.0373 C.2       1 <0>        -0.1293
     10 C10        -0.0126    1.0758    0.0080 C.2       1 <0>        -0.0676
     11 C11        -1.1738    1.9819    0.0240 C.ar      1 <0>         0.1538
     12 C12        -2.4641    1.4541    0.1178 C.ar      1 <0>        -0.1522
     13 C13        -3.5445    2.3193    0.1316 C.ar      1 <0>        -0.0690
     14 C14        -3.3023    3.6831    0.0514 C.ar      1 <0>        -0.1702
     15 C15        -1.9970    4.1382   -0.0397 C.ar      1 <0>         0.1017
     16 N1         -0.9861    3.2964   -0.0455 N.ar      1 <0>        -0.4665
     17 C16         2.4380    0.7232    0.1525 C.2       1 <0>         0.4293
     18 O1          2.4981   -0.3757   -0.3668 O.2       1 <0>        -0.4453
     19 H1          6.5409    2.7152    2.8988 H         1 <0>         0.1279
     20 H2          6.6243    0.3953    2.0792 H         1 <0>         0.1302
     21 H3          4.7221   -0.5291    0.8183 H         1 <0>         0.1336
     22 H4          4.5665    4.1097    2.4808 H         1 <0>         0.1291
     23 H5          2.6639    4.5067    1.0645 H         1 <0>         0.0834
     24 H6          1.6750    3.4305    2.0687 H         1 <0>         0.0816
     25 H7          2.0875    3.2913   -0.9404 H         1 <0>         0.0718
     26 H8          0.5726    3.6184   -0.0618 H         1 <0>         0.1741
     27 H9         -0.1622    0.0070   -0.0317 H         1 <0>         0.1405
     28 H10        -2.6163    0.3866    0.1783 H         1 <0>         0.1404
     29 H11        -4.5536    1.9413    0.2036 H         1 <0>         0.1392
     30 H12        -4.1241    4.3837    0.0594 H         1 <0>         0.1384
     31 H13        -1.8064    5.1994   -0.1022 H         1 <0>         0.1623
@<TRIPOS>BOND
     1    1    6 ar
     2    1    2 ar
     3    1   19 1
     4    2    3 ar
     5    2   20 1
     6    3    4 ar
     7    3   21 1
     8    4   17 1
     9    4    5 ar
    10    5    6 ar
    11    5    7 1
    12    6   22 1
    13    7    8 1
    14    7   23 1
    15    7   24 1
    16    8    9 1
    17    8   25 1
    18    8   26 1
    19    9   10 2
    20    9   17 1
    21   10   11 1
    22   10   27 1
    23   11   16 ar
    24   11   12 ar
    25   12   13 ar
    26   12   28 1
    27   13   14 ar
    28   13   29 1
    29   14   15 ar
    30   14   30 1
    31   15   16 ar
    32   15   31 1
    33   17   18 2
@<TRIPOS>MOLECULE
ZINC34849755
   22    23     0     0     0
SMALL
USER_CHARGES

@<TRIPOS>ATOM
      1 C1         -0.0167    1.3782    0.0096 C.ar      1 <0>        -0.0937
      2 C2          1.1708    2.0857    0.0021 C.ar      1 <0>        -0.0850
      3 C3          2.3776    1.4106   -0.0131 C.ar      1 <0>        -0.0905
      4 C4          2.3961    0.0278   -0.0207 C.ar      1 <0>        -0.0847
      5 C5          1.2083   -0.6792   -0.0132 C.ar      1 <0>        -0.0944
      6 C6          0.0021   -0.0041    0.0020 C.ar      1 <0>        -0.1004
      7 C7         -1.2927   -0.7751    0.0108 C.3       1 <0>         0.1452
      8 N1         -1.7260   -1.0176   -1.3675 N.pl3     1 <0>        -0.4570
      9 C8         -2.5254   -0.2027   -2.1229 C.2       1 <0>        -0.0551
     10 C9         -2.6710   -0.8011   -3.3205 C.2       1 <0>        -0.0279
     11 N2         -1.9794   -1.9500   -3.2970 N.2       1 <0>        -0.4936
     12 C10        -1.4066   -2.0839   -2.1321 C.2       1 <0>         0.1836
     13 I1          4.1776    2.4824   -0.0252 I         1 <0>        -0.0347
     14 H1         -0.9592    1.9053    0.0260 H         1 <0>         0.1321
     15 H2          1.1560    3.1655    0.0077 H         1 <0>         0.1332
     16 H3          3.3384   -0.4997   -0.0329 H         1 <0>         0.1337
     17 H4          1.2227   -1.7591   -0.0191 H         1 <0>         0.1334
     18 H5         -1.1445   -1.7284    0.5180 H         1 <0>         0.1066
     19 H6         -2.0551   -0.1991    0.5353 H         1 <0>         0.1042
     20 H7         -2.9568    0.7390   -1.8170 H         1 <0>         0.1729
     21 H8         -3.2442   -0.4222   -4.1537 H         1 <0>         0.1695
     22 H9         -0.7826   -2.9116   -1.8289 H         1 <0>         0.2026
@<TRIPOS>BOND
     1    1    6 ar
     2    1    2 ar
     3    1   14 1
     4    2    3 ar
     5    2   15 1
     6    3    4 ar
     7    3   13 1
     8    4    5 ar
     9    4   16 1
    10    5    6 ar
    11    5   17 1
    12    6    7 1
    13    7    8 1
    14    7   18 1
    15    7   19 1
    16    8   12 1
    17    8    9 1
    18    9   10 2
    19    9   20 1
    20   10   11 1
    21   10   21 1
    22   11   12 2
    23   12   22 1
@<TRIPOS>MOLECULE
ZINC34849755
   23    24     0     0     0
SMALL
USER_CHARGES

@<TRIPOS>ATOM
      1 C1         -0.0167    1.3782    0.0096 C.ar      1 <0>        -0.0865
      2 C2          1.1708    2.0857    0.0021 C.ar      1 <0>        -0.0824
      3 C3          2.3776    1.4106   -0.0131 C.ar      1 <0>        -0.0788
      4 C4          2.3961    0.0278   -0.0207 C.ar      1 <0>        -0.0832
      5 C5          1.2083   -0.6792   -0.0132 C.ar      1 <0>        -0.0916
      6 C6          0.0021   -0.0041    0.0020 C.ar      1 <0>        -0.1331
      7 C7         -1.2927   -0.7751    0.0108 C.3       1 <0>         0.1399
      8 N1         -1.7260   -1.0176   -1.3675 N.pl3     1 <0>        -0.4052
      9 C8         -2.5250   -0.2024   -2.1230 C.2       1 <0>         0.0269
     10 C9         -2.6708   -0.8009   -3.3206 C.2       1 <0>         0.0040
     11 N2         -1.9796   -1.9502   -3.2969 N.pl3     1 <0>        -0.4758
     12 C10        -1.4069   -2.0841   -2.1320 C.cat     1 <0>         0.2888
     13 I1          4.1776    2.4824   -0.0252 I         1 <0>        -0.0130
     14 H1         -0.9592    1.9053    0.0260 H         1 <0>         0.1372
     15 H2          1.1560    3.1655    0.0077 H         1 <0>         0.1404
     16 H3          3.3384   -0.4997   -0.0329 H         1 <0>         0.1401
     17 H4          1.2227   -1.7591   -0.0191 H         1 <0>         0.1363
     18 H5         -1.1445   -1.7284    0.5180 H         1 <0>         0.1320
     19 H6         -2.0551   -0.1991    0.5353 H         1 <0>         0.1345
     20 H7         -2.9561    0.7395   -1.8174 H         1 <0>         0.2220
     21 H8         -3.2438   -0.4220   -4.1539 H         1 <0>         0.2238
     22 H9         -0.7833   -2.9120   -1.8286 H         1 <0>         0.2585
     23 H10        -1.9128   -2.5805   -4.0312 H         1 <0>         0.4653
@<TRIPOS>BOND
     1    1    6 ar
     2    1    2 ar
     3    1   14 1
     4    2    3 ar
     5    2   15 1
     6    3    4 ar
     7    3   13 1
     8    4    5 ar
     9    4   16 1
    10    5    6 ar
    11    5   17 1
    12    6    7 1
    13    7    8 1
    14    7   18 1
    15    7   19 1
    16    8   12 1
    17    8    9 1
    18    9   10 2
    19    9   20 1
    20   10   11 1
    21   10   21 1
    22   11   12 2
    23   11   23 1
    24   12   22 1
@<TRIPOS>MOLECULE
ZINC00161401
   22    23     0     0     0
SMALL
USER_CHARGES
1-[(4-chlorophenyl)methyl]imidazole
@<TRIPOS>ATOM
      1 C1         -2.4964   -0.3702   -2.0465 C.ar      1 <0>        -0.0853
      2 C2         -2.8721   -0.6378   -3.3495 C.ar      1 <0>        -0.1105
      3 C3         -2.3383   -1.7282   -4.0129 C.ar      1 <0>        -0.0247
      4 C4         -1.4244   -2.5468   -3.3735 C.ar      1 <0>        -0.1101
      5 C5         -1.0452   -2.2749   -2.0725 C.ar      1 <0>        -0.0859
      6 C6         -1.5790   -1.1852   -1.4101 C.ar      1 <0>        -0.1152
      7 C7         -1.1652   -0.8893    0.0084 C.3       1 <0>         0.1468
      8 N1          0.0021   -0.0041    0.0020 N.pl3     1 <0>        -0.4571
      9 C8         -0.0165    1.3646    0.0095 C.2       1 <0>        -0.0553
     10 C9          1.2671    1.7717   -0.0005 C.2       1 <0>        -0.0282
     11 N2          2.0482    0.6814   -0.0138 N.2       1 <0>        -0.4940
     12 C10         1.2973   -0.3859   -0.0124 C.2       1 <0>         0.1834
     13 Cl1        -2.8145   -2.0688   -5.6472 Cl        1 <0>        -0.0622
     14 H1         -2.9164    0.4784   -1.5270 H         1 <0>         0.1332
     15 H2         -3.5855    0.0016   -3.8481 H         1 <0>         0.1377
     16 H3         -1.0071   -3.3980   -3.8911 H         1 <0>         0.1381
     17 H4         -0.3316   -2.9137   -1.5734 H         1 <0>         0.1346
     18 H5         -0.9120   -1.8207    0.5149 H         1 <0>         0.1061
     19 H6         -1.9875   -0.4025    0.5327 H         1 <0>         0.1037
     20 H7         -0.8923    1.9965    0.0173 H         1 <0>         0.1729
     21 H8          1.6079    2.7966    0.0017 H         1 <0>         0.1694
     22 H9          1.6529   -1.4057   -0.0210 H         1 <0>         0.2026
@<TRIPOS>BOND
     1    1    6 ar
     2    1    2 ar
     3    1   14 1
     4    2    3 ar
     5    2   15 1
     6    3    4 ar
     7    3   13 1
     8    4    5 ar
     9    4   16 1
    10    5    6 ar
    11    5   17 1
    12    6    7 1
    13    7    8 1
    14    7   18 1
    15    7   19 1
    16    8   12 1
    17    8    9 1
    18    9   10 2
    19    9   20 1
    20   10   11 1
    21   10   21 1
    22   11   12 2
    23   12   22 1
@<TRIPOS>MOLECULE
ZINC00161401
   23    24     0     0     0
SMALL
USER_CHARGES
1-[(4-chlorophenyl)methyl]imidazole
@<TRIPOS>ATOM
      1 C1         -2.4964   -0.3702   -2.0465 C.ar      1 <0>        -0.0777
      2 C2         -2.8721   -0.6378   -3.3495 C.ar      1 <0>        -0.1084
      3 C3         -2.3383   -1.7282   -4.0129 C.ar      1 <0>        -0.0114
      4 C4         -1.4244   -2.5468   -3.3735 C.ar      1 <0>        -0.1092
      5 C5         -1.0452   -2.2749   -2.0725 C.ar      1 <0>        -0.0828
      6 C6         -1.5790   -1.1852   -1.4101 C.ar      1 <0>        -0.1476
      7 C7         -1.1652   -0.8893    0.0084 C.3       1 <0>         0.1417
      8 N1          0.0021   -0.0041    0.0020 N.pl3     1 <0>        -0.4066
      9 C8         -0.0165    1.3646    0.0095 C.2       1 <0>         0.0247
     10 C9          1.2671    1.7717   -0.0005 C.2       1 <0>         0.0046
     11 C10         1.2973   -0.3859   -0.0124 C.cat     1 <0>         0.2875
     12 Cl1        -2.8145   -2.0688   -5.6472 Cl        1 <0>        -0.0425
     13 H1         -2.9164    0.4784   -1.5270 H         1 <0>         0.1381
     14 H2         -3.5855    0.0016   -3.8481 H         1 <0>         0.1449
     15 H3         -1.0071   -3.3980   -3.8911 H         1 <0>         0.1446
     16 H4         -0.3316   -2.9137   -1.5734 H         1 <0>         0.1373
     17 H5         -0.9120   -1.8207    0.5149 H         1 <0>         0.1309
     18 H6         -1.9875   -0.4025    0.5327 H         1 <0>         0.1333
     19 H7         -0.8923    1.9965    0.0173 H         1 <0>         0.2207
     20 H8          1.6079    2.7966    0.0017 H         1 <0>         0.2227
     21 H9          1.6529   -1.4057   -0.0210 H         1 <0>         0.2572
     22 N2          2.0468    0.6814   -0.0138 N.pl3     1 <0>        -0.4834
     23 H10         3.0735    0.6858   -0.0235 H         1 <0>         0.4813
@<TRIPOS>BOND
     1    1    6 ar
     2    1    2 ar
     3    1   13 1
     4    2    3 ar
     5    2   14 1
     6    3    4 ar
     7    3   12 1
     8    4    5 ar
     9    4   15 1
    10    5    6 ar
    11    5   16 1
    12    6    7 1
    13    7    8 1
    14    7   17 1
    15    7   18 1
    16    8   11 1
    17    8    9 1
    18    9   10 2
    19    9   19 1
    20   10   20 1
    21   10   22 1
    22   11   21 1
    23   11   22 2
    24   22   23 1
@<TRIPOS>MOLECULE
ZINC00643138
   65    69     0     0     0
SMALL
USER_CHARGES

@<TRIPOS>ATOM
      1 H1          1.6079    1.9820    1.9526 H         1 <0>         0.0703
      2 C1          1.9730    1.5011    1.0451 C.3       1 <0>         0.1083
      3 C2          2.1165   -0.0071    1.2838 C.3       1 <0>         0.0963
      4 N1          0.7741   -0.5946    1.3963 N.am      1 <0>        -0.6170
      5 C3         -0.1862   -0.3812    0.3044 C.3       1 <0>         0.0857
      6 C4         -0.3297    1.1270    0.0658 C.3       1 <0>         0.1045
      7 N2          1.0127    1.7145   -0.0467 N.pl3     1 <0>        -0.6286
      8 C5          1.3700    2.4640   -1.1731 C.ar      1 <0>         0.1978
      9 C6          0.4180    2.7640   -2.1385 C.ar      1 <0>        -0.1556
     10 C7          0.7714    3.5042   -3.2497 C.ar      1 <0>        -0.0889
     11 C8          2.0767    3.9479   -3.4015 C.ar      1 <0>         0.0597
     12 C9          3.0283    3.6483   -2.4379 C.ar      1 <0>        -0.1602
     13 C10         2.6753    2.9131   -1.3233 C.ar      1 <0>        -0.1639
     14 O1          2.4238    4.6768   -4.4960 O.3       1 <0>        -0.3025
     15 C11         3.7853    5.1010   -4.5878 C.3       1 <0>         0.0716
     16 C12         3.9841    5.9018   -5.8762 C.3       1 <0>         0.0420
     17 H2          3.2697    6.7231   -5.9318 H         1 <0>         0.1182
     18 C13         5.4365    6.4322   -5.9725 C.3       1 <0>         0.0170
     19 O2          5.6082    6.5610   -7.4044 O.3       1 <0>        -0.3351
     20 C14         4.8830    5.4525   -7.9627 C.3       1 <0>         0.2894
     21 O3          3.8680    5.0463   -7.0310 O.3       1 <0>        -0.3428
     22 C15         5.8420    4.2889   -8.2219 C.3       1 <0>         0.0735
     23 N3          6.4757    3.8887   -6.9631 N.pl3     1 <0>        -0.4078
     24 C16         7.6416    4.3862   -6.4467 C.2       1 <0>         0.0277
     25 C17         7.8564    3.7456   -5.2817 C.2       1 <0>         0.0033
     26 N4          6.8490    2.8806   -5.0920 N.pl3     1 <0>        -0.4770
     27 C18         6.0155    2.9645   -6.0927 C.cat     1 <0>         0.2937
     28 C19         4.2377    5.8710   -9.2587 C.ar      1 <0>        -0.1041
     29 C20         4.5460    5.2057  -10.4306 C.ar      1 <0>        -0.0827
     30 C21         3.9547    5.5889  -11.6195 C.ar      1 <0>        -0.1016
     31 C22         3.0531    6.6385  -11.6374 C.ar      1 <0>        -0.0035
     32 C23         2.7439    7.3042  -10.4651 C.ar      1 <0>        -0.1013
     33 C24         3.3326    6.9170   -9.2744 C.ar      1 <0>         0.0199
     34 Cl1         2.9404    7.7480   -7.8016 Cl        1 <0>        -0.0376
     35 Cl2         2.3108    7.1201  -13.1310 Cl        1 <0>        -0.0329
     36 H3         -0.8834    1.3003   -0.8570 H         1 <0>         0.0971
     37 H4         -0.8588    1.5812    0.9035 H         1 <0>         0.0720
     38 H5          0.1789   -0.8621   -0.6031 H         1 <0>         0.0755
     39 H6         -1.1533   -0.8016    0.5805 H         1 <0>         0.1068
     40 C25         0.4300   -1.3165    2.4812 C.2       1 <0>         0.5145
     41 O4          1.2581   -1.5654    3.3316 O.2       1 <0>        -0.5401
     42 C26        -0.9838   -1.8144    2.6375 C.3       1 <0>        -0.1811
     43 H7          2.6456   -0.4613    0.4460 H         1 <0>         0.0694
     44 H8          2.6702   -0.1804    2.2066 H         1 <0>         0.1035
     45 H9          2.9392    1.9241    0.7704 H         1 <0>         0.0931
     46 H10        -0.5984    2.4183   -2.0207 H         1 <0>         0.1344
     47 H11         0.0312    3.7373   -4.0008 H         1 <0>         0.1336
     48 H12         4.0446    3.9939   -2.5571 H         1 <0>         0.1170
     49 H13         3.4153    2.6840   -0.5708 H         1 <0>         0.1270
     50 H14         4.0295    5.7270   -3.7295 H         1 <0>         0.0839
     51 H15         4.4380    4.2281   -4.5982 H         1 <0>         0.0478
     52 H16         5.5321    7.3996   -5.4795 H         1 <0>         0.1310
     53 H17         6.1428    5.7130   -5.5579 H         1 <0>         0.0712
     54 H18         5.2873    3.4457   -8.6335 H         1 <0>         0.1446
     55 H19         6.6084    4.6008   -8.9314 H         1 <0>         0.1499
     56 H20         8.2690    5.1460   -6.8887 H         1 <0>         0.2268
     57 H21         8.6931    3.9010   -4.6168 H         1 <0>         0.2279
     58 H22         5.1093    2.3882   -6.2070 H         1 <0>         0.2603
     59 H23         5.2496    4.3864  -10.4172 H         1 <0>         0.1442
     60 H24         4.1965    5.0692  -12.5349 H         1 <0>         0.1520
     61 H25         2.0403    8.1235  -10.4786 H         1 <0>         0.1548
     62 H26        -1.5536   -1.5784    1.7388 H         1 <0>         0.0829
     63 H27        -0.9742   -2.8938    2.7886 H         1 <0>         0.0983
     64 H28        -1.4461   -1.3311    3.4982 H         1 <0>         0.0992
     65 H29         6.7531    2.2888   -4.3295 H         1 <0>         0.4665
@<TRIPOS>BOND
     1    1    2 1
     2    2    7 1
     3    2    3 1
     4    2   45 1
     5    3    4 1
     6    3   43 1
     7    3   44 1
     8    4    5 1
     9    4   40 am
    10    5    6 1
    11    5   38 1
    12    5   39 1
    13    6    7 1
    14    6   36 1
    15    6   37 1
    16    7    8 1
    17    8   13 ar
    18    8    9 ar
    19    9   10 ar
    20    9   46 1
    21   10   11 ar
    22   10   47 1
    23   11   12 ar
    24   11   14 1
    25   12   13 ar
    26   12   48 1
    27   13   49 1
    28   14   15 1
    29   15   16 1
    30   15   50 1
    31   15   51 1
    32   16   17 1
    33   16   21 1
    34   16   18 1
    35   18   19 1
    36   18   52 1
    37   18   53 1
    38   19   20 1
    39   20   21 1
    40   20   22 1
    41   20   28 1
    42   22   23 1
    43   22   54 1
    44   22   55 1
    45   23   27 1
    46   23   24 1
    47   24   25 2
    48   24   56 1
    49   25   26 1
    50   25   57 1
    51   26   27 2
    52   26   65 1
    53   27   58 1
    54   28   33 ar
    55   28   29 ar
    56   29   30 ar
    57   29   59 1
    58   30   31 ar
    59   30   60 1
    60   31   32 ar
    61   31   35 1
    62   32   33 ar
    63   32   61 1
    64   33   34 1
    65   40   41 2
    66   40   42 1
    67   42   62 1
    68   42   63 1
    69   42   64 1
