@<TRIPOS>MOLECULE
ZINC00643138
   65    69     0     0     0
SMALL
USER_CHARGES

@<TRIPOS>ATOM
      1 H1          1.6079    1.9820    1.9526 H         1 <0>         0.0703
      2 C1          1.9730    1.5011    1.0451 C.3       1 <0>         0.1083
      3 C2          2.1165   -0.0071    1.2838 C.3       1 <0>         0.0963
      4 N1          0.7741   -0.5946    1.3963 N.am      1 <0>        -0.6170
      5 C3         -0.1862   -0.3812    0.3044 C.3       1 <0>         0.0857
      6 C4         -0.3297    1.1270    0.0658 C.3       1 <0>         0.1045
      7 N2          1.0127    1.7145   -0.0467 N.pl3     1 <0>        -0.6286
      8 C5          1.3700    2.4640   -1.1731 C.ar      1 <0>         0.1978
      9 C6          0.4180    2.7640   -2.1385 C.ar      1 <0>        -0.1556
     10 C7          0.7714    3.5042   -3.2497 C.ar      1 <0>        -0.0889
     11 C8          2.0767    3.9479   -3.4015 C.ar      1 <0>         0.0597
     12 C9          3.0283    3.6483   -2.4379 C.ar      1 <0>        -0.1602
     13 C10         2.6753    2.9131   -1.3233 C.ar      1 <0>        -0.1639
     14 O1          2.4238    4.6768   -4.4960 O.3       1 <0>        -0.3025
     15 C11         3.7853    5.1010   -4.5878 C.3       1 <0>         0.0716
     16 C12         3.9841    5.9018   -5.8762 C.3       1 <0>         0.0420
     17 H2          3.2697    6.7231   -5.9318 H         1 <0>         0.1182
     18 C13         5.4365    6.4322   -5.9725 C.3       1 <0>         0.0170
     19 O2          5.6082    6.5610   -7.4044 O.3       1 <0>        -0.3351
     20 C14         4.8830    5.4525   -7.9627 C.3       1 <0>         0.2894
     21 O3          3.8680    5.0463   -7.0310 O.3       1 <0>        -0.3428
     22 C15         5.8420    4.2889   -8.2219 C.3       1 <0>         0.0735
     23 N3          6.4757    3.8887   -6.9631 N.pl3     1 <0>        -0.4078
     24 C16         7.6416    4.3862   -6.4467 C.2       1 <0>         0.0277
     25 C17         7.8564    3.7456   -5.2817 C.2       1 <0>         0.0033
     26 N4          6.8490    2.8806   -5.0920 N.pl3     1 <0>        -0.4770
     27 C18         6.0155    2.9645   -6.0927 C.cat     1 <0>         0.2937
     28 C19         4.2377    5.8710   -9.2587 C.ar      1 <0>        -0.1041
     29 C20         4.5460    5.2057  -10.4306 C.ar      1 <0>        -0.0827
     30 C21         3.9547    5.5889  -11.6195 C.ar      1 <0>        -0.1016
     31 C22         3.0531    6.6385  -11.6374 C.ar      1 <0>        -0.0035
     32 C23         2.7439    7.3042  -10.4651 C.ar      1 <0>        -0.1013
     33 C24         3.3326    6.9170   -9.2744 C.ar      1 <0>         0.0199
     34 Cl1         2.9404    7.7480   -7.8016 Cl        1 <0>        -0.0376
     35 Cl2         2.3108    7.1201  -13.1310 Cl        1 <0>        -0.0329
     36 H3         -0.8834    1.3003   -0.8570 H         1 <0>         0.0971
     37 H4         -0.8588    1.5812    0.9035 H         1 <0>         0.0720
     38 H5          0.1789   -0.8621   -0.6031 H         1 <0>         0.0755
     39 H6         -1.1533   -0.8016    0.5805 H         1 <0>         0.1068
     40 C25         0.4300   -1.3165    2.4812 C.2       1 <0>         0.5145
     41 O4          1.2581   -1.5654    3.3316 O.2       1 <0>        -0.5401
     42 C26        -0.9838   -1.8144    2.6375 C.3       1 <0>        -0.1811
     43 H7          2.6456   -0.4613    0.4460 H         1 <0>         0.0694
     44 H8          2.6702   -0.1804    2.2066 H         1 <0>         0.1035
     45 H9          2.9392    1.9241    0.7704 H         1 <0>         0.0931
     46 H10        -0.5984    2.4183   -2.0207 H         1 <0>         0.1344
     47 H11         0.0312    3.7373   -4.0008 H         1 <0>         0.1336
     48 H12         4.0446    3.9939   -2.5571 H         1 <0>         0.1170
     49 H13         3.4153    2.6840   -0.5708 H         1 <0>         0.1270
     50 H14         4.0295    5.7270   -3.7295 H         1 <0>         0.0839
     51 H15         4.4380    4.2281   -4.5982 H         1 <0>         0.0478
     52 H16         5.5321    7.3996   -5.4795 H         1 <0>         0.1310
     53 H17         6.1428    5.7130   -5.5579 H         1 <0>         0.0712
     54 H18         5.2873    3.4457   -8.6335 H         1 <0>         0.1446
     55 H19         6.6084    4.6008   -8.9314 H         1 <0>         0.1499
     56 H20         8.2690    5.1460   -6.8887 H         1 <0>         0.2268
     57 H21         8.6931    3.9010   -4.6168 H         1 <0>         0.2279
     58 H22         5.1093    2.3882   -6.2070 H         1 <0>         0.2603
     59 H23         5.2496    4.3864  -10.4172 H         1 <0>         0.1442
     60 H24         4.1965    5.0692  -12.5349 H         1 <0>         0.1520
     61 H25         2.0403    8.1235  -10.4786 H         1 <0>         0.1548
     62 H26        -1.5536   -1.5784    1.7388 H         1 <0>         0.0829
     63 H27        -0.9742   -2.8938    2.7886 H         1 <0>         0.0983
     64 H28        -1.4461   -1.3311    3.4982 H         1 <0>         0.0992
     65 H29         6.7531    2.2888   -4.3295 H         1 <0>         0.4665
@<TRIPOS>BOND
     1    1    2 1
     2    2    7 1
     3    2    3 1
     4    2   45 1
     5    3    4 1
     6    3   43 1
     7    3   44 1
     8    4    5 1
     9    4   40 am
    10    5    6 1
    11    5   38 1
    12    5   39 1
    13    6    7 1
    14    6   36 1
    15    6   37 1
    16    7    8 1
    17    8   13 ar
    18    8    9 ar
    19    9   10 ar
    20    9   46 1
    21   10   11 ar
    22   10   47 1
    23   11   12 ar
    24   11   14 1
    25   12   13 ar
    26   12   48 1
    27   13   49 1
    28   14   15 1
    29   15   16 1
    30   15   50 1
    31   15   51 1
    32   16   17 1
    33   16   21 1
    34   16   18 1
    35   18   19 1
    36   18   52 1
    37   18   53 1
    38   19   20 1
    39   20   21 1
    40   20   22 1
    41   20   28 1
    42   22   23 1
    43   22   54 1
    44   22   55 1
    45   23   27 1
    46   23   24 1
    47   24   25 2
    48   24   56 1
    49   25   26 1
    50   25   57 1
    51   26   27 2
    52   26   65 1
    53   27   58 1
    54   28   33 ar
    55   28   29 ar
    56   29   30 ar
    57   29   59 1
    58   30   31 ar
    59   30   60 1
    60   31   32 ar
    61   31   35 1
    62   32   33 ar
    63   32   61 1
    64   33   34 1
    65   40   41 2
    66   40   42 1
    67   42   62 1
    68   42   63 1
    69   42   64 1
