@<TRIPOS>MOLECULE
ZINC13675264
   50    53     0     0     0
SMALL
USER_CHARGES
N-[4-[(1R)-2-ethyl-1-(1,2,4-triazol-1-yl)butyl]phenyl]-1,3-benzothiazol-2-amine
@<TRIPOS>ATOM
      1 C1          9.3557    6.1741    0.8776 C.3       1 <0>        -0.1584
      2 C2          8.8435    7.2758    1.8076 C.3       1 <0>        -0.1174
      3 C3          7.3138    7.2523    1.8319 C.3       1 <0>        -0.0873
      4 C4          6.8055    8.2304    2.8929 C.3       1 <0>        -0.1143
      5 C5          5.3286    7.9511    3.1783 C.3       1 <0>        -0.1710
      6 C6          6.7756    7.6632    0.4599 C.3       1 <0>         0.2111
      7 H1          7.1824    8.6368    0.1867 H         1 <0>         0.1114
      8 C7          5.2718    7.7442    0.5139 C.ar      1 <0>        -0.1146
      9 C8          4.6391    8.9590    0.3229 C.ar      1 <0>        -0.0748
     10 C9          3.2611    9.0368    0.3717 C.ar      1 <0>        -0.1399
     11 C10         2.5106    7.8931    0.6130 C.ar      1 <0>         0.1657
     12 C11         3.1496    6.6755    0.8097 C.ar      1 <0>        -0.1528
     13 C12         4.5276    6.6038    0.7548 C.ar      1 <0>        -0.0535
     14 N1          1.1156    7.9684    0.6636 N.pl3     1 <0>        -0.6108
     15 C13         0.3500    6.9160    0.2011 C.2       1 <0>         0.3971
     16 N2         -0.9521    6.7538    0.2650 N.2       1 <0>        -0.5659
     17 C14        -1.5724    5.6624   -0.2341 C.ar      1 <0>         0.1159
     18 C15        -2.9551    5.3663   -0.2303 C.ar      1 <0>        -0.0785
     19 C16        -3.4242    4.2058   -0.7883 C.ar      1 <0>        -0.1013
     20 C17        -2.5663    3.2795   -1.3633 C.ar      1 <0>        -0.1102
     21 C18        -1.2076    3.5370   -1.3847 C.ar      1 <0>        -0.0566
     22 C19        -0.7295    4.6991   -0.8333 C.ar      1 <0>        -0.1673
     23 S1          0.8787    5.4281   -0.6361 S.3       1 <0>         0.0108
     24 N3          7.1755    6.6691   -0.5392 N.pl3     1 <0>        -0.3672
     25 C20         7.5216    6.9049   -1.8167 C.2       1 <0>         0.2535
     26 N4          7.8127    5.7588   -2.3765 N.2       1 <0>        -0.5421
     27 C21         7.6569    4.7724   -1.4944 C.2       1 <0>         0.1932
     28 N5          7.2676    5.2800   -0.3545 N.2       1 <0>        -0.3049
     29 H2         10.4356    6.0772    0.9896 H         1 <0>         0.0439
     30 H3          8.8774    5.2293    1.1356 H         1 <0>         0.0697
     31 H4          9.1191    6.4311   -0.1549 H         1 <0>         0.0530
     32 H5          9.1863    8.2452    1.4459 H         1 <0>         0.0597
     33 H6          9.2254    7.1079    2.8146 H         1 <0>         0.0683
     34 H7          6.9696    6.2460    2.0707 H         1 <0>         0.0927
     35 H8          7.3827    8.1049    3.8090 H         1 <0>         0.0699
     36 H9          6.9185    9.2518    2.5294 H         1 <0>         0.0643
     37 H10         5.0426    8.4298    4.1148 H         1 <0>         0.0500
     38 H11         4.7200    8.3490    2.3662 H         1 <0>         0.0721
     39 H12         5.1709    6.8755    3.2571 H         1 <0>         0.0547
     40 H13         5.2232    9.8479    0.1356 H         1 <0>         0.1351
     41 H14         2.7676    9.9857    0.2221 H         1 <0>         0.1354
     42 H15         2.5692    5.7852    1.0020 H         1 <0>         0.1336
     43 H16         5.0249    5.6568    0.9039 H         1 <0>         0.1359
     44 H17         0.6853    8.7597    1.0236 H         1 <0>         0.4284
     45 H18        -3.6495    6.0644    0.2134 H         1 <0>         0.1316
     46 H19        -4.4855    4.0057   -0.7762 H         1 <0>         0.1340
     47 H20        -2.9558    2.3688   -1.7937 H         1 <0>         0.1382
     48 H21        -0.5272    2.8281   -1.8330 H         1 <0>         0.1324
     49 H22         7.5559    7.8719   -2.2963 H         1 <0>         0.2138
     50 H23         7.8255    3.7236   -1.6895 H         1 <0>         0.2137
@<TRIPOS>BOND
     1    1    2 1
     2    1   29 1
     3    1   30 1
     4    1   31 1
     5    2    3 1
     6    2   32 1
     7    2   33 1
     8    3    4 1
     9    3    6 1
    10    3   34 1
    11    4    5 1
    12    4   35 1
    13    4   36 1
    14    5   37 1
    15    5   38 1
    16    5   39 1
    17    6    7 1
    18    6    8 1
    19    6   24 1
    20    8   13 ar
    21    8    9 ar
    22    9   10 ar
    23    9   40 1
    24   10   11 ar
    25   10   41 1
    26   11   12 ar
    27   11   14 1
    28   12   13 ar
    29   12   42 1
    30   13   43 1
    31   14   15 1
    32   14   44 1
    33   15   23 1
    34   15   16 2
    35   16   17 1
    36   17   22 ar
    37   17   18 ar
    38   18   19 ar
    39   18   45 1
    40   19   20 ar
    41   19   46 1
    42   20   21 ar
    43   20   47 1
    44   21   22 ar
    45   21   48 1
    46   22   23 1
    47   24   28 1
    48   24   25 1
    49   25   26 2
    50   25   49 1
    51   26   27 1
    52   27   28 2
    53   27   50 1
@<TRIPOS>MOLECULE
ZINC05425356
   36    39     0     0     0
SMALL
USER_CHARGES

@<TRIPOS>ATOM
      1 C1          0.6711    0.2808    1.2552 C.ar      1 <0>        -0.0963
      2 C2          1.8408    1.0173    1.2240 C.ar      1 <0>        -0.1082
      3 C3          2.3969    1.3811    0.0120 C.ar      1 <0>        -0.1139
      4 C4          1.7835    1.0090   -1.1697 C.ar      1 <0>        -0.0760
      5 C5          0.6132    0.2721   -1.1390 C.ar      1 <0>        -0.0284
      6 C6          0.0572   -0.0921    0.0746 C.ar      1 <0>        -0.0888
      7 Cl1        -0.1579   -0.1950   -2.6225 Cl        1 <0>        -0.0443
      8 C7          3.6718    2.1839   -0.0212 C.3       1 <0>         0.2343
      9 H1          3.4320    3.2426   -0.1193 H         1 <0>         0.1440
     10 C8          4.5096    1.7477   -1.1955 C.ar      1 <0>        -0.1247
     11 C9          4.8140    0.4042   -1.3637 C.ar      1 <0>        -0.1118
     12 C10         5.5720   -0.0114   -2.4214 C.ar      1 <0>        -0.0509
     13 C11         6.0476    0.9218   -3.3464 C.ar      1 <0>         0.0729
     14 C12         5.7394    2.2821   -3.1769 C.ar      1 <0>         0.0392
     15 C13         4.9637    2.6853   -2.0983 C.ar      1 <0>        -0.0685
     16 N1          6.3391    2.9429   -4.2302 N.pl3     1 <0>        -0.5979
     17 H2          6.3132    3.8976   -4.3994 H         1 <0>         0.4304
     18 C14         6.9733    2.0068   -4.9866 C.2       1 <0>         0.2890
     19 N2          6.8033    0.8247   -4.4704 N.2       1 <0>        -0.4946
     20 N3          4.4190    1.9653    1.2198 N.pl3     1 <0>        -0.4012
     21 C15         4.8968    0.7680    1.6801 C.2       1 <0>         0.0325
     22 C16         5.5186    1.0196    2.8478 C.2       1 <0>         0.0043
     23 N4          5.4231    2.3346    3.0939 N.pl3     1 <0>        -0.4747
     24 C17         4.7701    2.9083    2.1204 C.cat     1 <0>         0.2887
     25 H3          0.2394   -0.0070    2.2025 H         1 <0>         0.1413
     26 H4          2.3199    1.3088    2.1469 H         1 <0>         0.1202
     27 H5          2.2178    1.2939   -2.1166 H         1 <0>         0.1425
     28 H6         -0.8565   -0.6674    0.0992 H         1 <0>         0.1441
     29 H7          4.4482   -0.3200   -0.6509 H         1 <0>         0.1289
     30 H8          5.8035   -1.0593   -2.5423 H         1 <0>         0.1407
     31 H9          4.7205    3.7291   -1.9651 H         1 <0>         0.1321
     32 H10         7.5357    2.2146   -5.8849 H         1 <0>         0.2262
     33 H11         4.7944   -0.1937    1.1993 H         1 <0>         0.2187
     34 H12         6.0083    0.2903    3.4761 H         1 <0>         0.2246
     35 H13         4.5454    3.9622    2.0484 H         1 <0>         0.2602
     36 H14         5.7855    2.7883    3.8709 H         1 <0>         0.4653
@<TRIPOS>BOND
     1    1    6 ar
     2    1    2 ar
     3    1   25 1
     4    2    3 ar
     5    2   26 1
     6    3    4 ar
     7    3    8 1
     8    4    5 ar
     9    4   27 1
    10    5    6 ar
    11    5    7 1
    12    6   28 1
    13    8    9 1
    14    8   10 1
    15    8   20 1
    16   10   15 ar
    17   10   11 ar
    18   11   12 ar
    19   11   29 1
    20   12   13 ar
    21   12   30 1
    22   13   19 1
    23   13   14 ar
    24   14   15 ar
    25   14   16 1
    26   15   31 1
    27   16   17 1
    28   16   18 1
    29   18   19 2
    30   18   32 1
    31   20   24 1
    32   20   21 1
    33   21   22 2
    34   21   33 1
    35   22   23 1
    36   22   34 1
    37   23   24 2
    38   23   36 1
    39   24   35 1
@<TRIPOS>MOLECULE
ZINC11687637
   36    39     0     0     0
SMALL
USER_CHARGES

@<TRIPOS>ATOM
      1 C1          0.7877   -0.0870    0.8623 C.ar      1 <0>        -0.0934
      2 C2          1.8324    0.8114    0.9772 C.ar      1 <0>        -0.0784
      3 C3          2.5333    1.2046   -0.1473 C.ar      1 <0>        -0.1139
      4 C4          2.1900    0.7000   -1.3877 C.ar      1 <0>        -0.1055
      5 C5          1.1449   -0.1989   -1.5032 C.ar      1 <0>        -0.0306
      6 C6          0.4438   -0.5924   -0.3770 C.ar      1 <0>        -0.0887
      7 Cl1         0.7128   -0.8325   -3.0606 Cl        1 <0>        -0.0503
      8 C7          3.6718    2.1839   -0.0212 C.3       1 <0>         0.2345
      9 H1          3.2772    3.1999   -0.0070 H         1 <0>         0.1440
     10 C8          4.4231    1.9188    1.2580 C.ar      1 <0>        -0.1224
     11 C9          4.9002    0.6433    1.5253 C.ar      1 <0>        -0.1114
     12 C10         5.5835    0.3826    2.6791 C.ar      1 <0>        -0.0512
     13 C11         5.8073    1.4073    3.6025 C.ar      1 <0>         0.0724
     14 C12         5.3248    2.6989    3.3321 C.ar      1 <0>         0.0392
     15 C13         4.6366    2.9462    2.1520 C.ar      1 <0>        -0.0687
     16 N1          5.6955    3.4776    4.4101 N.pl3     1 <0>        -0.5980
     17 H2          5.5102    4.4225    4.5276 H         1 <0>         0.4305
     18 C14         6.3683    2.6739    5.2774 C.2       1 <0>         0.2890
     19 N2          6.4340    1.4631    4.8057 N.2       1 <0>        -0.4949
     20 N3          4.5785    2.0281   -1.1613 N.pl3     1 <0>        -0.4028
     21 C15         5.2585    0.8921   -1.5090 C.2       1 <0>         0.0318
     22 C16         5.9705    1.1868   -2.6134 C.2       1 <0>         0.0050
     23 N4          5.7318    2.4678   -2.9314 N.pl3     1 <0>        -0.4743
     24 C17         4.8950    2.9766   -2.0690 C.cat     1 <0>         0.2887
     25 H3          0.2432   -0.3973    1.7419 H         1 <0>         0.1449
     26 H4          2.1005    1.2064    1.9459 H         1 <0>         0.1386
     27 H5          2.7373    1.0078   -2.2663 H         1 <0>         0.1247
     28 H6         -0.3722   -1.2942   -0.4667 H         1 <0>         0.1441
     29 H7          4.7293   -0.1513    0.8141 H         1 <0>         0.1289
     30 H8          5.9499   -0.6138    2.8774 H         1 <0>         0.1406
     31 H9          4.2667    3.9379    1.9372 H         1 <0>         0.1321
     32 H10         6.7871    2.9944    6.2199 H         1 <0>         0.2262
     33 H11         5.2298   -0.0578   -0.9959 H         1 <0>         0.2187
     34 H12         6.6200    0.5103   -3.1491 H         1 <0>         0.2248
     35 H13         4.5197    3.9893   -2.0780 H         1 <0>         0.2604
     36 H14         6.1174    2.9403   -3.6857 H         1 <0>         0.4655
@<TRIPOS>BOND
     1    1    6 ar
     2    1    2 ar
     3    1   25 1
     4    2    3 ar
     5    2   26 1
     6    3    4 ar
     7    3    8 1
     8    4    5 ar
     9    4   27 1
    10    5    6 ar
    11    5    7 1
    12    6   28 1
    13    8    9 1
    14    8   10 1
    15    8   20 1
    16   10   15 ar
    17   10   11 ar
    18   11   12 ar
    19   11   29 1
    20   12   13 ar
    21   12   30 1
    22   13   19 1
    23   13   14 ar
    24   14   15 ar
    25   14   16 1
    26   15   31 1
    27   16   17 1
    28   16   18 1
    29   18   19 2
    30   18   32 1
    31   20   24 1
    32   20   21 1
    33   21   22 2
    34   21   33 1
    35   22   23 1
    36   22   34 1
    37   23   24 2
    38   23   36 1
    39   24   35 1
@<TRIPOS>MOLECULE
ZINC11687637
   35    38     0     0     0
SMALL
USER_CHARGES

@<TRIPOS>ATOM
      1 C1          0.7930   -0.0956    0.8577 C.ar      1 <0>        -0.1036
      2 C2          1.8355    0.8052    0.9744 C.ar      1 <0>        -0.0901
      3 C3          2.5357    1.2020   -0.1493 C.ar      1 <0>        -0.0967
      4 C4          2.1939    0.6987   -1.3906 C.ar      1 <0>        -0.0929
      5 C5          1.1511   -0.2025   -1.5079 C.ar      1 <0>        -0.0326
      6 C6          0.4507   -0.5997   -0.3826 C.ar      1 <0>        -0.1012
      7 Cl1         0.7209   -0.8346   -3.0665 Cl        1 <0>        -0.0616
      8 C7          3.6718    2.1839   -0.0212 C.3       1 <0>         0.2312
      9 H1          3.2748    3.1989   -0.0058 H         1 <0>         0.1202
     10 C8          4.4231    1.9188    1.2580 C.ar      1 <0>        -0.0896
     11 C9          4.9002    0.6433    1.5253 C.ar      1 <0>        -0.1067
     12 C10         5.5835    0.3826    2.6791 C.ar      1 <0>        -0.0567
     13 C11         5.8073    1.4073    3.6025 C.ar      1 <0>         0.0584
     14 C12         5.3248    2.6989    3.3321 C.ar      1 <0>         0.0435
     15 C13         4.6366    2.9462    2.1520 C.ar      1 <0>        -0.0847
     16 N1          5.6955    3.4776    4.4101 N.pl3     1 <0>        -0.6009
     17 H2          5.5102    4.4225    4.5276 H         1 <0>         0.4262
     18 C14         6.3683    2.6739    5.2774 C.2       1 <0>         0.2711
     19 N2          6.4340    1.4631    4.8057 N.2       1 <0>        -0.4956
     20 N3          4.5794    2.0318   -1.1611 N.pl3     1 <0>        -0.4535
     21 C15         4.9026    2.9970   -2.0764 C.2       1 <0>        -0.0568
     22 C16         5.7631    2.4357   -2.9471 C.2       1 <0>        -0.0254
     23 N4          5.9600    1.1626   -2.5736 N.2       1 <0>        -0.4899
     24 C17         5.2581    0.9151   -1.5017 C.2       1 <0>         0.1921
     25 H3          0.2491   -0.4087    1.7366 H         1 <0>         0.1371
     26 H4          2.1024    1.1993    1.9439 H         1 <0>         0.1328
     27 H5          2.7407    1.0094   -2.2686 H         1 <0>         0.1350
     28 H6         -0.3636   -1.3033   -0.4736 H         1 <0>         0.1367
     29 H7          4.7293   -0.1513    0.8141 H         1 <0>         0.1289
     30 H8          5.9499   -0.6138    2.8774 H         1 <0>         0.1355
     31 H9          4.2667    3.9379    1.9372 H         1 <0>         0.1271
     32 H10         6.7871    2.9944    6.2199 H         1 <0>         0.2201
     33 H11         4.5374    4.0131   -2.0966 H         1 <0>         0.1741
     34 H12         6.2153    2.9249   -3.7971 H         1 <0>         0.1699
     35 H13         5.2236   -0.0275   -0.9756 H         1 <0>         0.1984
@<TRIPOS>BOND
     1    1    6 ar
     2    1    2 ar
     3    1   25 1
     4    2    3 ar
     5    2   26 1
     6    3    4 ar
     7    3    8 1
     8    4    5 ar
     9    4   27 1
    10    5    6 ar
    11    5    7 1
    12    6   28 1
    13    8    9 1
    14    8   10 1
    15    8   20 1
    16   10   15 ar
    17   10   11 ar
    18   11   12 ar
    19   11   29 1
    20   12   13 ar
    21   12   30 1
    22   13   19 1
    23   13   14 ar
    24   14   15 ar
    25   14   16 1
    26   15   31 1
    27   16   17 1
    28   16   18 1
    29   18   19 2
    30   18   32 1
    31   20   24 1
    32   20   21 1
    33   21   22 2
    34   21   33 1
    35   22   23 1
    36   22   34 1
    37   23   24 2
    38   24   35 1
