@<TRIPOS>MOLECULE
ZINC04826285
   36    38     0     0     0
SMALL
USER_CHARGES
2-[(2-bromophenyl)methylene]-6-methoxy-tetralin-1-one
@<TRIPOS>ATOM
      1 C1         -0.1798    0.5065   -0.4865 C.3       1 <0>         0.0237
      2 O1         -0.6602    0.8399    0.8173 O.3       1 <0>        -0.3123
      3 C2         -1.9826    0.6482    1.0544 C.ar      1 <0>         0.1651
      4 C3         -2.8002    0.1477    0.0473 C.ar      1 <0>        -0.2255
      5 C4         -4.1425   -0.0415    0.2882 C.ar      1 <0>        -0.0174
      6 C5         -4.6757    0.2658    1.5427 C.ar      1 <0>        -0.2031
      7 C6         -3.8575    0.7603    2.5575 C.ar      1 <0>         0.0140
      8 C7         -2.5105    0.9473    2.3023 C.ar      1 <0>        -0.1707
      9 C8         -4.3773    1.0872    3.9299 C.3       1 <0>        -0.0845
     10 C9         -5.8707    1.4022    3.9168 C.3       1 <0>        -0.0867
     11 C10        -6.5909    0.2969    3.1666 C.2       1 <0>        -0.1726
     12 C11        -7.5840   -0.4286    3.7248 C.2       1 <0>        -0.0465
     13 C12        -8.1103   -0.0595    5.0476 C.ar      1 <0>        -0.0384
     14 C13        -8.2989    1.2868    5.3790 C.ar      1 <0>        -0.0985
     15 C14        -8.7966    1.6243    6.6192 C.ar      1 <0>        -0.1052
     16 C15        -9.1005    0.6362    7.5404 C.ar      1 <0>        -0.1059
     17 C16        -8.9127   -0.6973    7.2233 C.ar      1 <0>        -0.0907
     18 C17        -8.4197   -1.0528    5.9841 C.ar      1 <0>        -0.0778
     19 Br1        -8.1625   -2.8759    5.5530 Br        1 <0>        -0.0404
     20 C18        -6.1273    0.0711    1.7820 C.2       1 <0>         0.4399
     21 O2         -6.8904   -0.2546    0.8908 O.2       1 <0>        -0.4455
     22 H1         -0.3620   -0.5503   -0.6816 H         1 <0>         0.0594
     23 H2          0.8902    0.7068   -0.5418 H         1 <0>         0.1045
     24 H3         -0.7011    1.1085   -1.2308 H         1 <0>         0.0595
     25 H4         -2.3840   -0.0921   -0.9200 H         1 <0>         0.1366
     26 H5         -4.7826   -0.4266   -0.4917 H         1 <0>         0.1379
     27 H6         -1.8663    1.3331    3.0786 H         1 <0>         0.1384
     28 H7         -3.8365    1.9507    4.3172 H         1 <0>         0.0910
     29 H8         -4.2005    0.2362    4.5877 H         1 <0>         0.0907
     30 H9         -6.0394    2.3551    3.4152 H         1 <0>         0.0842
     31 H10        -6.2430    1.4530    4.9399 H         1 <0>         0.0947
     32 H11        -7.9917   -1.2798    3.1998 H         1 <0>         0.1386
     33 H12        -8.0584    2.0592    4.6636 H         1 <0>         0.1385
     34 H13        -8.9462    2.6629    6.8748 H         1 <0>         0.1342
     35 H14        -9.4859    0.9080    8.5120 H         1 <0>         0.1345
     36 H15        -9.1521   -1.4620    7.9474 H         1 <0>         0.1363
@<TRIPOS>BOND
     1    1    2 1
     2    1   22 1
     3    1   23 1
     4    1   24 1
     5    2    3 1
     6    3    8 ar
     7    3    4 ar
     8    4    5 ar
     9    4   25 1
    10    5    6 ar
    11    5   26 1
    12    6   20 1
    13    6    7 ar
    14    7    8 ar
    15    7    9 1
    16    8   27 1
    17    9   10 1
    18    9   28 1
    19    9   29 1
    20   10   11 1
    21   10   30 1
    22   10   31 1
    23   11   12 2
    24   11   20 1
    25   12   13 1
    26   12   32 1
    27   13   18 ar
    28   13   14 ar
    29   14   15 ar
    30   14   33 1
    31   15   16 ar
    32   15   34 1
    33   16   17 ar
    34   16   35 1
    35   17   18 ar
    36   17   36 1
    37   18   19 1
    38   20   21 2
