@<TRIPOS>MOLECULE
ZINC03812892
   77    80     0     0     0
SMALL
USER_CHARGES

@<TRIPOS>ATOM
      1 C1         -5.6570   -1.8380   -5.8329 C.3       1 <0>        -0.1410
      2 C2         -5.2316   -3.3070   -5.7878 C.3       1 <0>        -0.0339
      3 C3         -5.1149   -3.7596   -4.3310 C.3       1 <0>        -0.1396
      4 C4         -6.2769   -4.1630   -6.5057 C.3       1 <0>        -0.1471
      5 C5         -3.8977   -3.4648   -6.4712 C.ar      1 <0>        -0.0573
      6 C6         -3.7802   -4.2876   -7.5758 C.ar      1 <0>        -0.1168
      7 C7         -2.5567   -4.4324   -8.2027 C.ar      1 <0>        -0.1067
      8 C8         -1.4508   -3.7541   -7.7253 C.ar      1 <0>        -0.1350
      9 C9         -1.5686   -2.9306   -6.6212 C.ar      1 <0>        -0.1088
     10 C10        -2.7930   -2.7825   -5.9969 C.ar      1 <0>        -0.1103
     11 C11        -0.1168   -3.9128   -8.4081 C.3       1 <0>         0.1533
     12 H1         -0.2727   -4.2002   -9.4478 H         1 <0>         0.1093
     13 C12         0.6951   -4.9963   -7.6956 C.3       1 <0>        -0.1445
     14 C13         1.9961   -5.2452   -8.4615 C.3       1 <0>        -0.1465
     15 C14         2.8080   -6.3287   -7.7490 C.3       1 <0>        -0.0105
     16 N1          4.0571   -6.5677   -8.4843 N.4       1 <0>        -0.3824
     17 C15         4.8871   -5.3578   -8.4420 C.3       1 <0>        -0.0079
     18 C16         6.1529   -5.5737   -9.2743 C.3       1 <0>        -0.1472
     19 C17         6.9399   -6.7549   -8.6994 C.3       1 <0>        -0.1198
     20 C18         6.0400   -7.9939   -8.6795 C.3       1 <0>        -0.1384
     21 C19         4.7784   -7.6883   -7.8693 C.3       1 <0>        -0.0058
     22 C20         8.1658   -7.0269   -9.5736 C.3       1 <0>         0.2364
     23 C21         9.0396   -5.7996   -9.6092 C.ar      1 <0>        -0.1208
     24 C22         9.4143   -5.1835   -8.4299 C.ar      1 <0>        -0.1129
     25 C23        10.2158   -4.0577   -8.4626 C.ar      1 <0>        -0.1158
     26 C24        10.6430   -3.5483   -9.6747 C.ar      1 <0>        -0.1101
     27 C25        10.2690   -4.1651  -10.8540 C.ar      1 <0>        -0.1131
     28 C26         9.4710   -5.2933  -10.8210 C.ar      1 <0>        -0.1068
     29 C27         8.9453   -8.1821   -9.0001 C.ar      1 <0>        -0.0827
     30 C28         9.3013   -8.1805   -7.6644 C.ar      1 <0>        -0.1158
     31 C29        10.0164   -9.2401   -7.1384 C.ar      1 <0>        -0.1179
     32 C30        10.3751  -10.3016   -7.9480 C.ar      1 <0>        -0.1104
     33 C31        10.0184  -10.3036   -9.2835 C.ar      1 <0>        -0.1181
     34 C32         9.2996   -9.2460   -9.8085 C.ar      1 <0>        -0.0910
     35 O1          7.7429   -7.3493  -10.8999 O.3       1 <0>        -0.5409
     36 O2          0.5943   -2.6743   -8.3578 O.3       1 <0>        -0.5537
     37 H2         -4.9123   -1.2282   -5.3215 H         1 <0>         0.0572
     38 H3         -5.7401   -1.5155   -6.8708 H         1 <0>         0.0574
     39 H4         -6.6218   -1.7238   -5.3387 H         1 <0>         0.0630
     40 H5         -6.0797   -3.6455   -3.8367 H         1 <0>         0.0629
     41 H6         -4.8118   -4.8062   -4.2989 H         1 <0>         0.0558
     42 H7         -4.3702   -3.1498   -3.8196 H         1 <0>         0.0568
     43 H8         -6.3600   -3.8405   -7.5436 H         1 <0>         0.0596
     44 H9         -5.9738   -5.2095   -6.4736 H         1 <0>         0.0586
     45 H10        -7.2417   -4.0488   -6.0114 H         1 <0>         0.0628
     46 H11        -4.6441   -4.8176   -7.9488 H         1 <0>         0.1307
     47 H12        -2.4646   -5.0758   -9.0653 H         1 <0>         0.1217
     48 H13        -0.7046   -2.4010   -6.2480 H         1 <0>         0.1176
     49 H14        -2.8859   -2.1362   -5.1366 H         1 <0>         0.1244
     50 H15         0.9270   -4.6692   -6.6821 H         1 <0>         0.0787
     51 H16         0.1148   -5.9182   -7.6560 H         1 <0>         0.0860
     52 H17         1.7641   -5.5723   -9.4750 H         1 <0>         0.0879
     53 H18         2.5764   -4.3234   -8.5011 H         1 <0>         0.0944
     54 H19         3.0399   -6.0016   -6.7355 H         1 <0>         0.1285
     55 H20         2.2277   -7.2506   -7.7094 H         1 <0>         0.1306
     56 H21         4.3245   -4.5174   -8.8485 H         1 <0>         0.1351
     57 H22         5.1637   -5.1434   -7.4097 H         1 <0>         0.1288
     58 H23         5.8774   -5.7879  -10.3069 H         1 <0>         0.0889
     59 H24         6.7686   -4.6749   -9.2401 H         1 <0>         0.1173
     60 H25         7.2596   -6.5203   -7.6841 H         1 <0>         0.1001
     61 H26         5.7622   -8.2584   -9.6998 H         1 <0>         0.0971
     62 H27         6.5751   -8.8251   -8.2202 H         1 <0>         0.1150
     63 H28         5.0574   -7.4243   -6.8492 H         1 <0>         0.1274
     64 H29         4.1356   -8.5685   -7.8530 H         1 <0>         0.1314
     65 H30         9.0806   -5.5814   -7.4830 H         1 <0>         0.1196
     66 H31        10.5080   -3.5759   -7.5413 H         1 <0>         0.1259
     67 H32        11.2686   -2.6684   -9.7003 H         1 <0>         0.1266
     68 H33        10.6025   -3.7669  -11.8009 H         1 <0>         0.1271
     69 H34         9.1819   -5.7773  -11.7422 H         1 <0>         0.1293
     70 H35         9.0210   -7.3512   -7.0319 H         1 <0>         0.1189
     71 H36        10.2951   -9.2385   -6.0950 H         1 <0>         0.1260
     72 H37        10.9345  -11.1291   -7.5372 H         1 <0>         0.1261
     73 H38        10.2990  -11.1328   -9.9161 H         1 <0>         0.1265
     74 H39         9.0176   -9.2493  -10.8511 H         1 <0>         0.1327
     75 H40         7.2342   -6.6493  -11.3316 H         1 <0>         0.3777
     76 H41         0.7687   -2.3570   -7.4611 H         1 <0>         0.3762
     77 H42         3.8432   -6.7930   -9.4443 H         1 <0>         0.4225
@<TRIPOS>BOND
     1    1    2 1
     2    1   37 1
     3    1   38 1
     4    1   39 1
     5    2    3 1
     6    2    4 1
     7    2    5 1
     8    3   40 1
     9    3   41 1
    10    3   42 1
    11    4   43 1
    12    4   44 1
    13    4   45 1
    14    5   10 ar
    15    5    6 ar
    16    6    7 ar
    17    6   46 1
    18    7    8 ar
    19    7   47 1
    20    8    9 ar
    21    8   11 1
    22    9   10 ar
    23    9   48 1
    24   10   49 1
    25   11   12 1
    26   11   13 1
    27   11   36 1
    28   13   14 1
    29   13   50 1
    30   13   51 1
    31   14   15 1
    32   14   52 1
    33   14   53 1
    34   15   16 1
    35   15   54 1
    36   15   55 1
    37   16   21 1
    38   16   17 1
    39   16   77 1
    40   17   18 1
    41   17   56 1
    42   17   57 1
    43   18   19 1
    44   18   58 1
    45   18   59 1
    46   19   20 1
    47   19   22 1
    48   19   60 1
    49   20   21 1
    50   20   61 1
    51   20   62 1
    52   21   63 1
    53   21   64 1
    54   22   23 1
    55   22   29 1
    56   22   35 1
    57   23   28 ar
    58   23   24 ar
    59   24   25 ar
    60   24   65 1
    61   25   26 ar
    62   25   66 1
    63   26   27 ar
    64   26   67 1
    65   27   28 ar
    66   27   68 1
    67   28   69 1
    68   29   34 ar
    69   29   30 ar
    70   30   31 ar
    71   30   70 1
    72   31   32 ar
    73   31   71 1
    74   32   33 ar
    75   32   72 1
    76   33   34 ar
    77   33   73 1
    78   34   74 1
    79   35   75 1
    80   36   76 1
@<TRIPOS>MOLECULE
ZINC03831511
   77    80     0     0     0
SMALL
USER_CHARGES

@<TRIPOS>ATOM
      1 C1          8.5157   -0.1133    0.5257 C.3       1 <0>        -0.1396
      2 C2          8.2329   -1.6122    0.4070 C.3       1 <0>        -0.0339
      3 C3          9.4003   -2.4003    1.0044 C.3       1 <0>        -0.1410
      4 C4          6.9480   -1.9504    1.1657 C.3       1 <0>        -0.1471
      5 C5          8.0700   -1.9792   -1.0455 C.ar      1 <0>        -0.0570
      6 C6          6.8812   -2.5261   -1.4911 C.ar      1 <0>        -0.1171
      7 C7          6.7318   -2.8628   -2.8235 C.ar      1 <0>        -0.1058
      8 C8          7.7711   -2.6522   -3.7103 C.ar      1 <0>        -0.1351
      9 C9          8.9595   -2.1045   -3.2649 C.ar      1 <0>        -0.1088
     10 C10         9.1074   -1.7638   -1.9334 C.ar      1 <0>        -0.1105
     11 C11         7.6085   -3.0201   -5.1627 C.3       1 <0>         0.1534
     12 H1          6.7941   -3.7370   -5.2669 H         1 <0>         0.1083
     13 C12         7.2888   -1.7633   -5.9745 C.3       1 <0>        -0.1447
     14 C13         7.0011   -2.1531   -7.4258 C.3       1 <0>        -0.1461
     15 C14         6.6814   -0.8963   -8.2376 C.3       1 <0>        -0.0105
     16 N1          6.4052   -1.2705   -9.6310 N.4       1 <0>        -0.3824
     17 C15         5.1925   -2.0957   -9.6833 C.3       1 <0>        -0.0077
     18 C16         4.9455   -2.5556  -11.1217 C.3       1 <0>        -0.1474
     19 C17         4.7691   -1.3287  -12.0210 C.3       1 <0>        -0.1197
     20 C18         6.0089   -0.4378  -11.9013 C.3       1 <0>        -0.1385
     21 C19         6.2165   -0.0564  -10.4340 C.3       1 <0>        -0.0057
     22 C20         4.6009   -1.7789  -13.4735 C.3       1 <0>         0.2363
     23 C21         3.3927   -2.6726  -13.5857 C.ar      1 <0>        -0.1208
     24 C22         2.1799   -2.2641  -13.0630 C.ar      1 <0>        -0.1130
     25 C23         1.0716   -3.0839  -13.1659 C.ar      1 <0>        -0.1159
     26 C24         1.1760   -4.3120  -13.7919 C.ar      1 <0>        -0.1102
     27 C25         2.3886   -4.7200  -14.3155 C.ar      1 <0>        -0.1131
     28 C26         3.4958   -3.8984  -14.2163 C.ar      1 <0>        -0.1068
     29 C27         4.4159   -0.5710  -14.3556 C.ar      1 <0>        -0.0827
     30 C28         3.4639    0.3789  -14.0360 C.ar      1 <0>        -0.1158
     31 C29         3.2942    1.4868  -14.8450 C.ar      1 <0>        -0.1179
     32 C30         4.0769    1.6450  -15.9735 C.ar      1 <0>        -0.1103
     33 C31         5.0295    0.6955  -16.2925 C.ar      1 <0>        -0.1181
     34 C32         5.2021   -0.4102  -15.4811 C.ar      1 <0>        -0.0909
     35 O1          5.7648   -2.4972  -13.8874 O.3       1 <0>        -0.5409
     36 O2          8.8208   -3.6031   -5.6449 O.3       1 <0>        -0.5535
     37 H2          9.4311    0.1277   -0.0148 H         1 <0>         0.0568
     38 H3          7.6840    0.4482    0.1001 H         1 <0>         0.0558
     39 H4          8.6335    0.1522    1.5763 H         1 <0>         0.0630
     40 H5          9.5181   -2.1349    2.0550 H         1 <0>         0.0630
     41 H6          9.1989   -3.4682    0.9199 H         1 <0>         0.0575
     42 H7         10.3157   -2.1594    0.4639 H         1 <0>         0.0572
     43 H8          6.1163   -1.3889    0.7401 H         1 <0>         0.0585
     44 H9          6.7465   -3.0183    1.0812 H         1 <0>         0.0596
     45 H10         7.0658   -1.6849    2.2163 H         1 <0>         0.0628
     46 H11         6.0693   -2.6907   -0.7982 H         1 <0>         0.1306
     47 H12         5.8033   -3.2907   -3.1715 H         1 <0>         0.1216
     48 H13         9.7716   -1.9402   -3.9577 H         1 <0>         0.1174
     49 H14        10.0346   -1.3325   -1.5861 H         1 <0>         0.1245
     50 H15         6.4142   -1.2698   -5.5507 H         1 <0>         0.0854
     51 H16         8.1405   -1.0838   -5.9427 H         1 <0>         0.0792
     52 H17         7.8757   -2.6466   -7.8496 H         1 <0>         0.0944
     53 H18         6.1495   -2.8326   -7.4575 H         1 <0>         0.0876
     54 H19         5.8068   -0.4027   -7.8138 H         1 <0>         0.1286
     55 H20         7.5331   -0.2168   -8.2059 H         1 <0>         0.1305
     56 H21         5.3183   -2.9669   -9.0404 H         1 <0>         0.1340
     57 H22         4.3402   -1.5105   -9.3380 H         1 <0>         0.1290
     58 H23         5.7972   -3.1412  -11.4679 H         1 <0>         0.0892
     59 H24         4.0437   -3.1667  -11.1587 H         1 <0>         0.1172
     60 H25         3.8873   -0.7703  -11.7068 H         1 <0>         0.1001
     61 H26         6.8827   -0.9794  -12.2637 H         1 <0>         0.0972
     62 H27         5.8672    0.4650  -12.4955 H         1 <0>         0.1151
     63 H28         5.3424    0.4854  -10.0727 H         1 <0>         0.1274
     64 H29         7.0983    0.5781  -10.3452 H         1 <0>         0.1315
     65 H30         2.0983   -1.3047  -12.5739 H         1 <0>         0.1196
     66 H31         0.1243   -2.7651  -12.7569 H         1 <0>         0.1258
     67 H32         0.3103   -4.9527  -13.8717 H         1 <0>         0.1266
     68 H33         2.4702   -5.6796  -14.8043 H         1 <0>         0.1272
     69 H34         4.4423   -4.2156  -14.6286 H         1 <0>         0.1294
     70 H35         2.8524    0.2553  -13.1544 H         1 <0>         0.1188
     71 H36         2.5499    2.2287  -14.5958 H         1 <0>         0.1260
     72 H37         3.9438    2.5103  -16.6060 H         1 <0>         0.1261
     73 H38         5.6408    0.8189  -17.1743 H         1 <0>         0.1265
     74 H39         5.9489   -1.1502  -15.7284 H         1 <0>         0.1327
     75 H40         5.9458   -3.2889  -13.3624 H         1 <0>         0.3777
     76 H41         9.5897   -3.0199   -5.5826 H         1 <0>         0.3768
     77 H42         7.1840   -1.7972   -9.9974 H         1 <0>         0.4229
@<TRIPOS>BOND
     1    1    2 1
     2    1   37 1
     3    1   38 1
     4    1   39 1
     5    2    3 1
     6    2    4 1
     7    2    5 1
     8    3   40 1
     9    3   41 1
    10    3   42 1
    11    4   43 1
    12    4   44 1
    13    4   45 1
    14    5   10 ar
    15    5    6 ar
    16    6    7 ar
    17    6   46 1
    18    7    8 ar
    19    7   47 1
    20    8    9 ar
    21    8   11 1
    22    9   10 ar
    23    9   48 1
    24   10   49 1
    25   11   12 1
    26   11   13 1
    27   11   36 1
    28   13   14 1
    29   13   50 1
    30   13   51 1
    31   14   15 1
    32   14   52 1
    33   14   53 1
    34   15   16 1
    35   15   54 1
    36   15   55 1
    37   16   21 1
    38   16   17 1
    39   16   77 1
    40   17   18 1
    41   17   56 1
    42   17   57 1
    43   18   19 1
    44   18   58 1
    45   18   59 1
    46   19   20 1
    47   19   22 1
    48   19   60 1
    49   20   21 1
    50   20   61 1
    51   20   62 1
    52   21   63 1
    53   21   64 1
    54   22   23 1
    55   22   29 1
    56   22   35 1
    57   23   28 ar
    58   23   24 ar
    59   24   25 ar
    60   24   65 1
    61   25   26 ar
    62   25   66 1
    63   26   27 ar
    64   26   67 1
    65   27   28 ar
    66   27   68 1
    67   28   69 1
    68   29   34 ar
    69   29   30 ar
    70   30   31 ar
    71   30   70 1
    72   31   32 ar
    73   31   71 1
    74   32   33 ar
    75   32   72 1
    76   33   34 ar
    77   33   73 1
    78   34   74 1
    79   35   75 1
    80   36   76 1
@<TRIPOS>MOLECULE
ZINC31982451
   75    78     0     0     0
SMALL
USER_CHARGES
1-(4-tert-butylphenyl)-4-[4-[hydroxy(diphenyl)methyl]-1-piperidyl]butan-1-one
@<TRIPOS>ATOM
      1 C1          3.0180   -1.8295   14.6450 C.3       1 <0>        -0.1432
      2 C2          3.9096   -0.8155   13.9254 C.3       1 <0>        -0.0375
      3 C3          5.3394   -1.3552   13.8523 C.3       1 <0>        -0.1493
      4 C4          3.9023    0.5067   14.6951 C.3       1 <0>        -0.1433
      5 C5          3.3867   -0.5877   12.5305 C.ar      1 <0>        -0.0244
      6 C6          2.1051   -0.0986   12.3472 C.ar      1 <0>        -0.1273
      7 C7          1.6194    0.1126   11.0741 C.ar      1 <0>        -0.0530
      8 C8          2.4258   -0.1684    9.9665 C.ar      1 <0>        -0.1895
      9 C9          3.7179   -0.6674   10.1600 C.ar      1 <0>        -0.0702
     10 C10         4.1909   -0.8682   11.4396 C.ar      1 <0>        -0.1353
     11 C11         1.9152    0.0541    8.6043 C.2       1 <0>         0.4021
     12 O1          0.7927    0.4822    8.4400 O.2       1 <0>        -0.4529
     13 C12         2.7874   -0.2500    7.4136 C.3       1 <0>        -0.1666
     14 C13         2.0227    0.0671    6.1270 C.3       1 <0>        -0.1447
     15 C14         2.9082   -0.2417    4.9181 C.3       1 <0>        -0.0064
     16 N1          2.1740    0.0627    3.6827 N.4       1 <0>        -0.3970
     17 C15         2.8942   -0.4387    2.5053 C.3       1 <0>        -0.0028
     18 C16         2.1779    0.0210    1.2335 C.3       1 <0>        -0.1427
     19 C17         0.7421   -0.5109    1.2415 C.3       1 <0>        -0.0818
     20 C18         0.0281   -0.0151    2.5021 C.3       1 <0>        -0.1416
     21 C19         0.8076   -0.4725    3.7372 C.3       1 <0>        -0.0137
     22 C20         0.0021   -0.0041    0.0020 C.3       1 <0>         0.2444
     23 C21        -1.4117   -0.5257    0.0127 C.ar      1 <0>        -0.1111
     24 C22        -1.6947   -1.7434    0.6025 C.ar      1 <0>        -0.1183
     25 C23        -2.9923   -2.2199    0.6162 C.ar      1 <0>        -0.1146
     26 C24        -4.0053   -1.4830    0.0316 C.ar      1 <0>        -0.1123
     27 C25        -3.7215   -0.2675   -0.5624 C.ar      1 <0>        -0.1100
     28 C26        -2.4247    0.2109   -0.5723 C.ar      1 <0>        -0.1064
     29 C27         0.7074   -0.4901   -1.2379 C.ar      1 <0>        -0.1106
     30 C28         1.4002   -1.6861   -1.2150 C.ar      1 <0>        -0.1189
     31 C29         2.0436   -2.1340   -2.3536 C.ar      1 <0>        -0.1146
     32 C30         2.0022   -1.3813   -3.5123 C.ar      1 <0>        -0.1126
     33 C31         1.3134   -0.1829   -3.5337 C.ar      1 <0>        -0.1099
     34 C32         0.6665    0.2629   -2.3964 C.ar      1 <0>        -0.1066
     35 O2         -0.0173    1.4248    0.0099 O.3       1 <0>        -0.5759
     36 H1          1.9900   -1.4415   14.6976 H         1 <0>         0.0595
     37 H2          3.3997   -1.9958   15.6632 H         1 <0>         0.0658
     38 H3          3.0233   -2.7801   14.0916 H         1 <0>         0.0582
     39 H4          5.9805   -0.6262   13.3350 H         1 <0>         0.0606
     40 H5          5.3446   -2.3058   13.2989 H         1 <0>         0.0605
     41 H6          5.7210   -1.5215   14.8705 H         1 <0>         0.0651
     42 H7          4.5433    1.2357   14.1777 H         1 <0>         0.0584
     43 H8          4.2840    0.3404   15.7133 H         1 <0>         0.0658
     44 H9          2.8743    0.8947   14.7477 H         1 <0>         0.0595
     45 H10         1.4836    0.1179   13.2035 H         1 <0>         0.1315
     46 H11         0.6191    0.4943   10.9326 H         1 <0>         0.1336
     47 H12         4.3448   -0.8914    9.3096 H         1 <0>         0.1290
     48 H13         5.1899   -1.2496   11.5908 H         1 <0>         0.1365
     49 H14         3.6983    0.3649    7.4598 H         1 <0>         0.1116
     50 H15         3.0630   -1.3149    7.4234 H         1 <0>         0.1107
     51 H16         1.1118   -0.5478    6.0809 H         1 <0>         0.0962
     52 H17         1.7471    1.1320    6.1172 H         1 <0>         0.0949
     53 H18         3.8191    0.3732    4.9642 H         1 <0>         0.1329
     54 H19         3.1838   -1.3066    4.9279 H         1 <0>         0.1272
     55 H20         3.9217   -0.0459    2.5092 H         1 <0>         0.1318
     56 H21         2.9218   -1.5380    2.5330 H         1 <0>         0.1238
     57 H22         2.1633    1.1203    1.1979 H         1 <0>         0.1009
     58 H23         2.7097   -0.3673    0.3524 H         1 <0>         0.1141
     59 H24         0.7551   -1.6108    1.2321 H         1 <0>         0.1001
     60 H25        -0.0245    1.0835    2.4856 H         1 <0>         0.1008
     61 H26        -0.9900   -0.4304    2.5342 H         1 <0>         0.1138
     62 H27         0.8450   -1.5716    3.7598 H         1 <0>         0.1241
     63 H28         0.3054   -0.1040    4.6438 H         1 <0>         0.1381
     64 H29        -0.9026   -2.3210    1.0557 H         1 <0>         0.1186
     65 H30        -3.2141   -3.1694    1.0806 H         1 <0>         0.1255
     66 H31        -5.0185   -1.8568    0.0393 H         1 <0>         0.1268
     67 H32        -4.5130    0.3082   -1.0191 H         1 <0>         0.1274
     68 H33        -2.2029    1.1604   -1.0367 H         1 <0>         0.1197
     69 H34         1.4360   -2.2722   -0.3086 H         1 <0>         0.1188
     70 H35         2.5814   -3.0704   -2.3369 H         1 <0>         0.1255
     71 H36         2.5077   -1.7296   -4.4008 H         1 <0>         0.1267
     72 H37         1.2811    0.4052   -4.4390 H         1 <0>         0.1274
     73 H38         0.1286    1.1993   -2.4131 H         1 <0>         0.1197
     74 H39        -0.5089    1.9727   -0.8075 H         1 <0>         0.4145
     75 H40         2.1022    1.1565    3.5909 H         1 <0>         0.4429
@<TRIPOS>BOND
     1    1    2 1
     2    1   36 1
     3    1   37 1
     4    1   38 1
     5    2    3 1
     6    2    4 1
     7    2    5 1
     8    3   39 1
     9    3   40 1
    10    3   41 1
    11    4   42 1
    12    4   43 1
    13    4   44 1
    14    5   10 ar
    15    5    6 ar
    16    6    7 ar
    17    6   45 1
    18    7    8 ar
    19    7   46 1
    20    8    9 ar
    21    8   11 1
    22    9   10 ar
    23    9   47 1
    24   10   48 1
    25   11   12 2
    26   11   13 1
    27   13   14 1
    28   13   49 1
    29   13   50 1
    30   14   15 1
    31   14   51 1
    32   14   52 1
    33   15   16 1
    34   15   53 1
    35   15   54 1
    36   16   21 1
    37   16   17 1
    38   16   75 1
    39   17   18 1
    40   17   55 1
    41   17   56 1
    42   18   19 1
    43   18   57 1
    44   18   58 1
    45   19   20 1
    46   19   22 1
    47   19   59 1
    48   20   21 1
    49   20   60 1
    50   20   61 1
    51   21   62 1
    52   21   63 1
    53   22   23 1
    54   22   29 1
    55   22   35 1
    56   23   28 ar
    57   23   24 ar
    58   24   25 ar
    59   24   64 1
    60   25   26 ar
    61   25   65 1
    62   26   27 ar
    63   26   66 1
    64   27   28 ar
    65   27   67 1
    66   28   68 1
    67   29   34 ar
    68   29   30 ar
    69   30   31 ar
    70   30   69 1
    71   31   32 ar
    72   31   70 1
    73   32   33 ar
    74   32   71 1
    75   33   34 ar
    76   33   72 1
    77   34   73 1
    78   35   74 1
