@<TRIPOS>MOLECULE
ZINC03920719
   75    78     0     0     0
SMALL
USER_CHARGES
7-[2-(4-fluorophenyl)-5-isopropyl-3-phenyl-4-(phenylcarbamoyl)pyrrol-1-yl]-3,5-dihydroxy-heptanoic acid
@<TRIPOS>ATOM
      1 C1         -0.0291    1.0885    0.0221 C.3       1 <0>        -0.1495
      2 C2         -0.7404    1.5920    1.2797 C.3       1 <0>        -0.0367
      3 C3         -0.0014    1.0867    2.5205 C.3       1 <0>        -0.1498
      4 C4         -0.7521    3.0989    1.2809 C.2       1 <0>         0.1023
      5 C5          0.3559    3.8992    1.2751 C.2       1 <0>        -0.2125
      6 C6         -0.1353    5.2868    1.2756 C.2       1 <0>        -0.0756
      7 C7         -1.5139    5.1979    1.2908 C.2       1 <0>         0.0710
      8 N1         -1.8559    3.8705    1.2937 N.pl3     1 <0>        -0.4179
      9 C8         -3.2298    3.3622    1.3087 C.3       1 <0>         0.0911
     10 C9         -3.6921    3.1842    2.7563 C.3       1 <0>        -0.1657
     11 C10        -5.1269    2.6533    2.7719 C.3       1 <0>         0.1174
     12 H1         -5.7663    3.3172    2.1900 H         1 <0>         0.1000
     13 C11        -5.6329    2.5933    4.2145 C.3       1 <0>        -0.1845
     14 C12        -7.1065    2.1819    4.2215 C.3       1 <0>         0.1331
     15 H2         -7.6767    2.8622    3.5890 H         1 <0>         0.0942
     16 C13        -7.6461    2.2424    5.6519 C.3       1 <0>        -0.1934
     17 C14        -9.1258    1.9568    5.6431 C.2       1 <0>         0.4594
     18 O1         -9.6908    1.7283    4.5998 O.co2     1 <0>        -0.6235
     19 O2         -7.2313    0.8491    3.7214 O.3       1 <0>        -0.5292
     20 O3         -5.1564    1.3433    2.2019 O.3       1 <0>        -0.5411
     21 C15        -2.4556    6.3354    1.3026 C.ar      1 <0>        -0.0288
     22 C16        -3.5671    6.3339    0.4570 C.ar      1 <0>        -0.0847
     23 C17        -4.4457    7.3967    0.4757 C.ar      1 <0>        -0.1472
     24 C18        -4.2216    8.4697    1.3238 C.ar      1 <0>         0.1052
     25 C19        -3.1174    8.4790    2.1613 C.ar      1 <0>        -0.1481
     26 C20        -2.2349    7.4193    2.1550 C.ar      1 <0>        -0.0610
     27 F1         -5.0831    9.5103    1.3345 F         1 <0>        -0.1371
     28 C21         0.6797    6.5226    1.2673 C.ar      1 <0>        -0.0074
     29 C22         0.6319    7.3859    0.1724 C.ar      1 <0>        -0.0979
     30 C23         1.3903    8.5385    0.1729 C.ar      1 <0>        -0.1174
     31 C24         2.2049    8.8336    1.2515 C.ar      1 <0>        -0.1206
     32 C25         2.2607    7.9789    2.3380 C.ar      1 <0>        -0.1185
     33 C26         1.5031    6.8258    2.3520 C.ar      1 <0>        -0.1080
     34 C27         1.7604    3.4609    1.2674 C.2       1 <0>         0.6092
     35 O4          2.3353    3.2799    0.2107 O.2       1 <0>        -0.5115
     36 N2          2.4100    3.2598    2.4310 N.am      1 <0>        -0.6690
     37 C28         3.7128    2.7511    2.4258 C.ar      1 <0>         0.1482
     38 C29         4.1303    1.8966    3.4379 C.ar      1 <0>        -0.1465
     39 C30         5.4160    1.3922    3.4272 C.ar      1 <0>        -0.1021
     40 C31         6.2905    1.7455    2.4160 C.ar      1 <0>        -0.1374
     41 C32         5.8796    2.6003    1.4096 C.ar      1 <0>        -0.1028
     42 C33         4.5937    3.1040    1.4116 C.ar      1 <0>        -0.1202
     43 H3         -0.0207   -0.0015    0.0213 H         1 <0>         0.0627
     44 H4          0.9956    1.4598    0.0110 H         1 <0>         0.0697
     45 H5         -0.5556    1.4484   -0.8618 H         1 <0>         0.0573
     46 H6         -1.7651    1.2207    1.2909 H         1 <0>         0.0851
     47 H7          1.0234    1.4580    2.5093 H         1 <0>         0.0627
     48 H8         -0.5081    1.4454    3.4164 H         1 <0>         0.0584
     49 H9          0.0071   -0.0032    2.5196 H         1 <0>         0.0662
     50 H10        -3.8851    4.0711    0.8026 H         1 <0>         0.0982
     51 H11        -3.2675    2.4018    0.7946 H         1 <0>         0.1035
     52 H12        -3.0369    2.4752    3.2623 H         1 <0>         0.0731
     53 H13        -3.6544    4.1446    3.2704 H         1 <0>         0.0795
     54 H14        -5.0490    1.8626    4.7742 H         1 <0>         0.0654
     55 H15        -5.5274    3.5744    4.6777 H         1 <0>         0.0761
     56 H16        -7.1362    1.4988    6.2644 H         1 <0>         0.0634
     57 H17        -7.4703    3.2357    6.0648 H         1 <0>         0.0680
     58 H18        -6.7482    0.1887    4.2368 H         1 <0>         0.3526
     59 H19        -4.6084    0.6984    2.6698 H         1 <0>         0.3668
     60 H20        -3.7405    5.5002   -0.2073 H         1 <0>         0.1329
     61 H21        -5.3080    7.3946   -0.1745 H         1 <0>         0.1400
     62 H22        -2.9475    9.3179    2.8199 H         1 <0>         0.1387
     63 H23        -1.3746    7.4278    2.8079 H         1 <0>         0.1350
     64 H24        -0.0002    7.1544   -0.6721 H         1 <0>         0.1198
     65 H25         1.3511    9.2097   -0.6723 H         1 <0>         0.1213
     66 H26         2.7995    9.7352    1.2455 H         1 <0>         0.1197
     67 H27         2.8988    8.2146    3.1769 H         1 <0>         0.1211
     68 H28         1.5472    6.1596    3.2008 H         1 <0>         0.1177
     69 H29         1.9740    3.4680    3.2721 H         1 <0>         0.4106
     70 H30         3.4492    1.6238    4.2304 H         1 <0>         0.1243
     71 H31         5.7401    0.7247    4.2119 H         1 <0>         0.1244
     72 H32         7.2966    1.3527    2.4119 H         1 <0>         0.1209
     73 H33         6.5649    2.8740    0.6211 H         1 <0>         0.1234
     74 H34         4.2735    3.7718    0.6255 H         1 <0>         0.1385
     75 O5         -9.8161    1.9564    6.7942 O.co2     1 <0>        -0.7819
@<TRIPOS>BOND
     1    1    2 1
     2    1   43 1
     3    1   44 1
     4    1   45 1
     5    2    3 1
     6    2    4 1
     7    2   46 1
     8    3   47 1
     9    3   48 1
    10    3   49 1
    11    4    8 1
    12    4    5 2
    13    5    6 1
    14    5   34 1
    15    6    7 2
    16    6   28 1
    17    7    8 1
    18    7   21 1
    19    8    9 1
    20    9   10 1
    21    9   50 1
    22    9   51 1
    23   10   11 1
    24   10   52 1
    25   10   53 1
    26   11   12 1
    27   11   13 1
    28   11   20 1
    29   13   14 1
    30   13   54 1
    31   13   55 1
    32   14   15 1
    33   14   16 1
    34   14   19 1
    35   16   17 1
    36   16   56 1
    37   16   57 1
    38   17   18 2
    39   17   75 1
    40   19   58 1
    41   20   59 1
    42   21   26 ar
    43   21   22 ar
    44   22   23 ar
    45   22   60 1
    46   23   24 ar
    47   23   61 1
    48   24   25 ar
    49   24   27 1
    50   25   26 ar
    51   25   62 1
    52   26   63 1
    53   28   33 ar
    54   28   29 ar
    55   29   30 ar
    56   29   64 1
    57   30   31 ar
    58   30   65 1
    59   31   32 ar
    60   31   66 1
    61   32   33 ar
    62   32   67 1
    63   33   68 1
    64   34   35 2
    65   34   36 am
    66   36   37 1
    67   36   69 1
    68   37   42 ar
    69   37   38 ar
    70   38   39 ar
    71   38   70 1
    72   39   40 ar
    73   39   71 1
    74   40   41 ar
    75   40   72 1
    76   41   42 ar
    77   41   73 1
    78   42   74 1
@<TRIPOS>MOLECULE
ZINC03797541
   57    61     0     0     0
SMALL
USER_CHARGES
10,13-dimethyl-17-(3-pyridyl)-2,3,4,7,8,9,11,12,14,15-decahydro-1H-cyclopenta[a]phenanthren-3-ol
@<TRIPOS>ATOM
      1 C1         -3.0005    8.6246    4.0035 C.3       1 <0>        -0.1491
      2 C2         -1.5307    9.0386    4.0998 C.3       1 <0>        -0.0133
      3 C3         -1.0142    8.6413    5.4855 C.3       1 <0>        -0.1037
      4 C4         -1.7796    9.4217    6.5560 C.3       1 <0>        -0.1152
      5 C5         -1.5148   10.9190    6.3896 C.3       1 <0>         0.1085
      6 H1         -0.4414   11.1046    6.4279 H         1 <0>         0.0545
      7 C6         -2.0663   11.3880    5.0400 C.3       1 <0>        -0.1172
      8 C7         -1.4536   10.5285    3.9469 C.2       1 <0>        -0.1050
      9 C8         -0.8930   11.1255    2.9362 C.2       1 <0>        -0.1539
     10 C9         -0.2479   10.3827    1.8028 C.3       1 <0>        -0.0846
     11 C10        -0.8955    8.9996    1.6721 C.3       1 <0>        -0.0707
     12 H2         -1.9394    9.0972    1.3741 H         1 <0>         0.0873
     13 C11        -0.7684    8.2826    3.0242 C.3       1 <0>        -0.0658
     14 H3          0.2852    8.2630    3.3028 H         1 <0>         0.0655
     15 C12        -1.2595    6.8398    2.9616 C.3       1 <0>        -0.1222
     16 C13        -0.5949    6.0525    1.8194 C.3       1 <0>        -0.1001
     17 C14        -0.8818    6.8129    0.5418 C.3       1 <0>        -0.0258
     18 C15        -0.1314    8.1758    0.6527 C.3       1 <0>        -0.0812
     19 H4          0.9128    8.0583    0.9427 H         1 <0>         0.0839
     20 C16        -0.2588    8.6096   -0.8146 C.3       1 <0>        -0.0911
     21 C17        -0.0432    7.2868   -1.5501 C.2       1 <0>        -0.1428
     22 C18        -0.3843    6.2636   -0.7530 C.2       1 <0>        -0.0881
     23 C19        -0.2890    4.8303   -1.1016 C.ar      1 <0>        -0.0792
     24 C20         0.9568    4.2349   -1.3302 C.ar      1 <0>        -0.0655
     25 C21         0.9915    2.8899   -1.6531 C.ar      1 <0>        -0.1698
     26 C22        -0.1947    2.1833   -1.7389 C.ar      1 <0>         0.0948
     27 N1         -1.3550    2.7722   -1.5230 N.ar      1 <0>        -0.4826
     28 C23        -1.4393    4.0483   -1.2079 C.ar      1 <0>         0.1106
     29 C24        -2.3860    7.0715    0.4352 C.3       1 <0>        -0.1525
     30 O1         -2.1602   11.6369    7.4433 O.3       1 <0>        -0.5687
     31 H5         -3.3614    8.7990    2.9899 H         1 <0>         0.0560
     32 H6         -3.0965    7.5664    4.2464 H         1 <0>         0.0633
     33 H7         -3.5906    9.2136    4.7057 H         1 <0>         0.0570
     34 H8         -1.1652    7.5725    5.6371 H         1 <0>         0.0735
     35 H9          0.0487    8.8721    5.5573 H         1 <0>         0.0641
     36 H10        -2.8473    9.2284    6.4519 H         1 <0>         0.0738
     37 H11        -1.4484    9.1023    7.5441 H         1 <0>         0.0699
     38 H12        -1.8005   12.4326    4.8778 H         1 <0>         0.0690
     39 H13        -3.1507   11.2785    5.0285 H         1 <0>         0.0800
     40 H14        -0.8920   12.2052    2.9114 H         1 <0>         0.1035
     41 H15         0.8176   10.2685    2.0020 H         1 <0>         0.0729
     42 H16        -0.3873   10.9390    0.8758 H         1 <0>         0.0714
     43 H17        -1.0353    6.3480    3.9082 H         1 <0>         0.0621
     44 H18        -2.3390    6.8392    2.8110 H         1 <0>         0.0765
     45 H19         0.4804    5.9896    1.9866 H         1 <0>         0.0628
     46 H20        -1.0215    5.0512    1.7596 H         1 <0>         0.0622
     47 H21         0.5143    9.3320   -1.0764 H         1 <0>         0.0718
     48 H22        -1.2511    9.0120   -1.0183 H         1 <0>         0.0826
     49 H23         0.3282    7.1907   -2.5597 H         1 <0>         0.1266
     50 H24         1.8676    4.8106   -1.2568 H         1 <0>         0.1336
     51 H25         1.9348    2.3969   -1.8366 H         1 <0>         0.1365
     52 H26        -0.1706    1.1334   -1.9911 H         1 <0>         0.1558
     53 H27        -2.4076    4.4941   -1.0343 H         1 <0>         0.1537
     54 H28        -2.9104    6.1230    0.3194 H         1 <0>         0.0542
     55 H29        -2.7338    7.5709    1.3395 H         1 <0>         0.0747
     56 H30        -2.5854    7.7048   -0.4292 H         1 <0>         0.0576
     57 H31        -2.0345   12.5947    7.4012 H         1 <0>         0.3780
@<TRIPOS>BOND
     1    1    2 1
     2    1   31 1
     3    1   32 1
     4    1   33 1
     5    2    8 1
     6    2   13 1
     7    2    3 1
     8    3    4 1
     9    3   34 1
    10    3   35 1
    11    4    5 1
    12    4   36 1
    13    4   37 1
    14    5    6 1
    15    5    7 1
    16    5   30 1
    17    7    8 1
    18    7   38 1
    19    7   39 1
    20    8    9 2
    21    9   10 1
    22    9   40 1
    23   10   11 1
    24   10   41 1
    25   10   42 1
    26   11   12 1
    27   11   18 1
    28   11   13 1
    29   13   14 1
    30   13   15 1
    31   15   16 1
    32   15   43 1
    33   15   44 1
    34   16   17 1
    35   16   45 1
    36   16   46 1
    37   17   22 1
    38   17   18 1
    39   17   29 1
    40   18   19 1
    41   18   20 1
    42   20   21 1
    43   20   47 1
    44   20   48 1
    45   21   22 2
    46   21   49 1
    47   22   23 1
    48   23   28 ar
    49   23   24 ar
    50   24   25 ar
    51   24   50 1
    52   25   26 ar
    53   25   51 1
    54   26   27 ar
    55   26   52 1
    56   27   28 ar
    57   28   53 1
    58   29   54 1
    59   29   55 1
    60   29   56 1
    61   30   57 1
@<TRIPOS>MOLECULE
ZINC00643138
   65    69     0     0     0
SMALL
USER_CHARGES

@<TRIPOS>ATOM
      1 H1          1.6079    1.9820    1.9526 H         1 <0>         0.0703
      2 C1          1.9730    1.5011    1.0451 C.3       1 <0>         0.1083
      3 C2          2.1165   -0.0071    1.2838 C.3       1 <0>         0.0963
      4 N1          0.7741   -0.5946    1.3963 N.am      1 <0>        -0.6170
      5 C3         -0.1862   -0.3812    0.3044 C.3       1 <0>         0.0857
      6 C4         -0.3297    1.1270    0.0658 C.3       1 <0>         0.1045
      7 N2          1.0127    1.7145   -0.0467 N.pl3     1 <0>        -0.6286
      8 C5          1.3700    2.4640   -1.1731 C.ar      1 <0>         0.1978
      9 C6          0.4180    2.7640   -2.1385 C.ar      1 <0>        -0.1556
     10 C7          0.7714    3.5042   -3.2497 C.ar      1 <0>        -0.0889
     11 C8          2.0767    3.9479   -3.4015 C.ar      1 <0>         0.0597
     12 C9          3.0283    3.6483   -2.4379 C.ar      1 <0>        -0.1602
     13 C10         2.6753    2.9131   -1.3233 C.ar      1 <0>        -0.1639
     14 O1          2.4238    4.6768   -4.4960 O.3       1 <0>        -0.3025
     15 C11         3.7853    5.1010   -4.5878 C.3       1 <0>         0.0716
     16 C12         3.9841    5.9018   -5.8762 C.3       1 <0>         0.0420
     17 H2          3.2697    6.7231   -5.9318 H         1 <0>         0.1182
     18 C13         5.4365    6.4322   -5.9725 C.3       1 <0>         0.0170
     19 O2          5.6082    6.5610   -7.4044 O.3       1 <0>        -0.3351
     20 C14         4.8830    5.4525   -7.9627 C.3       1 <0>         0.2894
     21 O3          3.8680    5.0463   -7.0310 O.3       1 <0>        -0.3428
     22 C15         5.8420    4.2889   -8.2219 C.3       1 <0>         0.0735
     23 N3          6.4757    3.8887   -6.9631 N.pl3     1 <0>        -0.4078
     24 C16         7.6416    4.3862   -6.4467 C.2       1 <0>         0.0277
     25 C17         7.8564    3.7456   -5.2817 C.2       1 <0>         0.0033
     26 N4          6.8490    2.8806   -5.0920 N.pl3     1 <0>        -0.4770
     27 C18         6.0155    2.9645   -6.0927 C.cat     1 <0>         0.2937
     28 C19         4.2377    5.8710   -9.2587 C.ar      1 <0>        -0.1041
     29 C20         4.5460    5.2057  -10.4306 C.ar      1 <0>        -0.0827
     30 C21         3.9547    5.5889  -11.6195 C.ar      1 <0>        -0.1016
     31 C22         3.0531    6.6385  -11.6374 C.ar      1 <0>        -0.0035
     32 C23         2.7439    7.3042  -10.4651 C.ar      1 <0>        -0.1013
     33 C24         3.3326    6.9170   -9.2744 C.ar      1 <0>         0.0199
     34 Cl1         2.9404    7.7480   -7.8016 Cl        1 <0>        -0.0376
     35 Cl2         2.3108    7.1201  -13.1310 Cl        1 <0>        -0.0329
     36 H3         -0.8834    1.3003   -0.8570 H         1 <0>         0.0971
     37 H4         -0.8588    1.5812    0.9035 H         1 <0>         0.0720
     38 H5          0.1789   -0.8621   -0.6031 H         1 <0>         0.0755
     39 H6         -1.1533   -0.8016    0.5805 H         1 <0>         0.1068
     40 C25         0.4300   -1.3165    2.4812 C.2       1 <0>         0.5145
     41 O4          1.2581   -1.5654    3.3316 O.2       1 <0>        -0.5401
     42 C26        -0.9838   -1.8144    2.6375 C.3       1 <0>        -0.1811
     43 H7          2.6456   -0.4613    0.4460 H         1 <0>         0.0694
     44 H8          2.6702   -0.1804    2.2066 H         1 <0>         0.1035
     45 H9          2.9392    1.9241    0.7704 H         1 <0>         0.0931
     46 H10        -0.5984    2.4183   -2.0207 H         1 <0>         0.1344
     47 H11         0.0312    3.7373   -4.0008 H         1 <0>         0.1336
     48 H12         4.0446    3.9939   -2.5571 H         1 <0>         0.1170
     49 H13         3.4153    2.6840   -0.5708 H         1 <0>         0.1270
     50 H14         4.0295    5.7270   -3.7295 H         1 <0>         0.0839
     51 H15         4.4380    4.2281   -4.5982 H         1 <0>         0.0478
     52 H16         5.5321    7.3996   -5.4795 H         1 <0>         0.1310
     53 H17         6.1428    5.7130   -5.5579 H         1 <0>         0.0712
     54 H18         5.2873    3.4457   -8.6335 H         1 <0>         0.1446
     55 H19         6.6084    4.6008   -8.9314 H         1 <0>         0.1499
     56 H20         8.2690    5.1460   -6.8887 H         1 <0>         0.2268
     57 H21         8.6931    3.9010   -4.6168 H         1 <0>         0.2279
     58 H22         5.1093    2.3882   -6.2070 H         1 <0>         0.2603
     59 H23         5.2496    4.3864  -10.4172 H         1 <0>         0.1442
     60 H24         4.1965    5.0692  -12.5349 H         1 <0>         0.1520
     61 H25         2.0403    8.1235  -10.4786 H         1 <0>         0.1548
     62 H26        -1.5536   -1.5784    1.7388 H         1 <0>         0.0829
     63 H27        -0.9742   -2.8938    2.7886 H         1 <0>         0.0983
     64 H28        -1.4461   -1.3311    3.4982 H         1 <0>         0.0992
     65 H29         6.7531    2.2888   -4.3295 H         1 <0>         0.4665
@<TRIPOS>BOND
     1    1    2 1
     2    2    7 1
     3    2    3 1
     4    2   45 1
     5    3    4 1
     6    3   43 1
     7    3   44 1
     8    4    5 1
     9    4   40 am
    10    5    6 1
    11    5   38 1
    12    5   39 1
    13    6    7 1
    14    6   36 1
    15    6   37 1
    16    7    8 1
    17    8   13 ar
    18    8    9 ar
    19    9   10 ar
    20    9   46 1
    21   10   11 ar
    22   10   47 1
    23   11   12 ar
    24   11   14 1
    25   12   13 ar
    26   12   48 1
    27   13   49 1
    28   14   15 1
    29   15   16 1
    30   15   50 1
    31   15   51 1
    32   16   17 1
    33   16   21 1
    34   16   18 1
    35   18   19 1
    36   18   52 1
    37   18   53 1
    38   19   20 1
    39   20   21 1
    40   20   22 1
    41   20   28 1
    42   22   23 1
    43   22   54 1
    44   22   55 1
    45   23   27 1
    46   23   24 1
    47   24   25 2
    48   24   56 1
    49   25   26 1
    50   25   57 1
    51   26   27 2
    52   26   65 1
    53   27   58 1
    54   28   33 ar
    55   28   29 ar
    56   29   30 ar
    57   29   59 1
    58   30   31 ar
    59   30   60 1
    60   31   32 ar
    61   31   35 1
    62   32   33 ar
    63   32   61 1
    64   33   34 1
    65   40   41 2
    66   40   42 1
    67   42   62 1
    68   42   63 1
    69   42   64 1
