@<TRIPOS>MOLECULE
ZINC27638522
   42    41     0     0     0
SMALL
USER_CHARGES
12,12-dibromo-N-methylsulfonyl-dodec-11-enamide
@<TRIPOS>ATOM
      1 C1         -1.1096    2.0196    1.3266 C.3       1 <0>        -0.6881
      2 S1         -0.0172    1.4168    0.0098 S.o2      1 <0>         2.5568
      3 O1          0.0021   -0.0041    0.0020 O.2       1 <0>        -1.0021
      4 O2          1.1953    2.1578    0.0022 O.2       1 <0>        -1.0214
      5 N1         -0.7779    1.8368   -1.3998 N.2       1 <0>        -1.0897
      6 C2         -0.9440    3.1368   -1.7145 C.2       1 <0>         0.5088
      7 O3         -0.5362    3.9989   -0.9653 O.3       1 <0>        -0.6265
      8 C3         -1.6363    3.5190   -2.9974 C.3       1 <0>        -0.1132
      9 C4         -1.6932    5.0437   -3.1115 C.3       1 <0>        -0.1057
     10 C5         -2.3960    5.4318   -4.4139 C.3       1 <0>        -0.1194
     11 C6         -2.4529    6.9564   -4.5280 C.3       1 <0>        -0.1204
     12 C7         -3.1558    7.3445   -5.8304 C.3       1 <0>        -0.1199
     13 C8         -3.2127    8.8692   -5.9445 C.3       1 <0>        -0.1212
     14 C9         -3.9155    9.2573   -7.2469 C.3       1 <0>        -0.1198
     15 C10        -3.9724   10.7820   -7.3610 C.3       1 <0>        -0.1133
     16 C11        -4.6753   11.1700   -8.6635 C.3       1 <0>        -0.1176
     17 C12        -4.7313   12.6718   -8.7759 C.2       1 <0>        -0.0509
     18 C13        -4.2457   13.2689   -9.8391 C.2       1 <0>        -0.1575
     19 Br1        -3.4758   12.2447  -11.2299 Br        1 <0>        -0.0156
     20 Br2        -4.3160   15.1533   -9.9802 Br        1 <0>        -0.0232
     21 H1         -1.1163    3.1196    1.3226 H         1 <0>         0.1158
     22 H2         -0.7448    1.6586    2.2996 H         1 <0>         0.0919
     23 H3         -2.1301    1.6461    1.1561 H         1 <0>         0.1044
     24 H4         -1.0784    3.1079   -3.8516 H         1 <0>         0.0767
     25 H5         -2.6586    3.1129   -2.9975 H         1 <0>         0.0764
     26 H6         -2.2511    5.4547   -2.2572 H         1 <0>         0.0612
     27 H7         -0.6709    5.4498   -3.1114 H         1 <0>         0.0632
     28 H8         -1.8381    5.0207   -5.2682 H         1 <0>         0.0587
     29 H9         -3.4183    5.0257   -4.4140 H         1 <0>         0.0580
     30 H10        -3.0108    7.3674   -3.6737 H         1 <0>         0.0598
     31 H11        -1.4306    7.3625   -4.5279 H         1 <0>         0.0606
     32 H12        -2.5979    6.9334   -6.6847 H         1 <0>         0.0603
     33 H13        -4.1781    6.9384   -5.8305 H         1 <0>         0.0598
     34 H14        -3.7706    9.2802   -5.0902 H         1 <0>         0.0611
     35 H15        -2.1904    9.2753   -5.9444 H         1 <0>         0.0616
     36 H16        -3.3576    8.8462   -8.1012 H         1 <0>         0.0637
     37 H17        -4.9378    8.8512   -7.2470 H         1 <0>         0.0632
     38 H18        -4.5303   11.1930   -6.5067 H         1 <0>         0.0666
     39 H19        -2.9501   11.1881   -7.3609 H         1 <0>         0.0663
     40 H20        -4.1174   10.7589   -9.5177 H         1 <0>         0.0907
     41 H21        -5.6976   10.7639   -8.6636 H         1 <0>         0.0927
     42 H22        -5.1791   13.2676   -7.9669 H         1 <0>         0.1469
@<TRIPOS>BOND
     1    1    2 1
     2    1   21 1
     3    1   22 1
     4    1   23 1
     5    2    3 2
     6    2    4 2
     7    2    5 1
     8    5    6 2
     9    6    7 1
    10    6    8 1
    11    8    9 1
    12    8   24 1
    13    8   25 1
    14    9   10 1
    15    9   26 1
    16    9   27 1
    17   10   11 1
    18   10   28 1
    19   10   29 1
    20   11   12 1
    21   11   30 1
    22   11   31 1
    23   12   13 1
    24   12   32 1
    25   12   33 1
    26   13   14 1
    27   13   34 1
    28   13   35 1
    29   14   15 1
    30   14   36 1
    31   14   37 1
    32   15   16 1
    33   15   38 1
    34   15   39 1
    35   16   17 1
    36   16   40 1
    37   16   41 1
    38   17   18 2
    39   17   42 1
    40   18   19 1
    41   18   20 1
@<TRIPOS>MOLECULE
ZINC38337299
   33    33     0     0     0
SMALL
USER_CHARGES

@<TRIPOS>ATOM
      1 C1          0.0044    1.5160    0.0332 C.3       1 <0>        -0.1544
      2 C2          0.0137   -0.0139    0.0153 C.3       1 <0>        -0.1260
      3 C3          0.7299   -0.5048   -1.2445 C.3       1 <0>        -0.1144
      4 C4          0.7392   -2.0347   -1.2624 C.3       1 <0>        -0.0778
      5 C5          1.4446   -2.5182   -2.5032 C.ar      1 <0>        -0.1116
      6 C6          0.7265   -2.7335   -3.6655 C.ar      1 <0>        -0.0800
      7 C7          1.3698   -3.1761   -4.8044 C.ar      1 <0>        -0.1700
      8 C8          2.7399   -3.4052   -4.7818 C.ar      1 <0>         0.1715
      9 C9          3.4580   -3.1879   -3.6129 C.ar      1 <0>        -0.1309
     10 C10         2.8091   -2.7401   -2.4788 C.ar      1 <0>        -0.0773
     11 C11         4.9443   -3.4350   -3.5838 C.3       1 <0>        -0.1141
     12 N1          3.3942   -3.8537   -5.9328 N.pl3     1 <0>        -0.6759
     13 C12         2.6658   -4.1822   -7.0558 C.2       1 <0>         0.3353
     14 N2          3.2593   -4.6897   -8.0851 N.2       1 <0>        -0.4051
     15 O1          4.6374   -5.0089   -8.0218 O.3       1 <0>        -0.4261
     16 H1          1.0298    1.8856    0.0309 H         1 <0>         0.0534
     17 H2         -0.5175    1.8865   -0.8491 H         1 <0>         0.0536
     18 H3         -0.5058    1.8657    0.9307 H         1 <0>         0.0538
     19 H4          0.5355   -0.3844    0.8976 H         1 <0>         0.0613
     20 H5         -1.0117   -0.3835    0.0177 H         1 <0>         0.0615
     21 H6          0.2080   -0.1343   -2.1268 H         1 <0>         0.0629
     22 H7          1.7553   -0.1352   -1.2468 H         1 <0>         0.0623
     23 H8          1.2610   -2.4052   -0.3801 H         1 <0>         0.0705
     24 H9         -0.2862   -2.4043   -1.2600 H         1 <0>         0.0712
     25 H10        -0.3386   -2.5556   -3.6823 H         1 <0>         0.1261
     26 H11         0.8084   -3.3444   -5.7115 H         1 <0>         0.1259
     27 H12         3.3675   -2.5671   -1.5707 H         1 <0>         0.1251
     28 H13         5.4700   -2.5211   -3.8605 H         1 <0>         0.0707
     29 H14         5.2429   -3.7361   -2.5796 H         1 <0>         0.0728
     30 H15         5.1950   -4.2264   -4.2901 H         1 <0>         0.0604
     31 H16         4.3609   -3.9337   -5.9411 H         1 <0>         0.4162
     32 H17         1.5989   -4.0152   -7.0754 H         1 <0>         0.2044
     33 H18         4.9749   -5.4530   -8.8117 H         1 <0>         0.4045
@<TRIPOS>BOND
     1    1    2 1
     2    1   16 1
     3    1   17 1
     4    1   18 1
     5    2    3 1
     6    2   19 1
     7    2   20 1
     8    3    4 1
     9    3   21 1
    10    3   22 1
    11    4    5 1
    12    4   23 1
    13    4   24 1
    14    5   10 ar
    15    5    6 ar
    16    6    7 ar
    17    6   25 1
    18    7    8 ar
    19    7   26 1
    20    8    9 ar
    21    8   12 1
    22    9   10 ar
    23    9   11 1
    24   10   27 1
    25   11   28 1
    26   11   29 1
    27   11   30 1
    28   12   13 1
    29   12   31 1
    30   13   14 2
    31   13   32 1
    32   14   15 1
    33   15   33 1
@<TRIPOS>MOLECULE
ZINC00998178
   31    33     0     0     0
SMALL
USER_CHARGES
(4-imidazol-1-ylphenyl)-phenyl-methanone
@<TRIPOS>ATOM
      1 C1         -0.7681    2.4638    2.3437 C.ar      1 <0>        -0.0856
      2 C2         -0.9253    1.3433    1.5470 C.ar      1 <0>        -0.1302
      3 C3          0.1267    0.8837    0.7825 C.ar      1 <0>        -0.0596
      4 C4          1.3492    1.5587    0.8050 C.ar      1 <0>        -0.1650
      5 C5          1.4991    2.6922    1.6070 C.ar      1 <0>        -0.0836
      6 C6          0.4404    3.1375    2.3708 C.ar      1 <0>        -0.1316
      7 C7          2.4788    1.0760   -0.0164 C.2       1 <0>         0.4404
      8 O1          2.3927    0.0160   -0.6056 O.2       1 <0>        -0.4413
      9 C8          3.7112    1.8804   -0.1215 C.ar      1 <0>        -0.1644
     10 C9          3.6399    3.2768   -0.1109 C.ar      1 <0>        -0.0555
     11 C10         4.7925    4.0238   -0.2048 C.ar      1 <0>        -0.1428
     12 C11         6.0259    3.3913   -0.3198 C.ar      1 <0>         0.1653
     13 C12         6.1006    2.0025   -0.3360 C.ar      1 <0>        -0.1424
     14 C13         4.9531    1.2483   -0.2377 C.ar      1 <0>        -0.0349
     15 N1          7.1937    4.1535   -0.4199 N.pl3     1 <0>        -0.4173
     16 C14         7.2762    5.5227   -0.4235 C.2       1 <0>        -0.0540
     17 C15         8.5811    5.8343   -0.5345 C.2       1 <0>        -0.0170
     18 N2          9.2806    4.6917   -0.6054 N.2       1 <0>        -0.4809
     19 C16         8.4616    3.6781   -0.5379 C.2       1 <0>         0.1932
     20 H1         -1.5938    2.8168    2.9438 H         1 <0>         0.1295
     21 H2         -1.8726    0.8250    1.5271 H         1 <0>         0.1317
     22 H3          0.0041    0.0064    0.1646 H         1 <0>         0.1352
     23 H4          2.4416    3.2191    1.6288 H         1 <0>         0.1377
     24 H5          0.5550    4.0137    2.9917 H         1 <0>         0.1311
     25 H6          2.6822    3.7687   -0.0258 H         1 <0>         0.1470
     26 H7          4.7386    5.1024   -0.1929 H         1 <0>         0.1399
     27 H8          7.0602    1.5151   -0.4255 H         1 <0>         0.1410
     28 H9          5.0120    0.1700   -0.2500 H         1 <0>         0.1442
     29 H10         6.4526    6.2174   -0.3492 H         1 <0>         0.1807
     30 H11         8.9935    6.8320   -0.5650 H         1 <0>         0.1777
     31 H12         8.7438    2.6361   -0.5708 H         1 <0>         0.2113
@<TRIPOS>BOND
     1    1    6 ar
     2    1    2 ar
     3    1   20 1
     4    2    3 ar
     5    2   21 1
     6    3    4 ar
     7    3   22 1
     8    4    5 ar
     9    4    7 1
    10    5    6 ar
    11    5   23 1
    12    6   24 1
    13    7    8 2
    14    7    9 1
    15    9   14 ar
    16    9   10 ar
    17   10   11 ar
    18   10   25 1
    19   11   12 ar
    20   11   26 1
    21   12   13 ar
    22   12   15 1
    23   13   14 ar
    24   13   27 1
    25   14   28 1
    26   15   19 1
    27   15   16 1
    28   16   17 2
    29   16   29 1
    30   17   18 1
    31   17   30 1
    32   18   19 2
    33   19   31 1
