@<TRIPOS>MOLECULE
ZINC05826864
   49    48     0     0     0
SMALL
USER_CHARGES
(12R)-12-hydroxyheptadec-16-ynoic acid
@<TRIPOS>ATOM
      1 C1         -5.2969    0.3834   -2.6198 C.1       1 <0>        -0.2120
      2 C2         -4.2274    0.8659   -2.5780 C.1       1 <0>        -0.1882
      3 C3         -2.8865    1.4708   -2.5256 C.3       1 <0>        -0.0146
      4 C4         -2.1465    0.9639   -1.2860 C.3       1 <0>        -0.1113
      5 C5         -0.7527    1.5927   -1.2315 C.3       1 <0>        -0.1529
      6 C6         -0.0127    1.0858    0.0080 C.3       1 <0>         0.1048
      7 H1          0.0021   -0.0041    0.0020 H         1 <0>         0.0976
      8 C7          1.4227    1.6154   -0.0028 C.3       1 <0>        -0.1520
      9 C8          2.1988    1.0094    1.1682 C.3       1 <0>        -0.1165
     10 C9          3.6341    1.5389    1.1573 C.3       1 <0>        -0.1202
     11 C10         4.4102    0.9329    2.3284 C.3       1 <0>        -0.1199
     12 C11         5.8456    1.4625    2.3175 C.3       1 <0>        -0.1202
     13 C12         6.6217    0.8564    3.4885 C.3       1 <0>        -0.1195
     14 C13         8.0571    1.3860    3.4777 C.3       1 <0>        -0.1193
     15 C14         8.8331    0.7800    4.6487 C.3       1 <0>        -0.1200
     16 C15        10.2685    1.3095    4.6378 C.3       1 <0>        -0.0988
     17 C16        11.0446    0.7035    5.8089 C.3       1 <0>        -0.1582
     18 C17        12.4584    1.2251    5.7982 C.2       1 <0>         0.4568
     19 O1         12.8093    2.0019    4.9418 O.co2     1 <0>        -0.6427
     20 O2         -0.6816    1.5467    1.1837 O.3       1 <0>        -0.5599
     21 H2         -6.2534   -0.0481   -2.6573 H         1 <0>         0.2164
     22 H3         -2.9790    2.5557   -2.4752 H         1 <0>         0.0851
     23 H4         -2.3282    1.1949   -3.4202 H         1 <0>         0.0851
     24 H5         -2.0540   -0.1210   -1.3364 H         1 <0>         0.0655
     25 H6         -2.7048    1.2398   -0.3914 H         1 <0>         0.0728
     26 H7         -0.8452    2.6775   -1.1811 H         1 <0>         0.0679
     27 H8         -0.1944    1.3168   -2.1261 H         1 <0>         0.0739
     28 H9          1.9050    1.3387   -0.9404 H         1 <0>         0.0707
     29 H10         1.4101    2.7011    0.0927 H         1 <0>         0.0649
     30 H11         1.7165    1.2860    2.1057 H         1 <0>         0.0676
     31 H12         2.2113   -0.0764    1.0727 H         1 <0>         0.0599
     32 H13         4.1164    1.2622    0.2198 H         1 <0>         0.0592
     33 H14         3.6216    2.6247    1.2528 H         1 <0>         0.0594
     34 H15         3.9279    1.2096    3.2659 H         1 <0>         0.0603
     35 H16         4.4228   -0.1528    2.2328 H         1 <0>         0.0597
     36 H17         6.3279    1.1858    1.3800 H         1 <0>         0.0596
     37 H18         5.8330    2.5482    2.4130 H         1 <0>         0.0597
     38 H19         6.1394    1.1331    4.4260 H         1 <0>         0.0589
     39 H20         6.6342   -0.2293    3.3930 H         1 <0>         0.0588
     40 H21         8.5393    1.1093    2.5401 H         1 <0>         0.0594
     41 H22         8.0445    2.4717    3.5732 H         1 <0>         0.0594
     42 H23         8.3509    1.0567    5.5862 H         1 <0>         0.0555
     43 H24         8.8457   -0.3058    4.5532 H         1 <0>         0.0554
     44 H25        10.7508    1.0329    3.7003 H         1 <0>         0.0583
     45 H26        10.2559    2.3953    4.7334 H         1 <0>         0.0583
     46 H27        10.5623    0.9802    6.7464 H         1 <0>         0.0613
     47 H28        11.0572   -0.3822    5.7133 H         1 <0>         0.0612
     48 H29        -0.7322    2.5097    1.2555 H         1 <0>         0.3728
     49 O3         13.3279    0.8268    6.7400 O.co2     1 <0>        -0.7800
@<TRIPOS>BOND
     1    1    2 3
     2    1   21 1
     3    2    3 1
     4    3    4 1
     5    3   22 1
     6    3   23 1
     7    4    5 1
     8    4   24 1
     9    4   25 1
    10    5    6 1
    11    5   26 1
    12    5   27 1
    13    6    7 1
    14    6    8 1
    15    6   20 1
    16    8    9 1
    17    8   28 1
    18    8   29 1
    19    9   10 1
    20    9   30 1
    21    9   31 1
    22   10   11 1
    23   10   32 1
    24   10   33 1
    25   11   12 1
    26   11   34 1
    27   11   35 1
    28   12   13 1
    29   12   36 1
    30   12   37 1
    31   13   14 1
    32   13   38 1
    33   13   39 1
    34   14   15 1
    35   14   40 1
    36   14   41 1
    37   15   16 1
    38   15   42 1
    39   15   43 1
    40   16   17 1
    41   16   44 1
    42   16   45 1
    43   17   18 1
    44   17   46 1
    45   17   47 1
    46   18   19 2
    47   18   49 1
    48   20   48 1
@<TRIPOS>MOLECULE
ZINC05826865
   49    48     0     0     0
SMALL
USER_CHARGES
(12S)-12-hydroxyheptadec-16-ynoic acid
@<TRIPOS>ATOM
      1 C1          2.4637    2.4416   -0.0084 C.1       1 <0>        -0.2120
      2 C2          1.3623    2.0353   -0.0000 C.1       1 <0>        -0.1882
      3 C3         -0.0187    1.5258    0.0104 C.3       1 <0>        -0.0146
      4 C4          0.0021   -0.0041    0.0020 C.3       1 <0>        -0.1113
      5 C5         -1.4333   -0.5336    0.0129 C.3       1 <0>        -0.1529
      6 C6         -1.4126   -2.0635    0.0045 C.3       1 <0>         0.1048
      7 H1         -0.8263   -2.4142   -0.8449 H         1 <0>         0.0976
      8 C7         -2.8437   -2.5923   -0.1104 C.3       1 <0>        -0.1519
      9 C8         -2.8150   -4.1162   -0.2443 C.3       1 <0>        -0.1165
     10 C9         -4.2461   -4.6450   -0.3592 C.3       1 <0>        -0.1202
     11 C10        -4.2175   -6.1689   -0.4931 C.3       1 <0>        -0.1199
     12 C11        -5.6486   -6.6977   -0.6080 C.3       1 <0>        -0.1203
     13 C12        -5.6200   -8.2216   -0.7419 C.3       1 <0>        -0.1195
     14 C13        -7.0511   -8.7504   -0.8568 C.3       1 <0>        -0.1193
     15 C14        -7.0225  -10.2743   -0.9906 C.3       1 <0>        -0.1200
     16 C15        -8.4536  -10.8031   -1.1055 C.3       1 <0>        -0.0988
     17 C16        -8.4250  -12.3270   -1.2394 C.3       1 <0>        -0.1582
     18 C17        -9.8345  -12.8478   -1.3526 C.2       1 <0>         0.4568
     19 O1        -10.7664  -12.0791   -1.3286 O.co2     1 <0>        -0.6427
     20 O2         -0.8251   -2.5386    1.2174 O.3       1 <0>        -0.5599
     21 H2          3.4488    2.8051   -0.0158 H         1 <0>         0.2164
     22 H3         -0.5459    1.8868   -0.8726 H         1 <0>         0.0851
     23 H4         -0.5289    1.8773    0.9072 H         1 <0>         0.0851
     24 H5          0.5123   -0.3556   -0.8948 H         1 <0>         0.0655
     25 H6          0.5293   -0.3651    0.8851 H         1 <0>         0.0728
     26 H7         -1.9435   -0.1821    0.9097 H         1 <0>         0.0679
     27 H8         -1.9605   -0.1726   -0.8702 H         1 <0>         0.0739
     28 H9         -3.4057   -2.3165    0.7818 H         1 <0>         0.0649
     29 H10        -3.3216   -2.1593   -0.9892 H         1 <0>         0.0707
     30 H11        -2.2530   -4.3920   -1.1366 H         1 <0>         0.0599
     31 H12        -2.3371   -4.5492    0.6344 H         1 <0>         0.0676
     32 H13        -4.8082   -4.3692    0.5330 H         1 <0>         0.0594
     33 H14        -4.7240   -4.2120   -1.2380 H         1 <0>         0.0592
     34 H15        -3.6555   -6.4447   -1.3853 H         1 <0>         0.0597
     35 H16        -3.7396   -6.6019    0.3857 H         1 <0>         0.0602
     36 H17        -6.2106   -6.4218    0.2843 H         1 <0>         0.0597
     37 H18        -6.1265   -6.2647   -1.4867 H         1 <0>         0.0596
     38 H19        -5.0580   -8.4974   -1.6341 H         1 <0>         0.0588
     39 H20        -5.1421   -8.6546    0.1369 H         1 <0>         0.0589
     40 H21        -7.6131   -8.4745    0.0355 H         1 <0>         0.0594
     41 H22        -7.5290   -8.3174   -1.7355 H         1 <0>         0.0594
     42 H23        -6.4605  -10.5501   -1.8829 H         1 <0>         0.0554
     43 H24        -6.5446  -10.7073   -0.1119 H         1 <0>         0.0555
     44 H25        -9.0156  -10.5272   -0.2133 H         1 <0>         0.0583
     45 H26        -8.9315  -10.3701   -1.9843 H         1 <0>         0.0583
     46 H27        -7.8629  -12.6028   -2.1317 H         1 <0>         0.0612
     47 H28        -7.9471  -12.7600   -0.3606 H         1 <0>         0.0613
     48 H29        -1.2958   -2.2640    2.0163 H         1 <0>         0.3728
     49 O3        -10.0548  -14.1658   -1.4800 O.co2     1 <0>        -0.7801
@<TRIPOS>BOND
     1    1    2 3
     2    1   21 1
     3    2    3 1
     4    3    4 1
     5    3   22 1
     6    3   23 1
     7    4    5 1
     8    4   24 1
     9    4   25 1
    10    5    6 1
    11    5   26 1
    12    5   27 1
    13    6    7 1
    14    6    8 1
    15    6   20 1
    16    8    9 1
    17    8   28 1
    18    8   29 1
    19    9   10 1
    20    9   30 1
    21    9   31 1
    22   10   11 1
    23   10   32 1
    24   10   33 1
    25   11   12 1
    26   11   34 1
    27   11   35 1
    28   12   13 1
    29   12   36 1
    30   12   37 1
    31   13   14 1
    32   13   38 1
    33   13   39 1
    34   14   15 1
    35   14   40 1
    36   14   41 1
    37   15   16 1
    38   15   42 1
    39   15   43 1
    40   16   17 1
    41   16   44 1
    42   16   45 1
    43   17   18 1
    44   17   46 1
    45   17   47 1
    46   18   19 2
    47   18   49 1
    48   20   48 1
