@<TRIPOS>MOLECULE
ZINC13588744
   47    48     0     0     0
SMALL
USER_CHARGES
6-(4-imidazol-1-ylphenoxy)-N,N-dimethyl-hexan-1-amine
@<TRIPOS>ATOM
      1 C1          2.0022  -15.3091   -0.3321 C.3       1 <0>        -0.0430
      2 C2          0.6123  -14.0258    1.1792 C.3       1 <0>        -0.0468
      3 C3          2.3606  -12.9273   -0.0855 C.3       1 <0>        -0.0072
      4 C4          1.6438  -11.5756   -0.0719 C.3       1 <0>        -0.1510
      5 C5          2.6792  -10.4492   -0.0762 C.3       1 <0>        -0.1171
      6 C6          1.9624   -9.0976   -0.0626 C.3       1 <0>        -0.1178
      7 C7          2.9978   -7.9711   -0.0670 C.3       1 <0>        -0.1214
      8 C8          2.2810   -6.6195   -0.0534 C.3       1 <0>         0.0567
      9 O1          3.2481   -5.5674   -0.0574 O.3       1 <0>        -0.3117
     10 C9          2.7740   -4.2933   -0.0465 C.ar      1 <0>         0.1227
     11 C10         3.6583   -3.2243   -0.0497 C.ar      1 <0>        -0.1206
     12 C11         3.1773   -1.9301   -0.0386 C.ar      1 <0>        -0.0910
     13 C12         1.8087   -1.6987   -0.0243 C.ar      1 <0>         0.1010
     14 C13         0.9243   -2.7686   -0.0158 C.ar      1 <0>        -0.0910
     15 C14         1.4061   -4.0625   -0.0318 C.ar      1 <0>        -0.1819
     16 N1          1.3192   -0.3832   -0.0126 N.pl3     1 <0>        -0.4105
     17 C15         0.0021   -0.0041    0.0020 C.2       1 <0>        -0.0585
     18 C16        -0.0162    1.3425    0.0094 C.2       1 <0>        -0.0176
     19 N2          1.2521    1.7784   -0.0003 N.2       1 <0>        -0.4821
     20 C17         2.0612    0.7541   -0.0136 C.2       1 <0>         0.1879
     21 H1          2.7394  -15.5091    0.4455 H         1 <0>         0.1230
     22 H2          1.2437  -16.0920   -0.3236 H         1 <0>         0.1227
     23 H3          2.4950  -15.2912   -1.3041 H         1 <0>         0.1216
     24 H4          0.0948  -13.0749    1.3059 H         1 <0>         0.1217
     25 H5         -0.1166  -14.8358    1.1556 H         1 <0>         0.1226
     26 H6          1.2992  -14.1793    2.0115 H         1 <0>         0.1233
     27 H7          2.9762  -13.0031   -0.9818 H         1 <0>         0.1294
     28 H8          2.9933  -13.0119    0.7980 H         1 <0>         0.1311
     29 H9          1.0282  -11.4998    0.8244 H         1 <0>         0.0874
     30 H10         1.0111  -11.4910   -0.9554 H         1 <0>         0.0870
     31 H11         3.2948  -10.5250   -0.9726 H         1 <0>         0.0768
     32 H12         3.3119  -10.5338    0.8073 H         1 <0>         0.0766
     33 H13         1.3468   -9.0218    0.8337 H         1 <0>         0.0702
     34 H14         1.3297   -9.0129   -0.9461 H         1 <0>         0.0705
     35 H15         3.6134   -8.0469   -0.9633 H         1 <0>         0.0780
     36 H16         3.6305   -8.0558    0.8166 H         1 <0>         0.0779
     37 H17         1.6654   -6.5437    0.8430 H         1 <0>         0.0639
     38 H18         1.6483   -6.5348   -0.9369 H         1 <0>         0.0640
     39 H19         4.7231   -3.4045   -0.0612 H         1 <0>         0.1442
     40 H20         3.8657   -1.0980   -0.0408 H         1 <0>         0.1423
     41 H21        -0.1406   -2.5889   -0.0005 H         1 <0>         0.1353
     42 H22         0.7181   -4.8949   -0.0289 H         1 <0>         0.1361
     43 H23        -0.8563   -0.6594    0.0070 H         1 <0>         0.1772
     44 H24        -0.8995    1.9639    0.0172 H         1 <0>         0.1765
     45 H25         3.1401    0.8030   -0.0233 H         1 <0>         0.2095
     46 N3          1.3479  -14.0038   -0.1027 N.4       1 <0>        -0.3989
     47 H26         0.6839  -13.8249   -0.8652 H         1 <0>         0.4309
@<TRIPOS>BOND
     1    1   21 1
     2    1   22 1
     3    1   23 1
     4    1   46 1
     5    2   24 1
     6    2   25 1
     7    2   26 1
     8    2   46 1
     9    3    4 1
    10    3   27 1
    11    3   28 1
    12    3   46 1
    13    4    5 1
    14    4   29 1
    15    4   30 1
    16    5    6 1
    17    5   31 1
    18    5   32 1
    19    6    7 1
    20    6   33 1
    21    6   34 1
    22    7    8 1
    23    7   35 1
    24    7   36 1
    25    8    9 1
    26    8   37 1
    27    8   38 1
    28    9   10 1
    29   10   15 ar
    30   10   11 ar
    31   11   12 ar
    32   11   39 1
    33   12   13 ar
    34   12   40 1
    35   13   14 ar
    36   13   16 1
    37   14   15 ar
    38   14   41 1
    39   15   42 1
    40   16   20 1
    41   16   17 1
    42   17   18 2
    43   17   43 1
    44   18   19 1
    45   18   44 1
    46   19   20 2
    47   20   45 1
    48   46   47 1
@<TRIPOS>MOLECULE
ZINC38337299
   33    33     0     0     0
SMALL
USER_CHARGES

@<TRIPOS>ATOM
      1 C1          0.0044    1.5160    0.0332 C.3       1 <0>        -0.1544
      2 C2          0.0137   -0.0139    0.0153 C.3       1 <0>        -0.1260
      3 C3          0.7299   -0.5048   -1.2445 C.3       1 <0>        -0.1144
      4 C4          0.7392   -2.0347   -1.2624 C.3       1 <0>        -0.0778
      5 C5          1.4446   -2.5182   -2.5032 C.ar      1 <0>        -0.1116
      6 C6          0.7265   -2.7335   -3.6655 C.ar      1 <0>        -0.0800
      7 C7          1.3698   -3.1761   -4.8044 C.ar      1 <0>        -0.1700
      8 C8          2.7399   -3.4052   -4.7818 C.ar      1 <0>         0.1715
      9 C9          3.4580   -3.1879   -3.6129 C.ar      1 <0>        -0.1309
     10 C10         2.8091   -2.7401   -2.4788 C.ar      1 <0>        -0.0773
     11 C11         4.9443   -3.4350   -3.5838 C.3       1 <0>        -0.1141
     12 N1          3.3942   -3.8537   -5.9328 N.pl3     1 <0>        -0.6759
     13 C12         2.6658   -4.1822   -7.0558 C.2       1 <0>         0.3353
     14 N2          3.2593   -4.6897   -8.0851 N.2       1 <0>        -0.4051
     15 O1          4.6374   -5.0089   -8.0218 O.3       1 <0>        -0.4261
     16 H1          1.0298    1.8856    0.0309 H         1 <0>         0.0534
     17 H2         -0.5175    1.8865   -0.8491 H         1 <0>         0.0536
     18 H3         -0.5058    1.8657    0.9307 H         1 <0>         0.0538
     19 H4          0.5355   -0.3844    0.8976 H         1 <0>         0.0613
     20 H5         -1.0117   -0.3835    0.0177 H         1 <0>         0.0615
     21 H6          0.2080   -0.1343   -2.1268 H         1 <0>         0.0629
     22 H7          1.7553   -0.1352   -1.2468 H         1 <0>         0.0623
     23 H8          1.2610   -2.4052   -0.3801 H         1 <0>         0.0705
     24 H9         -0.2862   -2.4043   -1.2600 H         1 <0>         0.0712
     25 H10        -0.3386   -2.5556   -3.6823 H         1 <0>         0.1261
     26 H11         0.8084   -3.3444   -5.7115 H         1 <0>         0.1259
     27 H12         3.3675   -2.5671   -1.5707 H         1 <0>         0.1251
     28 H13         5.4700   -2.5211   -3.8605 H         1 <0>         0.0707
     29 H14         5.2429   -3.7361   -2.5796 H         1 <0>         0.0728
     30 H15         5.1950   -4.2264   -4.2901 H         1 <0>         0.0604
     31 H16         4.3609   -3.9337   -5.9411 H         1 <0>         0.4162
     32 H17         1.5989   -4.0152   -7.0754 H         1 <0>         0.2044
     33 H18         4.9749   -5.4530   -8.8117 H         1 <0>         0.4045
@<TRIPOS>BOND
     1    1    2 1
     2    1   16 1
     3    1   17 1
     4    1   18 1
     5    2    3 1
     6    2   19 1
     7    2   20 1
     8    3    4 1
     9    3   21 1
    10    3   22 1
    11    4    5 1
    12    4   23 1
    13    4   24 1
    14    5   10 ar
    15    5    6 ar
    16    6    7 ar
    17    6   25 1
    18    7    8 ar
    19    7   26 1
    20    8    9 ar
    21    8   12 1
    22    9   10 ar
    23    9   11 1
    24   10   27 1
    25   11   28 1
    26   11   29 1
    27   11   30 1
    28   12   13 1
    29   12   31 1
    30   13   14 2
    31   13   32 1
    32   14   15 1
    33   15   33 1
