@<TRIPOS>MOLECULE
ZINC13580716
   19    20     0     0     0
SMALL
USER_CHARGES
1-(cyclopropylmethyl)imidazole
@<TRIPOS>ATOM
      1 C1          5.5176   -0.2366    0.5185 C.2       1 <0>        -0.0298
      2 C2          4.5841    0.7295    0.6131 C.2       1 <0>        -0.0580
      3 N1          3.4306    0.1256    1.0355 N.pl3     1 <0>        -0.4578
      4 C3          3.7011   -1.1884    1.1899 C.2       1 <0>         0.1836
      5 N2          4.9495   -1.3987    0.8733 N.2       1 <0>        -0.4965
      6 C4          2.1445    0.7830    1.2803 C.3       1 <0>         0.1362
      7 C5          1.3165    0.7789   -0.0063 C.3       1 <0>        -0.1802
      8 C6         -0.0187    1.5258    0.0104 C.3       1 <0>        -0.1684
      9 C7          0.0021   -0.0041    0.0020 C.3       1 <0>        -0.1742
     10 H1          6.5437   -0.0997    0.2108 H         1 <0>         0.1696
     11 H2          4.7195    1.7789    0.3968 H         1 <0>         0.1733
     12 H3          2.9996   -1.9411    1.5184 H         1 <0>         0.2029
     13 H4          2.3168    1.8113    1.5981 H         1 <0>         0.0963
     14 H5          1.6052    0.2469    2.0611 H         1 <0>         0.0958
     15 H6          1.8888    0.7918   -0.9339 H         1 <0>         0.1110
     16 H7         -0.3248    2.0300   -0.9061 H         1 <0>         0.1001
     17 H8         -0.3072    2.0201    0.9381 H         1 <0>         0.0993
     18 H9         -0.2728   -0.5162    0.9241 H         1 <0>         0.0987
     19 H10        -0.2908   -0.5063   -0.9200 H         1 <0>         0.0983
@<TRIPOS>BOND
     1    1    5 1
     2    1    2 2
     3    1   10 1
     4    2    3 1
     5    2   11 1
     6    3    4 1
     7    3    6 1
     8    4    5 2
     9    4   12 1
    10    6    7 1
    11    6   13 1
    12    6   14 1
    13    7    9 1
    14    7    8 1
    15    7   15 1
    16    8    9 1
    17    8   16 1
    18    8   17 1
    19    9   18 1
    20    9   19 1
@<TRIPOS>MOLECULE
ZINC13580716
   20    21     0     0     0
SMALL
USER_CHARGES
1-(cyclopropylmethyl)imidazole
@<TRIPOS>ATOM
      1 C1          5.5176   -0.2366    0.5185 C.2       1 <0>         0.0037
      2 C2          4.5841    0.7295    0.6131 C.2       1 <0>         0.0232
      3 N1          3.4306    0.1256    1.0355 N.pl3     1 <0>        -0.4066
      4 C3          3.7011   -1.1884    1.1899 C.cat     1 <0>         0.2893
      5 C4          2.1445    0.7830    1.2803 C.3       1 <0>         0.1256
      6 C5          1.3165    0.7789   -0.0063 C.3       1 <0>        -0.2016
      7 C6         -0.0187    1.5258    0.0104 C.3       1 <0>        -0.1543
      8 C7          0.0021   -0.0041    0.0020 C.3       1 <0>        -0.1712
      9 H1          6.5437   -0.0997    0.2108 H         1 <0>         0.2229
     10 H2          4.7195    1.7789    0.3968 H         1 <0>         0.2215
     11 H3          2.9996   -1.9411    1.5184 H         1 <0>         0.2578
     12 H4          2.3168    1.8113    1.5981 H         1 <0>         0.1269
     13 H5          1.6052    0.2469    2.0611 H         1 <0>         0.1214
     14 H6          1.8888    0.7918   -0.9339 H         1 <0>         0.1176
     15 H7         -0.3248    2.0300   -0.9061 H         1 <0>         0.1096
     16 H8         -0.3072    2.0201    0.9381 H         1 <0>         0.1070
     17 H9         -0.2728   -0.5162    0.9241 H         1 <0>         0.1043
     18 H10        -0.2908   -0.5063   -0.9200 H         1 <0>         0.1058
     19 N2          4.9489   -1.3975    0.8733 N.pl3     1 <0>        -0.4845
     20 H11         5.4216   -2.3087    0.8927 H         1 <0>         0.4814
@<TRIPOS>BOND
     1    1    2 2
     2    1    9 1
     3    1   19 1
     4    2    3 1
     5    2   10 1
     6    3    4 1
     7    3    5 1
     8    4   11 1
     9    4   19 2
    10    5    6 1
    11    5   12 1
    12    5   13 1
    13    6    8 1
    14    6    7 1
    15    6   14 1
    16    7    8 1
    17    7   15 1
    18    7   16 1
    19    8   17 1
    20    8   18 1
    21   19   20 1
@<TRIPOS>MOLECULE
ZINC13580720
   28    29     0     0     0
SMALL
USER_CHARGES
1-(cyclohexylmethyl)imidazole
@<TRIPOS>ATOM
      1 C1          2.7309   -3.1671   -4.0456 C.2       1 <0>        -0.0313
      2 C2          2.6408   -2.7524   -2.7675 C.2       1 <0>        -0.0549
      3 N1          1.3173   -2.5009   -2.5251 N.pl3     1 <0>        -0.4560
      4 C3          0.6435   -2.7765   -3.6626 C.2       1 <0>         0.1797
      5 N2          1.4961   -3.1688   -4.5693 N.2       1 <0>        -0.4958
      6 C4          0.7390   -2.0273   -1.2652 C.3       1 <0>         0.1063
      7 C5          0.7182   -0.4975   -1.2568 C.3       1 <0>        -0.1023
      8 C6          0.0021   -0.0041    0.0020 C.3       1 <0>        -0.1124
      9 C7         -0.0187    1.5258    0.0104 C.3       1 <0>        -0.1192
     10 C8          1.4167    2.0553   -0.0004 C.3       1 <0>        -0.1217
     11 C9          2.1328    1.5619   -1.2592 C.3       1 <0>        -0.1190
     12 C10         2.1536    0.0321   -1.2676 C.3       1 <0>        -0.1172
     13 H1          3.6383   -3.4490   -4.5589 H         1 <0>         0.1682
     14 H2          3.4561   -2.6394   -2.0684 H         1 <0>         0.1713
     15 H3         -0.4238   -2.6848   -3.7998 H         1 <0>         0.2020
     16 H4          1.3413   -2.3871   -0.4310 H         1 <0>         0.0918
     17 H5         -0.2789   -2.4050   -1.1679 H         1 <0>         0.0945
     18 H6          0.1910   -0.1364   -2.1398 H         1 <0>         0.0783
     19 H7          0.5293   -0.3651    0.8851 H         1 <0>         0.0661
     20 H8         -1.0205   -0.3814    0.0098 H         1 <0>         0.0660
     21 H9         -0.5459    1.8868   -0.8726 H         1 <0>         0.0626
     22 H10        -0.5289    1.8773    0.9072 H         1 <0>         0.0651
     23 H11         1.4019    3.1452    0.0056 H         1 <0>         0.0626
     24 H12         1.9439    1.6943    0.8826 H         1 <0>         0.0620
     25 H13         3.1554    1.9392   -1.2670 H         1 <0>         0.0633
     26 H14         1.6057    1.9230   -2.1423 H         1 <0>         0.0612
     27 H15         2.6808   -0.3290   -0.3846 H         1 <0>         0.0628
     28 H16         2.6638   -0.3194   -2.1644 H         1 <0>         0.0660
@<TRIPOS>BOND
     1    1    5 1
     2    1    2 2
     3    1   13 1
     4    2    3 1
     5    2   14 1
     6    3    4 1
     7    3    6 1
     8    4    5 2
     9    4   15 1
    10    6    7 1
    11    6   16 1
    12    6   17 1
    13    7   12 1
    14    7    8 1
    15    7   18 1
    16    8    9 1
    17    8   19 1
    18    8   20 1
    19    9   10 1
    20    9   21 1
    21    9   22 1
    22   10   11 1
    23   10   23 1
    24   10   24 1
    25   11   12 1
    26   11   25 1
    27   11   26 1
    28   12   27 1
    29   12   28 1
@<TRIPOS>MOLECULE
ZINC13580720
   29    30     0     0     0
SMALL
USER_CHARGES
1-(cyclohexylmethyl)imidazole
@<TRIPOS>ATOM
      1 C1          2.7309   -3.1671   -4.0456 C.2       1 <0>         0.0036
      2 C2          2.6408   -2.7524   -2.7675 C.2       1 <0>         0.0233
      3 N1          1.3173   -2.5009   -2.5251 N.pl3     1 <0>        -0.4051
      4 C3          0.6435   -2.7765   -3.6626 C.cat     1 <0>         0.2851
      5 C4          0.7390   -2.0273   -1.2652 C.3       1 <0>         0.0926
      6 C5          0.7182   -0.4975   -1.2568 C.3       1 <0>        -0.1060
      7 C6          0.0021   -0.0041    0.0020 C.3       1 <0>        -0.1132
      8 C7         -0.0187    1.5258    0.0104 C.3       1 <0>        -0.1211
      9 C8          1.4167    2.0553   -0.0004 C.3       1 <0>        -0.1259
     10 C9          2.1328    1.5619   -1.2592 C.3       1 <0>        -0.1201
     11 C10         2.1536    0.0321   -1.2676 C.3       1 <0>        -0.1216
     12 H1          3.6383   -3.4490   -4.5589 H         1 <0>         0.2223
     13 H2          3.4561   -2.6394   -2.0684 H         1 <0>         0.2199
     14 H3         -0.4238   -2.6848   -3.7998 H         1 <0>         0.2576
     15 H4          1.3413   -2.3871   -0.4310 H         1 <0>         0.1239
     16 H5         -0.2789   -2.4050   -1.1679 H         1 <0>         0.1220
     17 H6          0.1910   -0.1364   -2.1398 H         1 <0>         0.0850
     18 H7          0.5293   -0.3651    0.8851 H         1 <0>         0.0732
     19 H8         -1.0205   -0.3814    0.0098 H         1 <0>         0.0722
     20 H9         -0.5459    1.8868   -0.8726 H         1 <0>         0.0648
     21 H10        -0.5289    1.8773    0.9072 H         1 <0>         0.0730
     22 H11         1.4019    3.1452    0.0056 H         1 <0>         0.0693
     23 H12         1.9439    1.6943    0.8826 H         1 <0>         0.0660
     24 H13         3.1554    1.9392   -1.2670 H         1 <0>         0.0695
     25 H14         1.6057    1.9230   -2.1423 H         1 <0>         0.0628
     26 H15         2.6808   -0.3290   -0.3846 H         1 <0>         0.0725
     27 H16         2.6638   -0.3194   -2.1644 H         1 <0>         0.0576
     28 N2          1.4964   -3.1685   -4.5680 N.pl3     1 <0>        -0.4841
     29 H17         1.2594   -3.4362   -5.5305 H         1 <0>         0.4811
@<TRIPOS>BOND
     1    1    2 2
     2    1   12 1
     3    1   28 1
     4    2    3 1
     5    2   13 1
     6    3    4 1
     7    3    5 1
     8    4   14 1
     9    4   28 2
    10    5    6 1
    11    5   15 1
    12    5   16 1
    13    6   11 1
    14    6    7 1
    15    6   17 1
    16    7    8 1
    17    7   18 1
    18    7   19 1
    19    8    9 1
    20    8   20 1
    21    8   21 1
    22    9   10 1
    23    9   22 1
    24    9   23 1
    25   10   11 1
    26   10   24 1
    27   10   25 1
    28   11   26 1
    29   11   27 1
    30   28   29 1
@<TRIPOS>MOLECULE
ZINC13580718
   27    27     0     0     0
SMALL
USER_CHARGES
1-(2-ethylbutyl)imidazole
@<TRIPOS>ATOM
      1 C1          1.3180    2.7598   -0.4620 C.3       1 <0>        -0.1594
      2 C2          1.2904    1.3002   -0.0041 C.3       1 <0>        -0.1250
      3 C3         -0.1473    0.8978    0.3307 C.3       1 <0>        -0.1030
      4 C4         -1.0242    1.0569   -0.9130 C.3       1 <0>        -0.1204
      5 C5         -0.5675    0.0693   -1.9887 C.3       1 <0>        -0.1539
      6 C6         -0.6808    1.7954    1.4490 C.3       1 <0>         0.1030
      7 N1          0.0841    1.5548    2.6751 N.pl3     1 <0>        -0.4549
      8 C7         -0.1441    0.5663    3.5940 C.2       1 <0>        -0.0576
      9 C8          0.7878    0.7061    4.5561 C.2       1 <0>        -0.0303
     10 N2          1.5581    1.7571    4.2381 N.2       1 <0>        -0.4964
     11 C9          1.1425    2.2704    3.1127 C.2       1 <0>         0.1816
     12 H1          2.3424    3.0467   -0.6996 H         1 <0>         0.0579
     13 H2          0.6937    2.8745   -1.3481 H         1 <0>         0.0610
     14 H3          0.9376    3.3980    0.3355 H         1 <0>         0.0526
     15 H4          1.9154    1.1853    0.8815 H         1 <0>         0.0639
     16 H5          1.6699    0.6618   -0.8020 H         1 <0>         0.0701
     17 H6         -0.1668   -0.1415    0.6584 H         1 <0>         0.0775
     18 H7         -2.0635    0.8560   -0.6529 H         1 <0>         0.0643
     19 H8         -0.9349    2.0747   -1.2928 H         1 <0>         0.0708
     20 H9         -0.6568   -0.9485   -1.6089 H         1 <0>         0.0543
     21 H10        -1.1922    0.1827   -2.8747 H         1 <0>         0.0569
     22 H11         0.4717    0.2703   -2.2488 H         1 <0>         0.0583
     23 H12        -0.5787    2.8403    1.1562 H         1 <0>         0.0982
     24 H13        -1.7322    1.5688    1.6264 H         1 <0>         0.0901
     25 H14        -0.9207   -0.1831    3.5540 H         1 <0>         0.1719
     26 H15         0.8932    0.0842    5.4328 H         1 <0>         0.1684
     27 H16         1.5738    3.1255    2.6135 H         1 <0>         0.2001
@<TRIPOS>BOND
     1    1    2 1
     2    1   12 1
     3    1   13 1
     4    1   14 1
     5    2    3 1
     6    2   15 1
     7    2   16 1
     8    3    4 1
     9    3    6 1
    10    3   17 1
    11    4    5 1
    12    4   18 1
    13    4   19 1
    14    5   20 1
    15    5   21 1
    16    5   22 1
    17    6    7 1
    18    6   23 1
    19    6   24 1
    20    7   11 1
    21    7    8 1
    22    8    9 2
    23    8   25 1
    24    9   10 1
    25    9   26 1
    26   10   11 2
    27   11   27 1
@<TRIPOS>MOLECULE
ZINC13580718
   28    28     0     0     0
SMALL
USER_CHARGES
1-(2-ethylbutyl)imidazole
@<TRIPOS>ATOM
      1 C1          1.3180    2.7598   -0.4620 C.3       1 <0>        -0.1668
      2 C2          1.2904    1.3002   -0.0041 C.3       1 <0>        -0.1305
      3 C3         -0.1473    0.8978    0.3307 C.3       1 <0>        -0.1071
      4 C4         -1.0242    1.0569   -0.9130 C.3       1 <0>        -0.1211
      5 C5         -0.5675    0.0693   -1.9887 C.3       1 <0>        -0.1575
      6 C6         -0.6808    1.7954    1.4490 C.3       1 <0>         0.0886
      7 N1          0.0841    1.5548    2.6751 N.pl3     1 <0>        -0.4031
      8 C7         -0.1441    0.5663    3.5940 C.2       1 <0>         0.0231
      9 C8          0.7878    0.7061    4.5561 C.2       1 <0>         0.0045
     10 C9          1.1425    2.2704    3.1127 C.cat     1 <0>         0.2826
     11 H1          2.3424    3.0467   -0.6996 H         1 <0>         0.0662
     12 H2          0.6937    2.8745   -1.3481 H         1 <0>         0.0718
     13 H3          0.9376    3.3980    0.3355 H         1 <0>         0.0482
     14 H4          1.9154    1.1853    0.8815 H         1 <0>         0.0532
     15 H5          1.6699    0.6618   -0.8020 H         1 <0>         0.0850
     16 H6         -0.1668   -0.1415    0.6584 H         1 <0>         0.0877
     17 H7         -2.0635    0.8560   -0.6529 H         1 <0>         0.0719
     18 H8         -0.9349    2.0747   -1.2928 H         1 <0>         0.0767
     19 H9         -0.6568   -0.9485   -1.6089 H         1 <0>         0.0575
     20 H10        -1.1922    0.1827   -2.8747 H         1 <0>         0.0652
     21 H11         0.4717    0.2703   -2.2488 H         1 <0>         0.0601
     22 H12        -0.5787    2.8403    1.1562 H         1 <0>         0.1240
     23 H13        -1.7322    1.5688    1.6264 H         1 <0>         0.1238
     24 H14        -0.9207   -0.1831    3.5540 H         1 <0>         0.2211
     25 H15         0.8932    0.0842    5.4328 H         1 <0>         0.2228
     26 H16         1.5738    3.1255    2.6135 H         1 <0>         0.2548
     27 N2          1.5571    1.7566    4.2374 N.pl3     1 <0>        -0.4838
     28 H17         2.3488    2.1027    4.7920 H         1 <0>         0.4810
@<TRIPOS>BOND
     1    1    2 1
     2    1   11 1
     3    1   12 1
     4    1   13 1
     5    2    3 1
     6    2   14 1
     7    2   15 1
     8    3    4 1
     9    3    6 1
    10    3   16 1
    11    4    5 1
    12    4   17 1
    13    4   18 1
    14    5   19 1
    15    5   20 1
    16    5   21 1
    17    6    7 1
    18    6   22 1
    19    6   23 1
    20    7   10 1
    21    7    8 1
    22    8    9 2
    23    8   24 1
    24    9   25 1
    25    9   27 1
    26   10   26 1
    27   10   27 2
    28   27   28 1
