@<TRIPOS>MOLECULE
ZINC05998558
   33    35     0     0     0
SMALL
USER_CHARGES
5,7-dihydroxy-6-methoxy-2-phenyl-chromen-4-one
@<TRIPOS>ATOM
      1 C1         -0.0127    1.0858    0.0080 C.3       1 <0>         0.0289
      2 O1         -0.6816    1.5467    1.1837 O.3       1 <0>        -0.3038
      3 C2         -0.7876    2.8942    1.3465 C.ar      1 <0>        -0.0313
      4 C3         -1.8933    3.5722    0.8358 C.ar      1 <0>         0.2510
      5 C4         -2.0153    4.9432    0.9944 C.ar      1 <0>        -0.2769
      6 C5         -1.0331    5.6553    1.6656 C.ar      1 <0>         0.2264
      7 C6          0.0839    4.9755    2.1818 C.ar      1 <0>        -0.3559
      8 C7          0.2008    3.5891    2.0244 C.ar      1 <0>         0.2848
      9 O2          1.2773    2.9313    2.5280 O.3       1 <0>        -0.4890
     10 C8          1.1137    5.7536    2.8906 C.2       1 <0>         0.4424
     11 O3          2.1039    5.2161    3.3594 O.2       1 <0>        -0.4898
     12 C9          0.9097    7.1501    3.0073 C.2       1 <0>        -0.3141
     13 C10        -0.2063    7.7113    2.4720 C.2       1 <0>         0.2184
     14 O4         -1.1380    6.9918    1.8276 O.3       1 <0>        -0.2156
     15 C11        -0.4007    9.1694    2.6037 C.ar      1 <0>        -0.0783
     16 C12         0.5477    9.9459    3.2727 C.ar      1 <0>        -0.0781
     17 C13         0.3624   11.3080    3.3874 C.ar      1 <0>        -0.1209
     18 C14        -0.7659   11.9035    2.8515 C.ar      1 <0>        -0.0906
     19 C15        -1.7123   11.1393    2.1919 C.ar      1 <0>        -0.1232
     20 C16        -1.5368    9.7770    2.0648 C.ar      1 <0>        -0.0774
     21 O5         -2.8603    2.8824    0.1769 O.3       1 <0>        -0.4796
     22 H1          0.0022   -0.0141    0.0020 H         1 <0>         0.0954
     23 H2          1.0193    1.4665    0.0002 H         1 <0>         0.0453
     24 H3         -0.5447    1.4502   -0.8832 H         1 <0>         0.0448
     25 H4         -2.8764    5.4579    0.5945 H         1 <0>         0.1537
     26 H5          2.0596    3.4873    3.0655 H         1 <0>         0.4508
     27 H6          1.6362    7.7649    3.5178 H         1 <0>         0.1662
     28 H7          1.4264    9.4818    3.6957 H         1 <0>         0.1366
     29 H8          1.0971   11.9104    3.9010 H         1 <0>         0.1353
     30 H9         -0.9083   12.9697    2.9481 H         1 <0>         0.1315
     31 H10        -2.5902   11.6106    1.7753 H         1 <0>         0.1331
     32 H11        -2.2761    9.1818    1.5495 H         1 <0>         0.1353
     33 H12        -3.7350    3.4124   -0.2281 H         1 <0>         0.4446
@<TRIPOS>BOND
     1    1    2 1
     2    1   22 1
     3    1   23 1
     4    1   24 1
     5    2    3 1
     6    3    8 ar
     7    3    4 ar
     8    4    5 ar
     9    4   21 1
    10    5    6 ar
    11    5   25 1
    12    6   14 1
    13    6    7 ar
    14    7    8 ar
    15    7   10 1
    16    8    9 1
    17    9   26 1
    18   10   11 2
    19   10   12 1
    20   12   13 2
    21   12   27 1
    22   13   14 1
    23   13   15 1
    24   15   20 ar
    25   15   16 ar
    26   16   17 ar
    27   16   28 1
    28   17   18 ar
    29   17   29 1
    30   18   19 ar
    31   18   30 1
    32   19   20 ar
    33   19   31 1
    34   20   32 1
    35   21   33 1
