@<TRIPOS>MOLECULE
ZINC03986715
   52    53     0     0     0
SMALL
USER_CHARGES
N-(1-ethylpropyl)-3-methoxy-5-[2-methoxy-4-(trifluoromethoxy)phenyl]-6-methyl-pyrazin-2-amine
@<TRIPOS>ATOM
      1 C1          5.5040   -0.8815    8.3193 C.3       1 <0>        -0.1398
      2 C2          5.2870   -1.5847    9.6606 C.3       1 <0>        -0.1349
      3 C3          3.8777   -2.1787    9.7029 C.3       1 <0>         0.1542
      4 C4          3.7034   -2.9872   10.9902 C.3       1 <0>        -0.1330
      5 C5          2.3408   -3.6829   10.9749 C.3       1 <0>        -0.1521
      6 N1          2.8905   -1.0968    9.6684 N.pl3     1 <0>        -0.6996
      7 C6          2.4847   -0.5635    8.4482 C.ar      1 <0>         0.3708
      8 C7          1.5409    0.4702    8.4149 C.ar      1 <0>         0.2186
      9 N2          1.1603    0.9778    7.2556 N.ar      1 <0>        -0.4368
     10 C8          1.6687    0.4978    6.1209 C.ar      1 <0>         0.0913
     11 C9          2.6067   -0.5292    6.1580 C.ar      1 <0>         0.1085
     12 N3          2.9913   -1.0343    7.3179 N.ar      1 <0>        -0.4658
     13 C10         3.1848   -1.0669    4.8744 C.3       1 <0>        -0.0999
     14 C11         1.2393    1.0621    4.8198 C.ar      1 <0>        -0.0773
     15 C12         2.1910    1.4785    3.8901 C.ar      1 <0>        -0.0200
     16 C13         1.7889    1.9987    2.6783 C.ar      1 <0>        -0.2278
     17 C14         0.4364    2.1195    2.3842 C.ar      1 <0>         0.1544
     18 C15        -0.5169    1.7077    3.3034 C.ar      1 <0>        -0.2197
     19 C16        -0.1224    1.1791    4.5208 C.ar      1 <0>         0.1953
     20 O1         -1.0548    0.7749    5.4220 O.3       1 <0>        -0.2903
     21 C17        -2.4259    0.9241    5.0482 C.3       1 <0>         0.0204
     22 O2          0.0466    2.6374    1.1902 O.3       1 <0>        -0.3099
     23 C18         1.0802    3.0417    0.2900 C.3       1 <0>         0.6053
     24 F1          1.8838    1.9400   -0.0225 F         1 <0>        -0.1620
     25 F2          1.8619    4.0332    0.8926 F         1 <0>        -0.1623
     26 F3          0.5067    3.5478   -0.8814 F         1 <0>        -0.1293
     27 O3          1.0211    0.9536    9.5720 O.3       1 <0>        -0.3101
     28 C19         0.0632    2.0083    9.4622 C.3       1 <0>         0.0440
     29 H1          6.5080   -0.4583    8.2891 H         1 <0>         0.0424
     30 H2          5.3886   -1.6012    7.5088 H         1 <0>         0.0636
     31 H3          4.7700   -0.0840    8.2042 H         1 <0>         0.0486
     32 H4          5.4024   -0.8650   10.4710 H         1 <0>         0.0599
     33 H5          6.0210   -2.3822    9.7757 H         1 <0>         0.0696
     34 H6          3.7322   -2.8309    8.8418 H         1 <0>         0.0907
     35 H7          4.4928   -3.7357   11.0587 H         1 <0>         0.0791
     36 H8          3.7606   -2.3190   11.8494 H         1 <0>         0.0671
     37 H9          1.5514   -2.9344   10.9063 H         1 <0>         0.0550
     38 H10         2.2836   -4.3511   10.1156 H         1 <0>         0.0547
     39 H11         2.2166   -4.2588   11.8920 H         1 <0>         0.0558
     40 H12         2.5196   -0.7521   10.4957 H         1 <0>         0.4135
     41 H13         4.0271   -0.4470    4.5675 H         1 <0>         0.0812
     42 H14         3.5248   -2.0908    5.0299 H         1 <0>         0.0800
     43 H15         2.4205   -1.0519    4.0974 H         1 <0>         0.0801
     44 H16         3.2431    1.3897    4.1173 H         1 <0>         0.1443
     45 H17         2.5272    2.3168    1.9572 H         1 <0>         0.1400
     46 H18        -1.5673    1.7990    3.0695 H         1 <0>         0.1473
     47 H19        -2.6385    1.9762    4.8588 H         1 <0>         0.0602
     48 H20        -2.6213    0.3457    4.1452 H         1 <0>         0.0594
     49 H21        -3.0638    0.5641    5.8554 H         1 <0>         0.1033
     50 H22        -0.2710    2.3006   10.4577 H         1 <0>         0.0957
     51 H23         0.5207    2.8645    8.9665 H         1 <0>         0.0571
     52 H24        -0.7908    1.6642    8.8787 H         1 <0>         0.0591
@<TRIPOS>BOND
     1    1    2 1
     2    1   29 1
     3    1   30 1
     4    1   31 1
     5    2    3 1
     6    2   32 1
     7    2   33 1
     8    3    4 1
     9    3    6 1
    10    3   34 1
    11    4    5 1
    12    4   35 1
    13    4   36 1
    14    5   37 1
    15    5   38 1
    16    5   39 1
    17    6    7 1
    18    6   40 1
    19    7   12 ar
    20    7    8 ar
    21    8    9 ar
    22    8   27 1
    23    9   10 ar
    24   10   11 ar
    25   10   14 1
    26   11   12 ar
    27   11   13 1
    28   13   41 1
    29   13   42 1
    30   13   43 1
    31   14   19 ar
    32   14   15 ar
    33   15   16 ar
    34   15   44 1
    35   16   17 ar
    36   16   45 1
    37   17   18 ar
    38   17   22 1
    39   18   19 ar
    40   18   46 1
    41   19   20 1
    42   20   21 1
    43   21   47 1
    44   21   48 1
    45   21   49 1
    46   22   23 1
    47   23   24 1
    48   23   25 1
    49   23   26 1
    50   27   28 1
    51   28   50 1
    52   28   51 1
    53   28   52 1
@<TRIPOS>MOLECULE
ZINC28465228
   54    57     0     0     0
SMALL
USER_CHARGES
(2,4-dichlorophenyl)-methyl-(1-propylbutyl)BLAH
@<TRIPOS>ATOM
      1 C1         -1.3352    3.0866    1.8824 C.3       1 <0>        -0.1553
      2 C2         -1.0320    1.6112    1.6140 C.3       1 <0>        -0.1205
      3 C3         -0.2944    1.4766    0.2803 C.3       1 <0>        -0.1121
      4 C4          0.0088    0.0012    0.0118 C.3       1 <0>         0.0816
      5 C5          0.8541   -0.1231   -1.2574 C.3       1 <0>        -0.1526
      6 C6          1.1663   -1.5977   -1.5200 C.3       1 <0>        -0.1343
      7 C7          2.1227   -1.7127   -2.7086 C.3       1 <0>        -0.1526
      8 N1         -1.2511   -0.7333   -0.1651 N.pl3     1 <0>        -0.4669
      9 C8         -1.8826   -0.3948   -1.4493 C.3       1 <0>         0.0295
     10 C9         -3.2312   -1.1002   -1.6595 C.3       1 <0>         0.1410
     11 N2         -3.0145   -2.5389   -1.4595 N.pl3     1 <0>        -0.3823
     12 C10        -1.9647   -2.9342   -0.6761 C.ar      1 <0>         0.0009
     13 C11        -1.0564   -2.0911   -0.0193 C.ar      1 <0>         0.1765
     14 C12        -0.0803   -2.7576    0.6942 C.ar      1 <0>        -0.1788
     15 C13        -0.0750   -4.1493    0.7097 C.ar      1 <0>         0.1428
     16 N3         -0.9526   -4.9184    0.0799 N.ar      1 <0>        -0.4367
     17 C14        -1.9194   -4.3305   -0.6286 C.ar      1 <0>         0.0763
     18 C15        -3.0427   -4.7643   -1.4421 C.2       1 <0>         0.1161
     19 N4         -3.6569   -3.6813   -1.9077 N.2       1 <0>        -0.1863
     20 C16        -3.4345   -6.1691   -1.7072 C.ar      1 <0>        -0.0018
     21 C17        -2.6956   -7.2168   -1.1594 C.ar      1 <0>        -0.0629
     22 C18        -3.0671   -8.5225   -1.4056 C.ar      1 <0>        -0.1070
     23 C19        -4.1657   -8.7942   -2.2036 C.ar      1 <0>        -0.0158
     24 C20        -4.9005   -7.7586   -2.7543 C.ar      1 <0>        -0.1077
     25 C21        -4.5405   -6.4477   -2.5105 C.ar      1 <0>        -0.0067
     26 Cl1        -5.4621   -5.1494   -3.2026 Cl        1 <0>        -0.0297
     27 Cl2        -4.6234  -10.4398   -2.5139 Cl        1 <0>        -0.0541
     28 C22         1.0094   -4.8334    1.5016 C.3       1 <0>        -0.1088
     29 H1         -1.8655    3.1834    2.8413 H         1 <0>         0.0545
     30 H2         -1.9651    3.4846    1.0732 H         1 <0>         0.0525
     31 H3         -0.3930    3.6526    1.9257 H         1 <0>         0.0529
     32 H4         -0.4021    1.2132    2.4232 H         1 <0>         0.0601
     33 H5         -1.9742    1.0452    1.5707 H         1 <0>         0.0710
     34 H6         -0.9243    1.8746   -0.5289 H         1 <0>         0.0665
     35 H7          0.6478    2.0426    0.3236 H         1 <0>         0.0753
     36 H8          0.5315   -0.4478    0.8693 H         1 <0>         0.0993
     37 H9          0.2974    0.2914   -2.1108 H         1 <0>         0.0706
     38 H10         1.7941    0.4333   -1.1278 H         1 <0>         0.0817
     39 H11         1.6357   -2.0376   -0.6278 H         1 <0>         0.0734
     40 H12         0.2337   -2.1353   -1.7464 H         1 <0>         0.0585
     41 H13         2.3471   -2.7729   -2.8974 H         1 <0>         0.0558
     42 H14         3.0553   -1.1751   -2.4821 H         1 <0>         0.0569
     43 H15         1.6533   -1.2728   -3.6008 H         1 <0>         0.0510
     44 H16        -2.0620    0.6895   -1.4951 H         1 <0>         0.1182
     45 H17        -1.2182   -0.6917   -2.2742 H         1 <0>         0.0687
     46 H18        -3.9624   -0.7175   -0.9323 H         1 <0>         0.0963
     47 H19        -3.5922   -0.9046   -2.6800 H         1 <0>         0.1102
     48 H20         0.6724   -2.2039    1.2358 H         1 <0>         0.1427
     49 H21        -1.8361   -7.0066   -0.5402 H         1 <0>         0.1624
     50 H22        -2.4975   -9.3345   -0.9782 H         1 <0>         0.1464
     51 H23        -5.7565   -7.9760   -3.3759 H         1 <0>         0.1480
     52 H24         0.8884   -5.9239    1.4230 H         1 <0>         0.0799
     53 H25         0.9385   -4.5317    2.5570 H         1 <0>         0.0783
     54 H26         1.9928   -4.5439    1.1028 H         1 <0>         0.0773
@<TRIPOS>BOND
     1    1    2 1
     2    1   29 1
     3    1   30 1
     4    1   31 1
     5    2    3 1
     6    2   32 1
     7    2   33 1
     8    3    4 1
     9    3   34 1
    10    3   35 1
    11    4    5 1
    12    4    8 1
    13    4   36 1
    14    5    6 1
    15    5   37 1
    16    5   38 1
    17    6    7 1
    18    6   39 1
    19    6   40 1
    20    7   41 1
    21    7   42 1
    22    7   43 1
    23    8   13 1
    24    8    9 1
    25    9   10 1
    26    9   44 1
    27    9   45 1
    28   10   11 1
    29   10   46 1
    30   10   47 1
    31   11   19 1
    32   11   12 1
    33   12   17 ar
    34   12   13 ar
    35   13   14 ar
    36   14   15 ar
    37   14   48 1
    38   15   16 ar
    39   15   28 1
    40   16   17 ar
    41   17   18 1
    42   18   19 2
    43   18   20 1
    44   20   25 ar
    45   20   21 ar
    46   21   22 ar
    47   21   49 1
    48   22   23 ar
    49   22   50 1
    50   23   24 ar
    51   23   27 1
    52   24   25 ar
    53   24   51 1
    54   25   26 1
    55   28   52 1
    56   28   53 1
    57   28   54 1
@<TRIPOS>MOLECULE
ZINC03780340
   54    61     0     0     0
SMALL
USER_CHARGES

@<TRIPOS>ATOM
      1 C1         -0.0183    1.5018    0.0103 C.3       1 <0>        -0.1343
      2 C2          0.0021   -0.0041    0.0020 C.ar      1 <0>        -0.0117
      3 C3         -0.0548   -0.6265   -1.2322 C.ar      1 <0>        -0.1561
      4 C4          0.0423   -2.0081   -1.3580 C.ar      1 <0>         0.1912
      5 C5          0.2687   -2.7865   -0.2197 C.ar      1 <0>        -0.1794
      6 C6          0.3275   -2.1471    1.0349 C.ar      1 <0>         0.0101
      7 C7          0.0235   -0.7668    1.1650 C.ar      1 <0>        -0.0358
      8 C8         -0.3007   -0.2785    2.5070 C.ar      1 <0>        -0.0338
      9 C9         -1.2665    0.6752    2.8209 C.ar      1 <0>        -0.0142
     10 C10        -1.2867    1.2661    4.0674 C.ar      1 <0>        -0.1580
     11 C11        -0.4714    0.8089    5.0987 C.ar      1 <0>         0.1913
     12 C12         0.3146   -0.3273    4.8901 C.ar      1 <0>        -0.1827
     13 C13         0.3125   -0.9218    3.6120 C.ar      1 <0>         0.0070
     14 C14         0.8801   -2.2552    3.4413 C.ar      1 <0>        -0.0121
     15 C15         0.7605   -2.9018    2.2059 C.ar      1 <0>        -0.0145
     16 C16         1.0580   -4.3257    2.1086 C.ar      1 <0>         0.0248
     17 C17         1.5790   -5.0116    3.2284 C.ar      1 <0>        -0.0698
     18 C18         1.6198   -6.4153    3.1802 C.ar      1 <0>         0.1999
     19 C19         1.3943   -7.0793    1.9870 C.ar      1 <0>        -0.1918
     20 C20         1.0304   -6.3896    0.8372 C.ar      1 <0>         0.2090
     21 C21         0.8451   -5.0024    0.8857 C.ar      1 <0>        -0.1930
     22 C22         0.4370   -4.2442   -0.3027 C.2       1 <0>         0.4375
     23 O1          0.2360   -4.8224   -1.3562 O.2       1 <0>        -0.4172
     24 O2          0.8589   -7.0699   -0.3219 O.3       1 <0>        -0.4734
     25 O3          1.8092   -7.1545    4.3012 O.3       1 <0>        -0.4693
     26 C23         2.0419   -4.2390    4.3823 C.ar      1 <0>        -0.0675
     27 C24         1.5760   -2.9127    4.5400 C.ar      1 <0>         0.0229
     28 C25         1.7638   -2.2242    5.7609 C.ar      1 <0>        -0.1924
     29 C26         1.1439   -0.9082    5.9559 C.2       1 <0>         0.4375
     30 O4          1.3190   -0.2963    6.9945 O.2       1 <0>        -0.4154
     31 C27         2.5510   -2.8139    6.7570 C.ar      1 <0>         0.2093
     32 C28         3.1465   -4.0483    6.5262 C.ar      1 <0>        -0.1937
     33 C29         2.9414   -4.7327    5.3400 C.ar      1 <0>         0.1998
     34 O5          3.6804   -5.8458    5.1072 O.3       1 <0>        -0.4711
     35 O6          2.7393   -2.1950    7.9469 O.3       1 <0>        -0.4738
     36 O7         -0.4506    1.4619    6.2838 O.3       1 <0>        -0.4725
     37 C30        -2.4068    0.9973    1.8857 C.3       1 <0>        -0.1315
     38 O8         -0.0840   -2.5835   -2.5775 O.3       1 <0>        -0.4742
     39 H1          1.0042    1.8791    0.0026 H         1 <0>         0.0854
     40 H2         -0.5455    1.8629   -0.8728 H         1 <0>         0.0810
     41 H3         -0.5285    1.8533    0.9071 H         1 <0>         0.0822
     42 H4         -0.1792   -0.0181   -2.1166 H         1 <0>         0.1459
     43 H5         -1.9456    2.1046    4.2421 H         1 <0>         0.1467
     44 H6          1.5080   -8.1534    1.9505 H         1 <0>         0.1529
     45 H7         -0.0435   -7.3884   -0.4612 H         1 <0>         0.4037
     46 H8          0.9905   -7.3986    4.7543 H         1 <0>         0.3985
     47 H9          3.7779   -4.4856    7.2860 H         1 <0>         0.1529
     48 H10         4.5367   -5.6700    4.6938 H         1 <0>         0.4000
     49 H11         2.0795   -2.4213    8.6167 H         1 <0>         0.4029
     50 H12        -1.1024    1.1403    6.9216 H         1 <0>         0.3992
     51 H13        -3.2535    0.3479    2.1081 H         1 <0>         0.0863
     52 H14        -2.7024    2.0380    2.0182 H         1 <0>         0.0808
     53 H15        -2.0878    0.8384    0.8556 H         1 <0>         0.0794
     54 H16         0.7509   -2.6780   -3.0562 H         1 <0>         0.4010
@<TRIPOS>BOND
     1    1    2 1
     2    1   39 1
     3    1   40 1
     4    1   41 1
     5    2    7 ar
     6    2    3 ar
     7    3    4 ar
     8    3   42 1
     9    4    5 ar
    10    4   38 1
    11    5   22 1
    12    5    6 ar
    13    6   15 ar
    14    6    7 ar
    15    7    8 ar
    16    8   13 ar
    17    8    9 ar
    18    9   10 ar
    19    9   37 1
    20   10   11 ar
    21   10   43 1
    22   11   12 ar
    23   11   36 1
    24   12   29 1
    25   12   13 ar
    26   13   14 ar
    27   14   27 ar
    28   14   15 ar
    29   15   16 ar
    30   16   21 ar
    31   16   17 ar
    32   17   18 ar
    33   17   26 ar
    34   18   19 ar
    35   18   25 1
    36   19   20 ar
    37   19   44 1
    38   20   21 ar
    39   20   24 1
    40   21   22 1
    41   22   23 2
    42   24   45 1
    43   25   46 1
    44   26   33 ar
    45   26   27 ar
    46   27   28 ar
    47   28   29 1
    48   28   31 ar
    49   29   30 2
    50   31   32 ar
    51   31   35 1
    52   32   33 ar
    53   32   47 1
    54   33   34 1
    55   34   48 1
    56   35   49 1
    57   36   50 1
    58   37   51 1
    59   37   52 1
    60   37   53 1
    61   38   54 1
@<TRIPOS>MOLECULE
ZINC01539136
   63    65     0     0     0
SMALL
USER_CHARGES

@<TRIPOS>ATOM
      1 C1         -0.1020   -4.8883    1.6115 C.3       1 <0>        -0.1540
      2 C2          0.9850   -4.7724    0.5410 C.3       1 <0>        -0.1232
      3 C3          0.6343   -3.6356   -0.4210 C.3       1 <0>        -0.1403
      4 C4          1.7212   -3.5197   -1.4915 C.3       1 <0>         0.1382
      5 N1          1.3854   -2.4311   -2.4126 N.pl3     1 <0>        -0.6553
      6 C5          1.8530   -1.0699   -2.1394 C.3       1 <0>         0.1350
      7 C6          3.2804   -0.9058   -2.6653 C.3       1 <0>        -0.1825
      8 C7          0.6268   -2.6886   -3.5403 C.ar      1 <0>         0.5673
      9 C8          1.2107   -3.2460   -4.6882 C.ar      1 <0>        -0.1767
     10 C9          2.5570   -3.6791   -5.0590 C.2       1 <0>        -0.0903
     11 C10         2.4856   -4.1365   -6.3197 C.2       1 <0>         0.0993
     12 N2          1.1973   -4.0284   -6.7812 N.pl3     1 <0>        -0.3733
     13 C11         0.3963   -3.4889   -5.8094 C.ar      1 <0>         0.3113
     14 N3         -0.8971   -3.1790   -5.7362 N.ar      1 <0>        -0.5055
     15 C12        -1.4018   -2.6569   -4.6395 C.ar      1 <0>         0.4287
     16 N4         -0.6751   -2.4192   -3.5620 N.ar      1 <0>        -0.5062
     17 C13        -2.8711   -2.3236   -4.6078 C.3       1 <0>        -0.1264
     18 C14         0.7654   -4.4132   -8.0573 C.ar      1 <0>         0.0303
     19 C15         0.7975   -3.5040   -9.1062 C.ar      1 <0>        -0.0452
     20 C16         0.3710   -3.8864  -10.3630 C.ar      1 <0>        -0.1188
     21 C17        -0.0877   -5.1732  -10.5772 C.ar      1 <0>        -0.0313
     22 C18        -0.1214   -6.0808   -9.5345 C.ar      1 <0>        -0.1187
     23 C19         0.3096   -5.7063   -8.2769 C.ar      1 <0>        -0.0439
     24 C20         0.2793   -6.6981   -7.1427 C.3       1 <0>        -0.1267
     25 C21        -0.5524   -5.5871  -11.9497 C.3       1 <0>        -0.1297
     26 C22         1.2968   -2.1013   -8.8735 C.3       1 <0>        -0.1233
     27 C23         3.6459   -4.6853   -7.1095 C.3       1 <0>        -0.1000
     28 C24         3.7889   -3.6223   -4.1928 C.3       1 <0>        -0.1132
     29 H1         -0.1683   -3.9516    2.1648 H         1 <0>         0.0566
     30 H2         -1.0599   -5.0977    1.1354 H         1 <0>         0.0526
     31 H3          0.1479   -5.6982    2.2968 H         1 <0>         0.0585
     32 H4          1.9429   -4.5630    1.0171 H         1 <0>         0.0668
     33 H5          1.0513   -5.7092   -0.0124 H         1 <0>         0.0606
     34 H6         -0.3237   -3.8450   -0.8971 H         1 <0>         0.0623
     35 H7          0.5679   -2.6988    0.1323 H         1 <0>         0.0719
     36 H8          2.6792   -3.3103   -1.0154 H         1 <0>         0.0919
     37 H9          1.7876   -4.4564   -2.0448 H         1 <0>         0.0704
     38 H10         1.1982   -0.3542   -2.6365 H         1 <0>         0.0732
     39 H11         1.8388   -0.8897   -1.0645 H         1 <0>         0.0876
     40 H12         3.6574    0.0796   -2.3916 H         1 <0>         0.0768
     41 H13         3.9191   -1.6734   -2.2282 H         1 <0>         0.0703
     42 H14         3.2817   -1.0068   -3.7506 H         1 <0>         0.0592
     43 H15        -3.4315   -3.1858   -4.2463 H         1 <0>         0.1247
     44 H16        -3.0374   -1.4770   -3.9418 H         1 <0>         0.1299
     45 H17        -3.2072   -2.0671   -5.6125 H         1 <0>         0.1054
     46 H18         0.3954   -3.1796  -11.1792 H         1 <0>         0.1421
     47 H19        -0.4809   -7.0849   -9.7047 H         1 <0>         0.1420
     48 H20        -0.6835   -6.6402   -6.6350 H         1 <0>         0.0746
     49 H21         0.4227   -7.7045   -7.5362 H         1 <0>         0.0878
     50 H22         1.0769   -6.4671   -6.4366 H         1 <0>         0.0672
     51 H23         0.2901   -5.9886  -12.5128 H         1 <0>         0.0859
     52 H24        -1.3244   -6.3510  -11.8569 H         1 <0>         0.0775
     53 H25        -0.9591   -4.7212  -12.4721 H         1 <0>         0.0776
     54 H26         2.3719   -2.0645   -9.0494 H         1 <0>         0.0873
     55 H27         0.7932   -1.4182   -9.5575 H         1 <0>         0.0842
     56 H28         1.0865   -1.8067   -7.8454 H         1 <0>         0.0552
     57 H29         3.7201   -5.7605   -6.9465 H         1 <0>         0.0933
     58 H30         3.4890   -4.4885   -8.1700 H         1 <0>         0.0805
     59 H31         4.5677   -4.2039   -6.7831 H         1 <0>         0.1023
     60 H32         3.8356   -4.5148   -3.5687 H         1 <0>         0.0808
     61 H33         4.6755   -3.5741   -4.8249 H         1 <0>         0.0797
     62 H34         3.7464   -2.7371   -3.5583 H         1 <0>         0.0983
     63 H35        -1.4729   -3.3398   -6.5000 H         1 <0>         0.4393
@<TRIPOS>BOND
     1    1    2 1
     2    1   29 1
     3    1   30 1
     4    1   31 1
     5    2    3 1
     6    2   32 1
     7    2   33 1
     8    3    4 1
     9    3   34 1
    10    3   35 1
    11    4    5 1
    12    4   36 1
    13    4   37 1
    14    5    6 1
    15    5    8 1
    16    6    7 1
    17    6   38 1
    18    6   39 1
    19    7   40 1
    20    7   41 1
    21    7   42 1
    22    8   16 ar
    23    8    9 ar
    24    9   13 ar
    25    9   10 1
    26   10   11 2
    27   10   28 1
    28   11   12 1
    29   11   27 1
    30   12   13 1
    31   12   18 1
    32   13   14 ar
    33   14   15 ar
    34   14   63 1
    35   15   16 ar
    36   15   17 1
    37   17   43 1
    38   17   44 1
    39   17   45 1
    40   18   23 ar
    41   18   19 ar
    42   19   20 ar
    43   19   26 1
    44   20   21 ar
    45   20   46 1
    46   21   22 ar
    47   21   25 1
    48   22   23 ar
    49   22   47 1
    50   23   24 1
    51   24   48 1
    52   24   49 1
    53   24   50 1
    54   25   51 1
    55   25   52 1
    56   25   53 1
    57   26   54 1
    58   26   55 1
    59   26   56 1
    60   27   57 1
    61   27   58 1
    62   27   59 1
    63   28   60 1
    64   28   61 1
    65   28   62 1
@<TRIPOS>MOLECULE
ZINC01539136
   62    64     0     0     0
SMALL
USER_CHARGES

@<TRIPOS>ATOM
      1 C1          1.5702   -4.8529   -0.6954 C.3       1 <0>        -0.1516
      2 C2          0.0972   -4.7754   -1.1020 C.3       1 <0>        -0.1224
      3 C3         -0.5890   -3.6527   -0.3213 C.3       1 <0>        -0.1391
      4 C4         -2.0619   -3.5752   -0.7279 C.3       1 <0>         0.1490
      5 N1         -2.7189   -2.5002    0.0197 N.pl3     1 <0>        -0.6537
      6 C5         -2.7502   -1.1412   -0.5266 C.3       1 <0>         0.1439
      7 C6         -3.9229   -1.0099   -1.5005 C.3       1 <0>        -0.1777
      8 C7         -3.3097   -2.7683    1.2413 C.ar      1 <0>         0.4830
      9 C8         -4.5814   -3.3576    1.3115 C.ar      1 <0>        -0.2065
     10 C9         -5.5643   -3.8189    0.3325 C.2       1 <0>        -0.1280
     11 C10        -6.6088   -4.3003    1.0262 C.2       1 <0>         0.0807
     12 N2         -6.3673   -4.1813    2.3722 N.pl3     1 <0>        -0.4105
     13 C11        -5.1391   -3.6101    2.5783 C.ar      1 <0>         0.3375
     14 N3         -4.4372   -3.2787    3.6607 N.ar      1 <0>        -0.5308
     15 C12        -3.2483   -2.7273    3.5476 C.ar      1 <0>         0.3465
     16 N4         -2.6847   -2.4792    2.3788 N.ar      1 <0>        -0.5495
     17 C13        -2.4948   -2.3711    4.8032 C.3       1 <0>        -0.0797
     18 C14        -7.2466   -4.5848    3.3857 C.ar      1 <0>         0.1040
     19 C15        -8.1933   -3.6972    3.8794 C.ar      1 <0>        -0.0550
     20 C16        -9.0587   -4.0980    4.8785 C.ar      1 <0>        -0.1221
     21 C17        -8.9830   -5.3816    5.3870 C.ar      1 <0>        -0.0606
     22 C18        -8.0409   -6.2678    4.8977 C.ar      1 <0>        -0.1219
     23 C19        -7.1768   -5.8749    3.8943 C.ar      1 <0>        -0.0540
     24 C20        -6.1552   -6.8435    3.3566 C.3       1 <0>        -0.1156
     25 C21        -9.9288   -5.8156    6.4771 C.3       1 <0>        -0.1181
     26 C22        -8.2762   -2.2979    3.3262 C.3       1 <0>        -0.1140
     27 C23        -7.8586   -4.8827    0.4181 C.3       1 <0>        -0.0903
     28 C24        -5.4314   -3.7640   -1.1676 C.3       1 <0>        -0.0982
     29 H1          2.0590   -5.6528   -1.2517 H         1 <0>         0.0531
     30 H2          2.0589   -3.9044   -0.9179 H         1 <0>         0.0537
     31 H3          1.6419   -5.0569    0.3729 H         1 <0>         0.0526
     32 H4          0.0255   -4.5715   -2.1704 H         1 <0>         0.0614
     33 H5         -0.3915   -5.7240   -0.8796 H         1 <0>         0.0587
     34 H6         -0.5172   -3.8566    0.7471 H         1 <0>         0.0634
     35 H7         -0.1002   -2.7042   -0.5438 H         1 <0>         0.0639
     36 H8         -2.1337   -3.3713   -1.7962 H         1 <0>         0.0730
     37 H9         -2.5506   -4.5237   -0.5054 H         1 <0>         0.0624
     38 H10        -2.8713   -0.4255    0.2865 H         1 <0>         0.0654
     39 H11        -1.8170   -0.9394   -1.0523 H         1 <0>         0.0689
     40 H12        -3.8991   -0.0252   -1.9672 H         1 <0>         0.0623
     41 H13        -3.8444   -1.7784   -2.2695 H         1 <0>         0.0627
     42 H14        -4.8607   -1.1326   -0.9586 H         1 <0>         0.0595
     43 H15        -1.8804   -3.2173    5.1106 H         1 <0>         0.0829
     44 H16        -1.8560   -1.5090    4.6113 H         1 <0>         0.0854
     45 H17        -3.2030   -2.1294    5.5957 H         1 <0>         0.0825
     46 H18        -9.7951   -3.4079    5.2632 H         1 <0>         0.1301
     47 H19        -7.9837   -7.2695    5.2973 H         1 <0>         0.1301
     48 H20        -5.2358   -6.7609    3.9363 H         1 <0>         0.0730
     49 H21        -6.5426   -7.8595    3.4325 H         1 <0>         0.0727
     50 H22        -5.9482   -6.6106    2.3121 H         1 <0>         0.0650
     51 H23       -10.8275   -6.2409    6.0303 H         1 <0>         0.0750
     52 H24        -9.4436   -6.5657    7.1017 H         1 <0>         0.0699
     53 H25       -10.1993   -4.9542    7.0877 H         1 <0>         0.0699
     54 H26        -8.9668   -2.2809    2.4830 H         1 <0>         0.0742
     55 H27        -8.6336   -1.6210    4.1021 H         1 <0>         0.0724
     56 H28        -7.2883   -1.9798    2.9932 H         1 <0>         0.0628
     57 H29        -7.7276   -5.9555    0.2761 H         1 <0>         0.0784
     58 H30        -8.7034   -4.7048    1.0835 H         1 <0>         0.0693
     59 H31        -8.0487   -4.4093   -0.5451 H         1 <0>         0.0876
     60 H32        -4.8920   -4.6444   -1.5170 H         1 <0>         0.0624
     61 H33        -6.4230   -3.7423   -1.6197 H         1 <0>         0.0610
     62 H34        -4.8830   -2.8657   -1.4512 H         1 <0>         0.0893
@<TRIPOS>BOND
     1    1    2 1
     2    1   29 1
     3    1   30 1
     4    1   31 1
     5    2    3 1
     6    2   32 1
     7    2   33 1
     8    3    4 1
     9    3   34 1
    10    3   35 1
    11    4    5 1
    12    4   36 1
    13    4   37 1
    14    5    6 1
    15    5    8 1
    16    6    7 1
    17    6   38 1
    18    6   39 1
    19    7   40 1
    20    7   41 1
    21    7   42 1
    22    8   16 ar
    23    8    9 ar
    24    9   13 ar
    25    9   10 1
    26   10   11 2
    27   10   28 1
    28   11   12 1
    29   11   27 1
    30   12   13 1
    31   12   18 1
    32   13   14 ar
    33   14   15 ar
    34   15   16 ar
    35   15   17 1
    36   17   43 1
    37   17   44 1
    38   17   45 1
    39   18   23 ar
    40   18   19 ar
    41   19   20 ar
    42   19   26 1
    43   20   21 ar
    44   20   46 1
    45   21   22 ar
    46   21   25 1
    47   22   23 ar
    48   22   47 1
    49   23   24 1
    50   24   48 1
    51   24   49 1
    52   24   50 1
    53   25   51 1
    54   25   52 1
    55   25   53 1
    56   26   54 1
    57   26   55 1
    58   26   56 1
    59   27   57 1
    60   27   58 1
    61   27   59 1
    62   28   60 1
    63   28   61 1
    64   28   62 1
@<TRIPOS>MOLECULE
ZINC00602283
   61    63     0     0     0
SMALL
USER_CHARGES
9-(6-dimethylamino-4-methyl-3-pyridyl)-3,8-dimethyl-N,N-dipropyl-2,6,7-triazabicyclo[4.3.0]nona-2,4,7,9-tetraen-5-amine
@<TRIPOS>ATOM
      1 C1          0.2206   -0.8215   -1.6173 C.3       1 <0>        -0.1535
      2 C2         -0.4069   -0.3576   -0.3013 C.3       1 <0>        -0.1320
      3 C3          0.0261    1.0804   -0.0088 C.3       1 <0>         0.0430
      4 N1         -0.6673    1.5660    1.1918 N.pl3     1 <0>        -0.4767
      5 C4         -0.6704    3.0342    1.2403 C.3       1 <0>         0.0494
      6 C5         -1.7001    3.5751    0.2463 C.3       1 <0>        -0.1179
      7 C6         -1.7951    5.0957    0.3872 C.3       1 <0>        -0.1518
      8 C7         -0.1077    1.0353    2.3339 C.2       1 <0>         0.4150
      9 C8          0.9548    0.1756    2.2530 C.2       1 <0>        -0.2984
     10 C9          1.5019   -0.3469    3.4244 C.2       1 <0>         0.2517
     11 N2          1.0025   -0.0169    4.5964 N.2       1 <0>        -0.5095
     12 C10        -0.0351    0.8216    4.6923 C.2       1 <0>         0.3345
     13 N3         -0.6022    1.3641    3.5687 N.pl3     1 <0>        -0.3200
     14 N4         -1.6492    2.1983    3.9744 N.2       1 <0>        -0.2992
     15 C11        -1.7308    2.1835    5.2825 C.2       1 <0>         0.1527
     16 C12        -0.7448    1.3279    5.7873 C.2       1 <0>        -0.2574
     17 C13        -0.4900    1.0261    7.2158 C.ar      1 <0>        -0.0167
     18 C14         0.3933    1.8083    7.9562 C.ar      1 <0>         0.1566
     19 C15         0.0309    0.5339    9.8466 C.ar      1 <0>         0.4494
     20 C16        -0.8598   -0.2950    9.1715 C.ar      1 <0>        -0.2090
     21 C17        -1.1292   -0.0525    7.8385 C.ar      1 <0>         0.0980
     22 C18        -2.0875   -0.9282    7.0730 C.3       1 <0>        -0.1356
     23 N5          0.3071    0.2957   11.1895 N.pl3     1 <0>        -0.5968
     24 C19        -0.2516   -0.8843   11.8542 C.3       1 <0>         0.0714
     25 C20         1.1567    1.2249   11.9387 C.3       1 <0>         0.0523
     26 C21        -2.7309    2.9520    6.1073 C.3       1 <0>        -0.0824
     27 C22         2.6715   -1.2941    3.3478 C.3       1 <0>        -0.1137
     28 H1          1.3068   -0.7783   -1.5370 H         1 <0>         0.0575
     29 H2         -0.0879   -1.8459   -1.8257 H         1 <0>         0.0646
     30 H3         -0.1100   -0.1707   -2.4268 H         1 <0>         0.0601
     31 H4         -0.0763   -1.0084    0.5082 H         1 <0>         0.0692
     32 H5         -1.4931   -0.4007   -0.3816 H         1 <0>         0.0769
     33 H6          1.1031    1.1090    0.1571 H         1 <0>         0.0690
     34 H7         -0.2278    1.7160   -0.8571 H         1 <0>         0.1027
     35 H8         -0.9287    3.3639    2.2466 H         1 <0>         0.0994
     36 H9          0.3192    3.4085    0.9780 H         1 <0>         0.0578
     37 H10        -1.3929    3.3228   -0.7686 H         1 <0>         0.0666
     38 H11        -2.6733    3.1296    0.4527 H         1 <0>         0.0766
     39 H12        -2.1023    5.3480    1.4021 H         1 <0>         0.0571
     40 H13        -0.8220    5.5412    0.1808 H         1 <0>         0.0549
     41 H14        -2.5287    5.4810   -0.3209 H         1 <0>         0.0648
     42 H15         1.3653   -0.0949    1.2914 H         1 <0>         0.1779
     43 H16         0.8952    2.6401    7.4844 H         1 <0>         0.1885
     44 H17        -1.3353   -1.1183    9.6839 H         1 <0>         0.1804
     45 H18        -1.5410   -1.7552    6.6197 H         1 <0>         0.1022
     46 H19        -2.8429   -1.3214    7.7533 H         1 <0>         0.0913
     47 H20        -2.5716   -0.3413    6.2925 H         1 <0>         0.0906
     48 H21         0.4400   -1.7205   11.7519 H         1 <0>         0.0808
     49 H22        -0.4053   -0.6672   12.9113 H         1 <0>         0.0969
     50 H23        -1.2052   -1.1430   11.3941 H         1 <0>         0.0891
     51 H24         0.7027    2.2158   11.9349 H         1 <0>         0.0785
     52 H25         1.2589    0.8759   12.9662 H         1 <0>         0.1115
     53 H26         2.1406    1.2742   11.4722 H         1 <0>         0.0757
     54 H27        -3.6230    2.3436    6.2563 H         1 <0>         0.0907
     55 H28        -2.2923    3.1968    7.0747 H         1 <0>         0.0785
     56 H29        -3.0006    3.8713    5.5876 H         1 <0>         0.0872
     57 H30         3.6015   -0.7266    3.3818 H         1 <0>         0.0951
     58 H31         2.6360   -1.9842    4.1909 H         1 <0>         0.0888
     59 H32         2.6230   -1.8567    2.4155 H         1 <0>         0.0905
     60 N6          0.6701    1.5926    9.2690 N.ar      1 <0>        -0.5386
     61 H33         1.3201    2.1893    9.7941 H         1 <0>         0.4637
@<TRIPOS>BOND
     1    1    2 1
     2    1   28 1
     3    1   29 1
     4    1   30 1
     5    2    3 1
     6    2   31 1
     7    2   32 1
     8    3    4 1
     9    3   33 1
    10    3   34 1
    11    4    5 1
    12    4    8 1
    13    5    6 1
    14    5   35 1
    15    5   36 1
    16    6    7 1
    17    6   37 1
    18    6   38 1
    19    7   39 1
    20    7   40 1
    21    7   41 1
    22    8   13 1
    23    8    9 2
    24    9   10 1
    25    9   42 1
    26   10   11 2
    27   10   27 1
    28   11   12 1
    29   12   16 2
    30   12   13 1
    31   13   14 1
    32   14   15 2
    33   15   16 1
    34   15   26 1
    35   16   17 1
    36   17   21 ar
    37   17   18 ar
    38   18   43 1
    39   18   60 ar
    40   19   20 ar
    41   19   23 1
    42   19   60 ar
    43   20   21 ar
    44   20   44 1
    45   21   22 1
    46   22   45 1
    47   22   46 1
    48   22   47 1
    49   23   24 1
    50   23   25 1
    51   24   48 1
    52   24   49 1
    53   24   50 1
    54   25   51 1
    55   25   52 1
    56   25   53 1
    57   26   54 1
    58   26   55 1
    59   26   56 1
    60   27   57 1
    61   27   58 1
    62   27   59 1
    63   60   61 1
@<TRIPOS>MOLECULE
ZINC04668073
   50    52     0     0     0
SMALL
USER_CHARGES
9-(4-chlorophenyl)-3,8-dimethyl-N,N-dipropyl-2,6,7-triazabicyclo[4.3.0]nona-2,4,7,9-tetraen-5-amine
@<TRIPOS>ATOM
      1 C1          0.2203   -0.8211   -1.6175 C.3       1 <0>        -0.1514
      2 C2         -0.4073   -0.3574   -0.3015 C.3       1 <0>        -0.1326
      3 C3          0.0259    1.0804   -0.0086 C.3       1 <0>         0.0459
      4 N1         -0.6676    1.5659    1.1920 N.pl3     1 <0>        -0.4781
      5 C4         -0.6708    3.0341    1.2406 C.3       1 <0>         0.0491
      6 C5         -1.7006    3.5750    0.2466 C.3       1 <0>        -0.1162
      7 C6         -1.7958    5.0955    0.3876 C.3       1 <0>        -0.1513
      8 C7         -0.1080    1.0352    2.3340 C.2       1 <0>         0.4051
      9 C8          0.9624    0.1692    2.2539 C.2       1 <0>        -0.3004
     10 C9          1.5062   -0.3508    3.4278 C.2       1 <0>         0.2332
     11 N2          1.0033   -0.0180    4.5975 N.2       1 <0>        -0.4908
     12 C10        -0.0341    0.8203    4.6919 C.2       1 <0>         0.3111
     13 N3         -0.6016    1.3630    3.5693 N.pl3     1 <0>        -0.3221
     14 N4         -1.6564    2.1876    3.9748 N.2       1 <0>        -0.3106
     15 C11        -1.7401    2.1702    5.2823 C.2       1 <0>         0.1416
     16 C12        -0.7439    1.3264    5.7878 C.2       1 <0>        -0.2208
     17 C13        -0.4884    1.0251    7.2155 C.ar      1 <0>         0.0222
     18 C14        -0.6766   -0.2683    7.7025 C.ar      1 <0>        -0.0864
     19 C15        -0.4320   -0.5444    9.0320 C.ar      1 <0>        -0.1079
     20 C16        -0.0110    0.4619    9.8846 C.ar      1 <0>        -0.0375
     21 C17         0.1724    1.7487    9.4077 C.ar      1 <0>        -0.1088
     22 C18        -0.0642    2.0350    8.0790 C.ar      1 <0>        -0.0960
     23 Cl1         0.2885    0.1088   11.5577 Cl        1 <0>        -0.0739
     24 C19        -2.7439    2.9340    6.1070 C.3       1 <0>        -0.0781
     25 C20         2.6759   -1.2983    3.3568 C.3       1 <0>        -0.1084
     26 H1          1.3065   -0.7782   -1.5371 H         1 <0>         0.0567
     27 H2         -0.0883   -1.8455   -1.8262 H         1 <0>         0.0624
     28 H3         -0.1101   -0.1701   -2.4269 H         1 <0>         0.0576
     29 H4         -0.0769   -1.0085    0.5079 H         1 <0>         0.0712
     30 H5         -1.4935   -0.4004   -0.3819 H         1 <0>         0.0752
     31 H6          1.1028    1.1088    0.1574 H         1 <0>         0.0664
     32 H7         -0.2278    1.7163   -0.8568 H         1 <0>         0.0979
     33 H8         -0.9292    3.3637    2.2469 H         1 <0>         0.1005
     34 H9          0.3187    3.4085    0.9785 H         1 <0>         0.0542
     35 H10        -1.3933    3.3227   -0.7683 H         1 <0>         0.0638
     36 H11        -2.6737    3.1293    0.4530 H         1 <0>         0.0757
     37 H12        -2.5294    5.4808   -0.3205 H         1 <0>         0.0621
     38 H13        -2.1030    5.3477    1.4025 H         1 <0>         0.0582
     39 H14        -0.8227    5.5411    0.1813 H         1 <0>         0.0538
     40 H15         1.3747   -0.1027    1.2934 H         1 <0>         0.1718
     41 H16        -1.0092   -1.0531    7.0392 H         1 <0>         0.1269
     42 H17        -0.5738   -1.5464    9.4093 H         1 <0>         0.1327
     43 H18         0.5009    2.5299   10.0772 H         1 <0>         0.1332
     44 H19         0.0785    3.0393    7.7082 H         1 <0>         0.1289
     45 H20        -2.3380    3.9140    6.3575 H         1 <0>         0.0859
     46 H21        -3.6645    3.0570    5.5364 H         1 <0>         0.0804
     47 H22        -2.9555    2.3832    7.0235 H         1 <0>         0.0852
     48 H23         3.6059   -0.7308    3.3921 H         1 <0>         0.0905
     49 H24         2.6379   -1.9864    4.2013 H         1 <0>         0.0875
     50 H25         2.6301   -1.8630    2.4256 H         1 <0>         0.0846
@<TRIPOS>BOND
     1    1    2 1
     2    1   26 1
     3    1   27 1
     4    1   28 1
     5    2    3 1
     6    2   29 1
     7    2   30 1
     8    3    4 1
     9    3   31 1
    10    3   32 1
    11    4    5 1
    12    4    8 1
    13    5    6 1
    14    5   33 1
    15    5   34 1
    16    6    7 1
    17    6   35 1
    18    6   36 1
    19    7   37 1
    20    7   38 1
    21    7   39 1
    22    8   13 1
    23    8    9 2
    24    9   10 1
    25    9   40 1
    26   10   11 2
    27   10   25 1
    28   11   12 1
    29   12   16 2
    30   12   13 1
    31   13   14 1
    32   14   15 2
    33   15   16 1
    34   15   24 1
    35   16   17 1
    36   17   22 ar
    37   17   18 ar
    38   18   19 ar
    39   18   41 1
    40   19   20 ar
    41   19   42 1
    42   20   21 ar
    43   20   23 1
    44   21   22 ar
    45   21   43 1
    46   22   44 1
    47   24   45 1
    48   24   46 1
    49   24   47 1
    50   25   48 1
    51   25   49 1
    52   25   50 1
@<TRIPOS>MOLECULE
ZINC02511843
   46    48     0     0     0
SMALL
USER_CHARGES

@<TRIPOS>ATOM
      1 C1          1.6534    2.1555    4.3146 C.3       1 <0>        -0.1504
      2 C2          1.0075    1.0928    3.4235 C.3       1 <0>        -0.1460
      3 C3          1.7674   -0.2270    3.5710 C.3       1 <0>         0.1502
      4 N1          1.1489   -1.2446    2.7177 N.pl3     1 <0>        -0.6519
      5 C4          1.5257   -1.3439    1.3054 C.3       1 <0>         0.1805
      6 C5          2.7064   -2.3058    1.1590 C.3       1 <0>        -0.1731
      7 C6          4.0248   -1.7317    0.6363 C.3       1 <0>        -0.1769
      8 C7          3.1763   -2.6369   -0.2589 C.3       1 <0>        -0.1798
      9 C8          0.2067   -2.1140    3.2468 C.ar      1 <0>         0.4753
     10 C9         -1.1535   -1.8444    3.1197 C.ar      1 <0>        -0.2070
     11 C10        -2.0586   -2.7488    3.6680 C.ar      1 <0>         0.4552
     12 N2         -1.5941   -3.8314    4.2897 N.ar      1 <0>        -0.5464
     13 C11        -0.2991   -4.0507    4.3888 C.ar      1 <0>         0.3750
     14 N3          0.5893   -3.2217    3.8791 N.ar      1 <0>        -0.5466
     15 C12         0.1806   -5.2891    5.1011 C.3       1 <0>        -0.0854
     16 N4         -3.4247   -2.5257    3.5687 N.pl3     1 <0>        -0.6529
     17 C13        -4.3223   -3.3766    4.2240 C.ar      1 <0>         0.1724
     18 C14        -5.2136   -2.8626    5.1578 C.ar      1 <0>        -0.0278
     19 C15        -6.0987   -3.7055    5.8032 C.ar      1 <0>        -0.0873
     20 C16        -6.0978   -5.0600    5.5203 C.ar      1 <0>        -0.0176
     21 C17        -5.2114   -5.5750    4.5908 C.ar      1 <0>        -0.0872
     22 C18        -4.3278   -4.7364    3.9378 C.ar      1 <0>         0.0007
     23 Cl1        -3.2214   -5.3822    2.7663 Cl        1 <0>        -0.0241
     24 Cl2        -7.2106   -6.1155    6.3334 Cl        1 <0>        -0.0388
     25 Cl3        -5.2151   -1.1635    5.5139 Cl        1 <0>        -0.0337
     26 Cl4        -1.7060   -0.4175    2.2997 Cl        1 <0>        -0.0369
     27 H1          2.6917    2.2987    4.0152 H         1 <0>         0.0550
     28 H2          1.1121    3.0957    4.2096 H         1 <0>         0.0555
     29 H3          1.6167    1.8293    5.3540 H         1 <0>         0.0530
     30 H4         -0.0307    0.9496    3.7229 H         1 <0>         0.0657
     31 H5          1.0442    1.4190    2.3841 H         1 <0>         0.0633
     32 H6          2.8057   -0.0838    3.2715 H         1 <0>         0.0728
     33 H7          1.7307   -0.5532    4.6104 H         1 <0>         0.0652
     34 H8          0.6793   -1.7172    0.7290 H         1 <0>         0.0671
     35 H9          1.8112   -0.3592    0.9355 H         1 <0>         0.0777
     36 H10         2.7629   -3.0979    1.9057 H         1 <0>         0.1110
     37 H11         4.0509   -0.6687    0.3968 H         1 <0>         0.0929
     38 H12         4.9490   -2.1459    1.0393 H         1 <0>         0.0917
     39 H13         3.5423   -3.6467   -0.4450 H         1 <0>         0.0927
     40 H14         2.6442   -2.1694   -1.0875 H         1 <0>         0.0930
     41 H15         0.2764   -6.1057    4.3856 H         1 <0>         0.0888
     42 H16         1.1496   -5.0922    5.5597 H         1 <0>         0.0891
     43 H17        -0.5375   -5.5651    5.8734 H         1 <0>         0.0877
     44 H18        -3.7576   -1.7800    3.0452 H         1 <0>         0.4276
     45 H19        -6.7915   -3.3066    6.5294 H         1 <0>         0.1556
     46 H20        -5.2131   -6.6326    4.3721 H         1 <0>         0.1550
@<TRIPOS>BOND
     1    1    2 1
     2    1   27 1
     3    1   28 1
     4    1   29 1
     5    2    3 1
     6    2   30 1
     7    2   31 1
     8    3    4 1
     9    3   32 1
    10    3   33 1
    11    4    5 1
    12    4    9 1
    13    5    6 1
    14    5   34 1
    15    5   35 1
    16    6    8 1
    17    6    7 1
    18    6   36 1
    19    7    8 1
    20    7   37 1
    21    7   38 1
    22    8   39 1
    23    8   40 1
    24    9   14 ar
    25    9   10 ar
    26   10   11 ar
    27   10   26 1
    28   11   12 ar
    29   11   16 1
    30   12   13 ar
    31   13   14 ar
    32   13   15 1
    33   15   41 1
    34   15   42 1
    35   15   43 1
    36   16   17 1
    37   16   44 1
    38   17   22 ar
    39   17   18 ar
    40   18   19 ar
    41   18   25 1
    42   19   20 ar
    43   19   45 1
    44   20   21 ar
    45   20   24 1
    46   21   22 ar
    47   21   46 1
    48   22   23 1
@<TRIPOS>MOLECULE
ZINC34023590
   58    60     0     0     0
SMALL
USER_CHARGES

@<TRIPOS>ATOM
      1 C1         -0.0184    1.5028    0.0103 C.3       1 <0>        -0.1098
      2 C2          0.0021   -0.0041    0.0020 C.ar      1 <0>        -0.0265
      3 C3          0.0057   -0.6881   -1.1960 C.ar      1 <0>        -0.1530
      4 C4          0.0245   -2.0757   -1.2046 C.ar      1 <0>         0.1315
      5 C5          0.0392   -2.7804   -0.0087 C.ar      1 <0>        -0.2126
      6 C6          0.0356   -2.1032    1.1928 C.ar      1 <0>        -0.0564
      7 C7          0.0231   -0.7085    1.2052 C.ar      1 <0>        -0.0275
      8 C8          0.0259    0.0229    2.4942 C.2       1 <0>        -0.1982
      9 C9         -1.1006    0.4132    3.2316 C.2       1 <0>         0.1481
     10 N1         -0.7031    1.0362    4.3137 N.2       1 <0>        -0.3180
     11 N2          0.6931    1.0807    4.3319 N.pl3     1 <0>        -0.3792
     12 C10         1.1498    0.4460    3.2029 C.2       1 <0>         0.3275
     13 N3          2.4696    0.3505    2.9885 N.2       1 <0>        -0.5425
     14 C11         3.3167    0.8585    3.8550 C.2       1 <0>         0.3981
     15 N4          2.8936    1.4739    4.9562 N.2       1 <0>        -0.6079
     16 C12         1.6037    1.6015    5.2101 C.2       1 <0>         0.6715
     17 N5          1.1820    2.2369    6.3487 N.pl3     1 <0>        -0.5463
     18 C13         2.1634    2.7919    7.2841 C.3       1 <0>         0.1317
     19 C14         2.4739    4.2395    6.8982 C.3       1 <0>         0.0439
     20 O1          1.3007    5.0385    7.0629 O.3       1 <0>        -0.3901
     21 C15         1.4835    6.4155    6.7275 C.3       1 <0>         0.0326
     22 C16        -0.2503    2.3612    6.6305 C.3       1 <0>         0.1069
     23 C17        -0.7178    1.1501    7.4401 C.3       1 <0>         0.0519
     24 O2         -0.0791    1.1564    8.7184 O.3       1 <0>        -0.3906
     25 C18        -0.4486    0.0609    9.5582 C.3       1 <0>         0.0328
     26 C19         4.7968    0.7412    3.5968 C.3       1 <0>        -0.0841
     27 C20        -2.5343    0.1584    2.8432 C.3       1 <0>        -0.0780
     28 O3          0.0281   -2.7465   -2.3870 O.3       1 <0>        -0.3186
     29 C21         0.0477   -4.1740   -2.3230 C.3       1 <0>         0.0274
     30 H1          1.0042    1.8801    0.0026 H         1 <0>         0.0697
     31 H2         -0.5455    1.8639   -0.8728 H         1 <0>         0.0673
     32 H3         -0.5286    1.8543    0.9071 H         1 <0>         0.0648
     33 H4         -0.0064   -0.1431   -2.1283 H         1 <0>         0.1301
     34 H5          0.0531   -3.8603   -0.0191 H         1 <0>         0.1269
     35 H6          0.0467   -2.6520    2.1228 H         1 <0>         0.1200
     36 H7          1.7574    2.7646    8.2953 H         1 <0>         0.1065
     37 H8          3.0784    2.2009    7.2438 H         1 <0>         0.1095
     38 H9          3.2681    4.6238    7.5382 H         1 <0>         0.0668
     39 H10         2.7958    4.2770    5.8575 H         1 <0>         0.0537
     40 H11         1.7848    6.4982    5.6832 H         1 <0>         0.0389
     41 H12         0.5478    6.9538    6.8793 H         1 <0>         0.0868
     42 H13         2.2571    6.8450    7.3640 H         1 <0>         0.0432
     43 H14        -0.4305    3.2718    7.2019 H         1 <0>         0.1058
     44 H15        -0.8027    2.4059    5.6919 H         1 <0>         0.1264
     45 H16        -1.7985    1.1975    7.5737 H         1 <0>         0.0657
     46 H17        -0.4573    0.2350    6.9083 H         1 <0>         0.0473
     47 H18         0.0785    0.1380   10.5091 H         1 <0>         0.0873
     48 H19        -1.5238    0.0857    9.7358 H         1 <0>         0.0426
     49 H20        -0.1825   -0.8768    9.0704 H         1 <0>         0.0377
     50 H21         4.9611    0.2122    2.6581 H         1 <0>         0.0921
     51 H22         5.2347    1.7374    3.5340 H         1 <0>         0.0919
     52 H23         5.2652    0.1892    4.4117 H         1 <0>         0.0922
     53 H24        -2.8582   -0.7971    3.2558 H         1 <0>         0.0858
     54 H25        -3.1644    0.9562    3.2361 H         1 <0>         0.0801
     55 H26        -2.6171    0.1317    1.7567 H         1 <0>         0.0859
     56 H27        -0.8351   -4.5259   -1.7893 H         1 <0>         0.0553
     57 H28         0.0485   -4.5830   -3.3334 H         1 <0>         0.0996
     58 H29         0.9447   -4.5018   -1.7976 H         1 <0>         0.0554
@<TRIPOS>BOND
     1    1    2 1
     2    1   30 1
     3    1   31 1
     4    1   32 1
     5    2    7 ar
     6    2    3 ar
     7    3    4 ar
     8    3   33 1
     9    4    5 ar
    10    4   28 1
    11    5    6 ar
    12    5   34 1
    13    6    7 ar
    14    6   35 1
    15    7    8 1
    16    8   12 2
    17    8    9 1
    18    9   10 2
    19    9   27 1
    20   10   11 1
    21   11   16 1
    22   11   12 1
    23   12   13 1
    24   13   14 2
    25   14   15 1
    26   14   26 1
    27   15   16 2
    28   16   17 1
    29   17   18 1
    30   17   22 1
    31   18   19 1
    32   18   36 1
    33   18   37 1
    34   19   20 1
    35   19   38 1
    36   19   39 1
    37   20   21 1
    38   21   40 1
    39   21   41 1
    40   21   42 1
    41   22   23 1
    42   22   43 1
    43   22   44 1
    44   23   24 1
    45   23   45 1
    46   23   46 1
    47   24   25 1
    48   25   47 1
    49   25   48 1
    50   25   49 1
    51   26   50 1
    52   26   51 1
    53   26   52 1
    54   27   53 1
    55   27   54 1
    56   27   55 1
    57   28   29 1
    58   29   56 1
    59   29   57 1
    60   29   58 1
@<TRIPOS>MOLECULE
ZINC01539133
   59    61     0     0     0
SMALL
USER_CHARGES
N-butyl-N-ethyl-4,9-dimethyl-7-(2,4,6-trimethylphenyl)-3,5,7-triazabicyclo[4.3.0]nona-2,4,8,10-tetraen-2-amine
@<TRIPOS>ATOM
      1 C1          0.0401    7.9356    1.8211 C.3       1 <0>        -0.1516
      2 C2         -0.1899    6.4357    2.0171 C.3       1 <0>        -0.1236
      3 C3          0.5897    5.6572    0.9555 C.3       1 <0>        -0.1136
      4 C4          0.3596    4.1573    1.1515 C.3       1 <0>         0.0645
      5 N1          1.2057    3.4057    0.2150 N.pl3     1 <0>        -0.4835
      6 C5          0.7032    3.5249   -1.1603 C.3       1 <0>         0.0499
      7 C6          1.8175    3.1613   -2.1437 C.3       1 <0>        -0.1460
      8 C7          1.3058    2.0788    0.5928 C.ar      1 <0>         0.4054
      9 C8          2.5355    1.5369    0.9973 C.ar      1 <0>        -0.1823
     10 C9          3.8957    2.0521    1.1449 C.2       1 <0>        -0.1171
     11 C10         4.6538    1.0319    1.5788 C.2       1 <0>         0.0474
     12 N2          3.8814   -0.0942    1.7191 N.pl3     1 <0>        -0.4122
     13 C11         2.5850    0.1817    1.3721 C.ar      1 <0>         0.3360
     14 N3          1.4618   -0.5327    1.3279 N.ar      1 <0>        -0.5275
     15 C12         0.3307    0.0169    0.9421 C.ar      1 <0>         0.3479
     16 N4          0.2394    1.2846    0.5820 N.ar      1 <0>        -0.5663
     17 C13        -0.9121   -0.8348    0.9092 C.3       1 <0>        -0.0807
     18 C14         4.3495   -1.3414    2.1534 C.ar      1 <0>         0.0998
     19 C15         4.8158   -2.2690    1.2314 C.ar      1 <0>        -0.0531
     20 C16         5.2824   -3.4952    1.6632 C.ar      1 <0>        -0.1225
     21 C17         5.2744   -3.8040    3.0110 C.ar      1 <0>        -0.0595
     22 C18         4.8049   -2.8846    3.9311 C.ar      1 <0>        -0.1225
     23 C19         4.3428   -1.6544    3.5061 C.ar      1 <0>        -0.0531
     24 C20         3.8322   -0.6527    4.5096 C.3       1 <0>        -0.1163
     25 C21         5.7779   -5.1453    3.4782 C.3       1 <0>        -0.1185
     26 C22         4.8186   -1.9358   -0.2383 C.3       1 <0>        -0.1144
     27 C23         4.3584    3.4587    0.8648 C.3       1 <0>        -0.0791
     28 H1         -0.5153    8.4903    2.5773 H         1 <0>         0.0539
     29 H2          1.1033    8.1557    1.9168 H         1 <0>         0.0549
     30 H3         -0.3039    8.2294    0.8293 H         1 <0>         0.0539
     31 H4         -1.2532    6.2157    1.9214 H         1 <0>         0.0607
     32 H5          0.1541    6.1420    3.0088 H         1 <0>         0.0614
     33 H6          1.6529    5.8773    1.0512 H         1 <0>         0.0738
     34 H7          0.2457    5.9509   -0.0362 H         1 <0>         0.0643
     35 H8         -0.6880    3.9228    0.9633 H         1 <0>         0.0505
     36 H9          0.6157    3.8811    2.1744 H         1 <0>         0.0709
     37 H10        -0.1394    2.8475   -1.2993 H         1 <0>         0.0551
     38 H11         0.3791    4.5497   -1.3411 H         1 <0>         0.0845
     39 H12         1.4739    3.3368   -3.1631 H         1 <0>         0.0620
     40 H13         2.6937    3.7782   -1.9443 H         1 <0>         0.0660
     41 H14         2.0787    2.1098   -2.0243 H         1 <0>         0.0459
     42 H15         5.7122    1.0888    1.7861 H         1 <0>         0.1765
     43 H16        -1.0067   -1.3017   -0.0713 H         1 <0>         0.0838
     44 H17        -0.8432   -1.6079    1.6745 H         1 <0>         0.0834
     45 H18        -1.7852   -0.2110    1.1004 H         1 <0>         0.0851
     46 H19         5.6496   -4.2153    0.9470 H         1 <0>         0.1305
     47 H20         4.7999   -3.1286    4.9832 H         1 <0>         0.1305
     48 H21         2.7622   -0.7991    4.6570 H         1 <0>         0.0729
     49 H22         4.3519   -0.7909    5.4577 H         1 <0>         0.0732
     50 H23         4.0133    0.3566    4.1398 H         1 <0>         0.0663
     51 H24         4.9526   -5.8572    3.4959 H         1 <0>         0.0755
     52 H25         6.5501   -5.5012    2.7961 H         1 <0>         0.0700
     53 H26         6.1952   -5.0479    4.4804 H         1 <0>         0.0700
     54 H27         5.7669   -1.4682   -0.5030 H         1 <0>         0.0755
     55 H28         4.6897   -2.8497   -0.8183 H         1 <0>         0.0724
     56 H29         4.0012   -1.2486   -0.4566 H         1 <0>         0.0626
     57 H30         4.3218    4.0431    1.7842 H         1 <0>         0.0643
     58 H31         5.3813    3.4366    0.4888 H         1 <0>         0.0604
     59 H32         3.7068    3.9137    0.1188 H         1 <0>         0.0820
@<TRIPOS>BOND
     1    1    2 1
     2    1   28 1
     3    1   29 1
     4    1   30 1
     5    2    3 1
     6    2   31 1
     7    2   32 1
     8    3    4 1
     9    3   33 1
    10    3   34 1
    11    4    5 1
    12    4   35 1
    13    4   36 1
    14    5    6 1
    15    5    8 1
    16    6    7 1
    17    6   37 1
    18    6   38 1
    19    7   39 1
    20    7   40 1
    21    7   41 1
    22    8   16 ar
    23    8    9 ar
    24    9   13 ar
    25    9   10 1
    26   10   11 2
    27   10   27 1
    28   11   12 1
    29   11   42 1
    30   12   13 1
    31   12   18 1
    32   13   14 ar
    33   14   15 ar
    34   15   16 ar
    35   15   17 1
    36   17   43 1
    37   17   44 1
    38   17   45 1
    39   18   23 ar
    40   18   19 ar
    41   19   20 ar
    42   19   26 1
    43   20   21 ar
    44   20   46 1
    45   21   22 ar
    46   21   25 1
    47   22   23 ar
    48   22   47 1
    49   23   24 1
    50   24   48 1
    51   24   49 1
    52   24   50 1
    53   25   51 1
    54   25   52 1
    55   25   53 1
    56   26   54 1
    57   26   55 1
    58   26   56 1
    59   27   57 1
    60   27   58 1
    61   27   59 1
@<TRIPOS>MOLECULE
ZINC34007762
   49    51     0     0     0
SMALL
USER_CHARGES

@<TRIPOS>ATOM
      1 C1         -0.0187    1.5258    0.0104 C.3       1 <0>        -0.1558
      2 C2          0.0021   -0.0041    0.0020 C.3       1 <0>        -0.1340
      3 C3          0.7182   -0.4975   -1.2568 C.3       1 <0>         0.1508
      4 H1          1.7103   -0.0491   -1.3098 H         1 <0>         0.1033
      5 C4          0.8493   -2.0210   -1.2049 C.3       1 <0>        -0.1656
      6 N1         -0.0549   -0.1139   -2.4405 N.pl3     1 <0>        -0.6703
      7 C5          0.5714    0.0303   -3.6509 C.2       1 <0>         0.6773
      8 N2          1.8708   -0.1803   -3.7588 N.2       1 <0>        -0.5993
      9 C6          2.4914   -0.0439   -4.9279 C.2       1 <0>         0.3989
     10 N3          1.8361    0.3043   -6.0122 N.2       1 <0>        -0.5423
     11 C7          0.5158    0.5298   -5.9569 C.2       1 <0>         0.3285
     12 N4         -0.1439    0.3883   -4.7606 N.pl3     1 <0>        -0.3828
     13 N5         -1.4945    0.6707   -4.9798 N.2       1 <0>        -0.3138
     14 C8         -1.6735    0.9672   -6.2437 C.2       1 <0>         0.1516
     15 C9         -0.4380    0.9028   -6.9032 C.2       1 <0>        -0.1978
     16 C10        -0.1941    1.1652   -8.3414 C.ar      1 <0>        -0.0777
     17 C11        -0.2919    0.1302   -9.2787 C.ar      1 <0>        -0.0212
     18 C12        -0.0561    0.4239  -10.6082 C.ar      1 <0>        -0.1947
     19 C13         0.2678    1.7264  -10.9687 C.ar      1 <0>         0.3248
     20 N6          0.3527    2.6823  -10.0588 N.ar      1 <0>        -0.5393
     21 C14         0.1300    2.4464   -8.7808 C.ar      1 <0>         0.1887
     22 C15         0.2335    3.5728   -7.7851 C.3       1 <0>        -0.0994
     23 O1          0.5006    2.0215  -12.2729 O.3       1 <0>        -0.3088
     24 C16         0.8292    3.3773  -12.5827 C.3       1 <0>         0.0406
     25 C17        -2.9897    1.3309   -6.8811 C.3       1 <0>        -0.0784
     26 C18         3.9754   -0.2932   -5.0098 C.3       1 <0>        -0.0848
     27 H2          1.0039    1.9031    0.0027 H         1 <0>         0.0581
     28 H3         -0.5459    1.8868   -0.8726 H         1 <0>         0.0522
     29 H4         -0.5289    1.8773    0.9072 H         1 <0>         0.0612
     30 H5          0.5293   -0.3651    0.8851 H         1 <0>         0.0888
     31 H6         -1.0205   -0.3814    0.0098 H         1 <0>         0.0711
     32 H7          1.3594   -2.3725   -2.1017 H         1 <0>         0.0643
     33 H8          1.4245   -2.3064   -0.3242 H         1 <0>         0.0749
     34 H9         -0.1428   -2.4694   -1.1520 H         1 <0>         0.0578
     35 H10        -1.0102    0.0381   -2.3676 H         1 <0>         0.4218
     36 H11        -0.5451   -0.8734   -8.9703 H         1 <0>         0.1378
     37 H12        -0.1224   -0.3501  -11.3585 H         1 <0>         0.1418
     38 H13         1.2564    3.6368   -7.4140 H         1 <0>         0.0769
     39 H14        -0.0369    4.5114   -8.2688 H         1 <0>         0.0766
     40 H15        -0.4440    3.3849   -6.9522 H         1 <0>         0.0723
     41 H16         0.9901    3.4759  -13.6562 H         1 <0>         0.0956
     42 H17         0.0105    4.0285  -12.2767 H         1 <0>         0.0586
     43 H18         1.7375    3.6614  -12.0515 H         1 <0>         0.0586
     44 H19        -3.1336    2.4100   -6.8272 H         1 <0>         0.0875
     45 H20        -2.9872    1.0163   -7.9248 H         1 <0>         0.0849
     46 H21        -3.8003    0.8294   -6.3525 H         1 <0>         0.0816
     47 H22         4.3522   -0.5697   -4.0252 H         1 <0>         0.0912
     48 H23         4.1695   -1.1025   -5.7137 H         1 <0>         0.0939
     49 H24         4.4777    0.6124   -5.3499 H         1 <0>         0.0940
@<TRIPOS>BOND
     1    1    2 1
     2    1   27 1
     3    1   28 1
     4    1   29 1
     5    2    3 1
     6    2   30 1
     7    2   31 1
     8    3    4 1
     9    3    5 1
    10    3    6 1
    11    5   32 1
    12    5   33 1
    13    5   34 1
    14    6    7 1
    15    6   35 1
    16    7   12 1
    17    7    8 2
    18    8    9 1
    19    9   10 2
    20    9   26 1
    21   10   11 1
    22   11   15 2
    23   11   12 1
    24   12   13 1
    25   13   14 2
    26   14   15 1
    27   14   25 1
    28   15   16 1
    29   16   21 ar
    30   16   17 ar
    31   17   18 ar
    32   17   36 1
    33   18   19 ar
    34   18   37 1
    35   19   20 ar
    36   19   23 1
    37   20   21 ar
    38   21   22 1
    39   22   38 1
    40   22   39 1
    41   22   40 1
    42   23   24 1
    43   24   41 1
    44   24   42 1
    45   24   43 1
    46   25   44 1
    47   25   45 1
    48   25   46 1
    49   26   47 1
    50   26   48 1
    51   26   49 1
@<TRIPOS>MOLECULE
ZINC13473554
   34    35     0     0     0
SMALL
USER_CHARGES

@<TRIPOS>ATOM
      1 C1          0.3676    1.4602    0.0251 C.3       1 <0>        -0.1843
      2 C2         -0.2247    0.0747    0.0010 C.2       1 <0>         0.4264
      3 O1         -0.6125   -0.4367    1.0293 O.2       1 <0>        -0.4381
      4 C3         -0.3326   -0.6592   -1.2742 C.2       1 <0>         0.3610
      5 N1         -0.7485   -1.9769   -1.2799 N.pl3     1 <0>        -0.5176
      6 N2         -1.0619   -2.6177   -0.0741 N.pl3     1 <0>        -0.5452
      7 C4         -1.6068   -3.9037   -0.0878 C.ar      1 <0>         0.2094
      8 C5         -1.8333   -4.5510   -1.2958 C.ar      1 <0>        -0.2010
      9 C6         -2.3717   -5.8227   -1.3057 C.ar      1 <0>        -0.0663
     10 C7         -2.6858   -6.4515   -0.1149 C.ar      1 <0>        -0.1731
     11 C8         -2.4620   -5.8099    1.0895 C.ar      1 <0>        -0.0653
     12 C9         -1.9181   -4.5406    1.1068 C.ar      1 <0>        -0.1837
     13 N3         -0.0343   -0.0621   -2.4005 N.2       1 <0>        -0.5073
     14 C10        -0.0120   -0.7728   -3.5640 C.ar      1 <0>         0.1150
     15 C11         0.7999   -1.9065   -3.6799 C.ar      1 <0>        -0.1662
     16 C12         0.8174   -2.6201   -4.8592 C.ar      1 <0>        -0.0826
     17 C13         0.0345   -2.2182   -5.9277 C.ar      1 <0>        -0.1249
     18 C14        -0.7721   -1.0972   -5.8215 C.ar      1 <0>        -0.0136
     19 C15        -0.8048   -0.3757   -4.6455 C.ar      1 <0>        -0.1120
     20 Cl1        -1.7496   -0.6029   -7.1683 Cl        1 <0>        -0.0607
     21 H1          1.4440    1.3925    0.1832 H         1 <0>         0.1099
     22 H2          0.1704    1.9563   -0.9252 H         1 <0>         0.1087
     23 H3         -0.0831    2.0340    0.8349 H         1 <0>         0.0985
     24 H4         -0.9005   -2.1683    0.7702 H         1 <0>         0.4361
     25 H5         -1.5889   -4.0601   -2.2263 H         1 <0>         0.1098
     26 H6         -2.5480   -6.3265   -2.2446 H         1 <0>         0.1237
     27 H7         -3.1071   -7.4459   -0.1254 H         1 <0>         0.1224
     28 H8         -2.7091   -6.3036    2.0177 H         1 <0>         0.1271
     29 H9         -1.7391   -4.0419    2.0480 H         1 <0>         0.1256
     30 H10         1.4118   -2.2215   -2.8476 H         1 <0>         0.1286
     31 H11         1.4440   -3.4951   -4.9499 H         1 <0>         0.1369
     32 H12         0.0530   -2.7814   -6.8491 H         1 <0>         0.1371
     33 H13        -1.4377    0.4955   -4.5620 H         1 <0>         0.1404
     34 H14        -0.8235   -2.4582   -2.1187 H         1 <0>         0.4252
@<TRIPOS>BOND
     1    1    2 1
     2    1   21 1
     3    1   22 1
     4    1   23 1
     5    2    3 2
     6    2    4 1
     7    4    5 1
     8    4   13 2
     9    5    6 1
    10    5   34 1
    11    6    7 1
    12    6   24 1
    13    7   12 ar
    14    7    8 ar
    15    8    9 ar
    16    8   25 1
    17    9   10 ar
    18    9   26 1
    19   10   11 ar
    20   10   27 1
    21   11   12 ar
    22   11   28 1
    23   12   29 1
    24   13   14 1
    25   14   19 ar
    26   14   15 ar
    27   15   16 ar
    28   15   30 1
    29   16   17 ar
    30   16   31 1
    31   17   18 ar
    32   17   32 1
    33   18   19 ar
    34   18   20 1
    35   19   33 1
@<TRIPOS>MOLECULE
ZINC13473554
   35    36     0     0     0
SMALL
USER_CHARGES

@<TRIPOS>ATOM
      1 C1          0.2256   -0.3430    1.1470 C.3       1 <0>        -0.2023
      2 C2          0.6329    0.2180   -0.1911 C.2       1 <0>         0.3894
      3 O1          0.9381    1.3891   -0.2910 O.2       1 <0>        -0.3843
      4 C3          0.6596   -0.6204   -1.3317 C.cat     1 <0>         0.4092
      5 N1          0.1488   -1.9221   -1.2560 N.pl3     1 <0>        -0.5878
      6 C4          0.2904   -2.7917   -2.3394 C.ar      1 <0>         0.0946
      7 C5          1.4855   -2.8332   -3.0476 C.ar      1 <0>        -0.1733
      8 C6          1.6227   -3.6940   -4.1184 C.ar      1 <0>        -0.0618
      9 C7          0.5726   -4.5149   -4.4871 C.ar      1 <0>        -0.0898
     10 C8         -0.6193   -4.4764   -3.7849 C.ar      1 <0>        -0.0041
     11 C9         -0.7610   -3.6213   -2.7081 C.ar      1 <0>        -0.1002
     12 Cl1        -1.9348   -5.5084   -4.2519 Cl        1 <0>        -0.0226
     13 N2          1.1621   -0.1784   -2.4576 N.pl3     1 <0>        -0.3241
     14 N3          1.5468    1.1637   -2.5740 N.pl3     1 <0>        -0.5099
     15 C10         1.9461    1.6699   -3.8108 C.ar      1 <0>         0.1481
     16 C11         1.9576    0.8458   -4.9302 C.ar      1 <0>        -0.1809
     17 C12         2.3536    1.3506   -6.1528 C.ar      1 <0>        -0.0689
     18 C13         2.7384    2.6743   -6.2646 C.ar      1 <0>        -0.1292
     19 C14         2.7282    3.4974   -5.1532 C.ar      1 <0>        -0.0658
     20 C15         2.3280    3.0013   -3.9283 C.ar      1 <0>        -0.1393
     21 H1         -0.8412   -0.1796    1.3001 H         1 <0>         0.1359
     22 H2          0.4366   -1.4121    1.1722 H         1 <0>         0.1031
     23 H3          0.7867    0.1568    1.9366 H         1 <0>         0.1303
     24 H4          2.3061   -2.1923   -2.7608 H         1 <0>         0.1348
     25 H5          2.5513   -3.7260   -4.6690 H         1 <0>         0.1575
     26 H6          0.6828   -5.1872   -5.3251 H         1 <0>         0.1566
     27 H7         -1.6894   -3.5950   -2.1569 H         1 <0>         0.1570
     28 H8          1.2680   -0.7804   -3.2108 H         1 <0>         0.4500
     29 H9          1.5354    1.7409   -1.7945 H         1 <0>         0.4533
     30 H10         1.6576   -0.1880   -4.8435 H         1 <0>         0.1112
     31 H11         2.3632    0.7108   -7.0229 H         1 <0>         0.1383
     32 H12         3.0480    3.0662   -7.2222 H         1 <0>         0.1383
     33 H13         3.0294    4.5305   -5.2443 H         1 <0>         0.1437
     34 H14         2.3157    3.6459   -3.0618 H         1 <0>         0.1389
     35 H15        -0.3034   -2.2196   -0.4511 H         1 <0>         0.4546
@<TRIPOS>BOND
     1    1    2 1
     2    1   21 1
     3    1   22 1
     4    1   23 1
     5    2    3 2
     6    2    4 1
     7    4    5 1
     8    4   13 2
     9    5    6 1
    10    5   35 1
    11    6   11 ar
    12    6    7 ar
    13    7    8 ar
    14    7   24 1
    15    8    9 ar
    16    8   25 1
    17    9   10 ar
    18    9   26 1
    19   10   11 ar
    20   10   12 1
    21   11   27 1
    22   13   14 1
    23   13   28 1
    24   14   15 1
    25   14   29 1
    26   15   20 ar
    27   15   16 ar
    28   16   17 ar
    29   16   30 1
    30   17   18 ar
    31   17   31 1
    32   18   19 ar
    33   18   32 1
    34   19   20 ar
    35   19   33 1
    36   20   34 1
@<TRIPOS>MOLECULE
ZINC09306405
   43    46     0     0     0
SMALL
USER_CHARGES
3-(2,4-dichlorophenyl)-2,5-dimethyl-7-morpholino-pyrazolo[1,5-a]pyrimidine
@<TRIPOS>ATOM
      1 C1          1.2653   -2.1744   -0.0222 C.3       1 <0>        -0.1085
      2 C2          1.2283   -0.6679   -0.0133 C.2       1 <0>         0.2345
      3 C3          0.0021   -0.0041    0.0020 C.2       1 <0>        -0.2922
      4 C4         -0.0166    1.3749    0.0096 C.2       1 <0>         0.4009
      5 N1          1.1746    2.0519    0.0019 N.pl3     1 <0>        -0.3197
      6 C5          2.3521    1.3517   -0.0132 C.2       1 <0>         0.3199
      7 N2          2.3534    0.0146   -0.0204 N.2       1 <0>        -0.4877
      8 C6          3.3842    2.2981   -0.0175 C.2       1 <0>        -0.2228
      9 C7          2.7859    3.5637   -0.0047 C.2       1 <0>         0.1504
     10 N3          1.4839    3.4162    0.0067 N.2       1 <0>        -0.3130
     11 C8          3.5192    4.8803   -0.0046 C.3       1 <0>        -0.0789
     12 C9          4.8378    2.0132   -0.0332 C.ar      1 <0>         0.0303
     13 C10         5.5120    1.8801   -1.2469 C.ar      1 <0>        -0.0774
     14 C11         6.8671    1.6210   -1.2558 C.ar      1 <0>        -0.1046
     15 C12         7.5561    1.4806   -0.0629 C.ar      1 <0>        -0.0244
     16 C13         6.8919    1.6059    1.1451 C.ar      1 <0>        -0.1040
     17 C14         5.5369    1.8713    1.1663 C.ar      1 <0>        -0.0091
     18 Cl1         4.7047    2.0277    2.6818 Cl        1 <0>        -0.0543
     19 Cl2         9.2596    1.1468   -0.0824 Cl        1 <0>        -0.0585
     20 N4         -1.2123    2.0599    0.0190 N.pl3     1 <0>        -0.4781
     21 C15        -1.2861    2.9752    1.1671 C.3       1 <0>         0.0146
     22 C16        -2.6010    3.7570    1.1058 C.3       1 <0>         0.0652
     23 O1         -3.6957    2.8373    1.0754 O.3       1 <0>        -0.3788
     24 C17        -3.6559    1.9312   -0.0303 C.3       1 <0>         0.0628
     25 C18        -2.3517    1.1308    0.0194 C.3       1 <0>         0.0138
     26 H1          1.2645   -2.5318   -1.0520 H         1 <0>         0.0922
     27 H2          2.1687   -2.5187    0.4812 H         1 <0>         0.0876
     28 H3          0.3893   -2.5624    0.4977 H         1 <0>         0.0850
     29 H4         -0.9219   -0.5632    0.0075 H         1 <0>         0.1682
     30 H5          3.6860    5.2033   -1.0321 H         1 <0>         0.0876
     31 H6          2.9236    5.6279    0.5192 H         1 <0>         0.0815
     32 H7          4.4785    4.7618    0.4993 H         1 <0>         0.0836
     33 H8          4.9751    1.9845   -2.1782 H         1 <0>         0.1388
     34 H9          7.3907    1.5225   -2.1953 H         1 <0>         0.1410
     35 H10         7.4342    1.4954    2.0725 H         1 <0>         0.1442
     36 H11        -1.2466    2.4015    2.0931 H         1 <0>         0.0605
     37 H12        -0.4473    3.6704    1.1328 H         1 <0>         0.1155
     38 H13        -2.6172    4.3720    0.2060 H         1 <0>         0.0677
     39 H14        -2.6866    4.3959    1.9848 H         1 <0>         0.1105
     40 H15        -3.7027    2.4930   -0.9632 H         1 <0>         0.0663
     41 H16        -4.5040    1.2489    0.0266 H         1 <0>         0.1127
     42 H17        -2.2907    0.4797   -0.8526 H         1 <0>         0.1049
     43 H18        -2.3292    0.5277    0.9270 H         1 <0>         0.0719
@<TRIPOS>BOND
     1    1    2 1
     2    1   26 1
     3    1   27 1
     4    1   28 1
     5    2    7 2
     6    2    3 1
     7    3    4 2
     8    3   29 1
     9    4    5 1
    10    4   20 1
    11    5   10 1
    12    5    6 1
    13    6    7 1
    14    6    8 2
    15    8    9 1
    16    8   12 1
    17    9   10 2
    18    9   11 1
    19   11   30 1
    20   11   31 1
    21   11   32 1
    22   12   17 ar
    23   12   13 ar
    24   13   14 ar
    25   13   33 1
    26   14   15 ar
    27   14   34 1
    28   15   16 ar
    29   15   19 1
    30   16   17 ar
    31   16   35 1
    32   17   18 1
    33   20   25 1
    34   20   21 1
    35   21   22 1
    36   21   36 1
    37   21   37 1
    38   22   23 1
    39   22   38 1
    40   22   39 1
    41   23   24 1
    42   24   25 1
    43   24   40 1
    44   24   41 1
    45   25   42 1
    46   25   43 1
@<TRIPOS>MOLECULE
ZINC15985867
   37    38     0     0     0
SMALL
USER_CHARGES

@<TRIPOS>ATOM
      1 C1         -0.9215    1.4382    0.1768 C.3       1 <0>        -0.1115
      2 C2         -0.4704    0.0006    0.1448 C.ar      1 <0>        -0.1492
      3 C3         -0.4446   -0.6895   -1.0515 C.ar      1 <0>        -0.0670
      4 C4         -0.0304   -2.0083   -1.0818 C.ar      1 <0>        -0.1687
      5 C5          0.3589   -2.6411    0.0848 C.ar      1 <0>        -0.0714
      6 C6          0.3351   -1.9573    1.2841 C.ar      1 <0>        -0.1980
      7 C7         -0.0747   -0.6301    1.3172 C.ar      1 <0>         0.2132
      8 N1         -0.0941    0.0665    2.5277 N.pl3     1 <0>        -0.5342
      9 N2          0.3054   -0.5713    3.7094 N.pl3     1 <0>        -0.4866
     10 C8          0.2863    0.1178    4.9068 C.2       1 <0>         0.3797
     11 N3         -0.1052    1.3668    4.9372 N.2       1 <0>        -0.5466
     12 C9         -0.2415    2.0097    6.1319 C.ar      1 <0>         0.1340
     13 C10        -1.0680    1.4766    7.1271 C.ar      1 <0>        -0.1690
     14 C11        -1.2009    2.1321    8.3325 C.ar      1 <0>        -0.0823
     15 C12        -0.5194    3.3152    8.5603 C.ar      1 <0>        -0.1277
     16 C13         0.3008    3.8501    7.5806 C.ar      1 <0>        -0.0119
     17 C14         0.4487    3.2025    6.3709 C.ar      1 <0>        -0.1110
     18 Cl1         1.1505    5.3345    7.8779 Cl        1 <0>        -0.0633
     19 C15         0.7070   -0.5538    6.1512 C.2       1 <0>         0.3717
     20 O1          1.7844   -0.2973    6.6439 O.2       1 <0>        -0.4047
     21 C16        -0.2028   -1.5587    6.8097 C.3       1 <0>        -0.2017
     22 H1         -0.0629    2.0919    0.0232 H         1 <0>         0.0701
     23 H2         -1.6528    1.6072   -0.6136 H         1 <0>         0.0723
     24 H3         -1.3750    1.6552    1.1439 H         1 <0>         0.0595
     25 H4         -0.7486   -0.1985   -1.9641 H         1 <0>         0.1263
     26 H5         -0.0112   -2.5455   -2.0185 H         1 <0>         0.1222
     27 H6          0.6815   -3.6714    0.0576 H         1 <0>         0.1239
     28 H7          0.6388   -2.4521    2.1947 H         1 <0>         0.1136
     29 H8         -0.3841    0.9918    2.5501 H         1 <0>         0.4380
     30 H9          0.5955   -1.4966    3.6869 H         1 <0>         0.4348
     31 H10        -1.6008    0.5538    6.9512 H         1 <0>         0.1285
     32 H11        -1.8389    1.7216    9.1012 H         1 <0>         0.1360
     33 H12        -0.6281    3.8242    9.5067 H         1 <0>         0.1358
     34 H13         1.0922    3.6177    5.6094 H         1 <0>         0.1367
     35 H14        -1.1284   -1.6390    6.2398 H         1 <0>         0.0897
     36 H15         0.2906   -2.5301    6.8403 H         1 <0>         0.1105
     37 H16        -0.4285   -1.2336    7.8254 H         1 <0>         0.1083
@<TRIPOS>BOND
     1    1    2 1
     2    1   22 1
     3    1   23 1
     4    1   24 1
     5    2    7 ar
     6    2    3 ar
     7    3    4 ar
     8    3   25 1
     9    4    5 ar
    10    4   26 1
    11    5    6 ar
    12    5   27 1
    13    6    7 ar
    14    6   28 1
    15    7    8 1
    16    8    9 1
    17    8   29 1
    18    9   10 1
    19    9   30 1
    20   10   11 2
    21   10   19 1
    22   11   12 1
    23   12   17 ar
    24   12   13 ar
    25   13   14 ar
    26   13   31 1
    27   14   15 ar
    28   14   32 1
    29   15   16 ar
    30   15   33 1
    31   16   17 ar
    32   16   18 1
    33   17   34 1
    34   19   20 2
    35   19   21 1
    36   21   35 1
    37   21   36 1
    38   21   37 1
@<TRIPOS>MOLECULE
ZINC13473570
   34    35     0     0     0
SMALL
USER_CHARGES

@<TRIPOS>ATOM
      1 C1         -0.7190    0.1443    0.9647 C.3       1 <0>        -0.2020
      2 C2          0.4100   -0.0391   -0.0165 C.2       1 <0>         0.3696
      3 O1          1.4879    0.4725    0.1973 O.2       1 <0>        -0.4021
      4 C3          0.2033   -0.8413   -1.2373 C.2       1 <0>         0.3803
      5 N1          0.0780   -0.2476   -2.3973 N.2       1 <0>        -0.5432
      6 C4          0.1994    1.1077   -2.4862 C.ar      1 <0>         0.1317
      7 C5         -0.6480    1.9397   -1.7463 C.ar      1 <0>        -0.1693
      8 C6         -0.5191    3.3089   -1.8409 C.ar      1 <0>        -0.0821
      9 C7          0.4454    3.8620   -2.6654 C.ar      1 <0>        -0.1250
     10 C8          1.2885    3.0458   -3.4014 C.ar      1 <0>        -0.0124
     11 C9          1.1755    1.6731   -3.3130 C.ar      1 <0>        -0.1077
     12 Cl1         2.4943    3.7509   -4.4322 Cl        1 <0>        -0.0621
     13 N2          0.1421   -2.2193   -1.1563 N.pl3     1 <0>        -0.4894
     14 N3         -0.0541   -2.9811   -2.3156 N.pl3     1 <0>        -0.5283
     15 C10        -0.1160   -4.3746   -2.2337 C.ar      1 <0>         0.2315
     16 C11         0.0112   -5.0057   -1.0028 C.ar      1 <0>        -0.1976
     17 C12        -0.0503   -6.3831   -0.9250 C.ar      1 <0>        -0.0341
     18 C13        -0.2380   -7.1345   -2.0715 C.ar      1 <0>        -0.1462
     19 C14        -0.3650   -6.5087   -3.2990 C.ar      1 <0>        -0.0330
     20 C15        -0.3105   -5.1312   -3.3822 C.ar      1 <0>        -0.1795
     21 Br1        -0.3205   -9.0205   -1.9609 Br        1 <0>        -0.0537
     22 H1         -1.2375    1.0790    0.7514 H         1 <0>         0.1095
     23 H2         -1.4177   -0.6875    0.8743 H         1 <0>         0.0933
     24 H3         -0.3185    0.1739    1.9780 H         1 <0>         0.1063
     25 H4         -1.4016    1.5101   -1.1029 H         1 <0>         0.1278
     26 H5         -1.1727    3.9520   -1.2702 H         1 <0>         0.1361
     27 H6          0.5408    4.9355   -2.7356 H         1 <0>         0.1364
     28 H7          1.8360    1.0375   -3.8841 H         1 <0>         0.1373
     29 H8          0.2350   -2.6593   -0.2968 H         1 <0>         0.4359
     30 H9         -0.1470   -2.5412   -3.1751 H         1 <0>         0.4405
     31 H10         0.1584   -4.4197   -0.1076 H         1 <0>         0.1229
     32 H11         0.0485   -6.8743    0.0317 H         1 <0>         0.1350
     33 H12        -0.5111   -7.0978   -4.1923 H         1 <0>         0.1374
     34 H13        -0.4142   -4.6430   -4.3400 H         1 <0>         0.1360
@<TRIPOS>BOND
     1    1    2 1
     2    1   22 1
     3    1   23 1
     4    1   24 1
     5    2    3 2
     6    2    4 1
     7    4    5 2
     8    4   13 1
     9    5    6 1
    10    6   11 ar
    11    6    7 ar
    12    7    8 ar
    13    7   25 1
    14    8    9 ar
    15    8   26 1
    16    9   10 ar
    17    9   27 1
    18   10   11 ar
    19   10   12 1
    20   11   28 1
    21   13   14 1
    22   13   29 1
    23   14   15 1
    24   14   30 1
    25   15   20 ar
    26   15   16 ar
    27   16   17 ar
    28   16   31 1
    29   17   18 ar
    30   17   32 1
    31   18   19 ar
    32   18   21 1
    33   19   20 ar
    34   19   33 1
    35   20   34 1
@<TRIPOS>MOLECULE
ZINC13473570
   35    36     0     0     0
SMALL
USER_CHARGES

@<TRIPOS>ATOM
      1 C1          1.2321   -0.6746    0.2840 C.3       1 <0>        -0.2080
      2 C2         -0.0070    0.0445   -0.1835 C.2       1 <0>         0.3818
      3 O1         -0.0395    1.2585   -0.1875 O.2       1 <0>        -0.3784
      4 C3         -1.1331   -0.6952   -0.6181 C.cat     1 <0>         0.4201
      5 N1         -1.2038   -2.0721   -0.3724 N.pl3     1 <0>        -0.5801
      6 C4         -2.2558   -2.8227   -0.9016 C.ar      1 <0>         0.0906
      7 C5         -2.7361   -2.5466   -2.1762 C.ar      1 <0>        -0.1693
      8 C6         -3.7760   -3.2906   -2.6971 C.ar      1 <0>        -0.0627
      9 C7         -4.3407   -4.3098   -1.9521 C.ar      1 <0>        -0.0877
     10 C8         -3.8657   -4.5876   -0.6822 C.ar      1 <0>        -0.0052
     11 C9         -2.8207   -3.8505   -0.1574 C.ar      1 <0>        -0.0997
     12 Cl1        -4.5785   -5.8672    0.2496 Cl        1 <0>        -0.0219
     13 N2         -2.1090   -0.0917   -1.2499 N.pl3     1 <0>        -0.3334
     14 N3         -1.9657    1.2440   -1.6477 N.pl3     1 <0>        -0.5114
     15 C10        -3.0570    1.9364   -2.1727 C.ar      1 <0>         0.1707
     16 C11        -4.2888    1.3042   -2.2965 C.ar      1 <0>        -0.1756
     17 C12        -5.3669    1.9923   -2.8166 C.ar      1 <0>        -0.0389
     18 C13        -5.2221    3.3098   -3.2147 C.ar      1 <0>        -0.1109
     19 C14        -3.9971    3.9419   -3.0932 C.ar      1 <0>        -0.0367
     20 C15        -2.9166    3.2616   -2.5678 C.ar      1 <0>        -0.1346
     21 Br1        -6.7013    4.2481   -3.9270 Br        1 <0>        -0.0203
     22 H1          2.0172    0.0522    0.4924 H         1 <0>         0.1261
     23 H2          1.0063   -1.2356    1.1908 H         1 <0>         0.1226
     24 H3          1.5691   -1.3606   -0.4932 H         1 <0>         0.1214
     25 H4         -2.2963   -1.7505   -2.7587 H         1 <0>         0.1359
     26 H5         -4.1493   -3.0762   -3.6876 H         1 <0>         0.1576
     27 H6         -5.1543   -4.8898   -2.3619 H         1 <0>         0.1568
     28 H7         -2.4470   -4.0706    0.8317 H         1 <0>         0.1571
     29 H8         -2.9309   -0.5695   -1.4424 H         1 <0>         0.4529
     30 H9         -1.1076    1.6874   -1.5580 H         1 <0>         0.4544
     31 H10        -4.4023    0.2759   -1.9866 H         1 <0>         0.1211
     32 H11        -6.3242    1.5018   -2.9131 H         1 <0>         0.1484
     33 H12        -3.8873    4.9700   -3.4052 H         1 <0>         0.1534
     34 H13        -1.9621    3.7571   -2.4684 H         1 <0>         0.1487
     35 H14        -0.5220   -2.5044    0.1653 H         1 <0>         0.4555
@<TRIPOS>BOND
     1    1    2 1
     2    1   22 1
     3    1   23 1
     4    1   24 1
     5    2    3 2
     6    2    4 1
     7    4    5 1
     8    4   13 2
     9    5    6 1
    10    5   35 1
    11    6   11 ar
    12    6    7 ar
    13    7    8 ar
    14    7   25 1
    15    8    9 ar
    16    8   26 1
    17    9   10 ar
    18    9   27 1
    19   10   11 ar
    20   10   12 1
    21   11   28 1
    22   13   14 1
    23   13   29 1
    24   14   15 1
    25   14   30 1
    26   15   20 ar
    27   15   16 ar
    28   16   17 ar
    29   16   31 1
    30   17   18 ar
    31   17   32 1
    32   18   19 ar
    33   18   21 1
    34   19   20 ar
    35   19   33 1
    36   20   34 1
