@<TRIPOS>MOLECULE
ZINC01539136
   63    65     0     0     0
SMALL
USER_CHARGES

@<TRIPOS>ATOM
      1 C1         -0.1020   -4.8883    1.6115 C.3       1 <0>        -0.1540
      2 C2          0.9850   -4.7724    0.5410 C.3       1 <0>        -0.1232
      3 C3          0.6343   -3.6356   -0.4210 C.3       1 <0>        -0.1403
      4 C4          1.7212   -3.5197   -1.4915 C.3       1 <0>         0.1382
      5 N1          1.3854   -2.4311   -2.4126 N.pl3     1 <0>        -0.6553
      6 C5          1.8530   -1.0699   -2.1394 C.3       1 <0>         0.1350
      7 C6          3.2804   -0.9058   -2.6653 C.3       1 <0>        -0.1825
      8 C7          0.6268   -2.6886   -3.5403 C.ar      1 <0>         0.5673
      9 C8          1.2107   -3.2460   -4.6882 C.ar      1 <0>        -0.1767
     10 C9          2.5570   -3.6791   -5.0590 C.2       1 <0>        -0.0903
     11 C10         2.4856   -4.1365   -6.3197 C.2       1 <0>         0.0993
     12 N2          1.1973   -4.0284   -6.7812 N.pl3     1 <0>        -0.3733
     13 C11         0.3963   -3.4889   -5.8094 C.ar      1 <0>         0.3113
     14 N3         -0.8971   -3.1790   -5.7362 N.ar      1 <0>        -0.5055
     15 C12        -1.4018   -2.6569   -4.6395 C.ar      1 <0>         0.4287
     16 N4         -0.6751   -2.4192   -3.5620 N.ar      1 <0>        -0.5062
     17 C13        -2.8711   -2.3236   -4.6078 C.3       1 <0>        -0.1264
     18 C14         0.7654   -4.4132   -8.0573 C.ar      1 <0>         0.0303
     19 C15         0.7975   -3.5040   -9.1062 C.ar      1 <0>        -0.0452
     20 C16         0.3710   -3.8864  -10.3630 C.ar      1 <0>        -0.1188
     21 C17        -0.0877   -5.1732  -10.5772 C.ar      1 <0>        -0.0313
     22 C18        -0.1214   -6.0808   -9.5345 C.ar      1 <0>        -0.1187
     23 C19         0.3096   -5.7063   -8.2769 C.ar      1 <0>        -0.0439
     24 C20         0.2793   -6.6981   -7.1427 C.3       1 <0>        -0.1267
     25 C21        -0.5524   -5.5871  -11.9497 C.3       1 <0>        -0.1297
     26 C22         1.2968   -2.1013   -8.8735 C.3       1 <0>        -0.1233
     27 C23         3.6459   -4.6853   -7.1095 C.3       1 <0>        -0.1000
     28 C24         3.7889   -3.6223   -4.1928 C.3       1 <0>        -0.1132
     29 H1         -0.1683   -3.9516    2.1648 H         1 <0>         0.0566
     30 H2         -1.0599   -5.0977    1.1354 H         1 <0>         0.0526
     31 H3          0.1479   -5.6982    2.2968 H         1 <0>         0.0585
     32 H4          1.9429   -4.5630    1.0171 H         1 <0>         0.0668
     33 H5          1.0513   -5.7092   -0.0124 H         1 <0>         0.0606
     34 H6         -0.3237   -3.8450   -0.8971 H         1 <0>         0.0623
     35 H7          0.5679   -2.6988    0.1323 H         1 <0>         0.0719
     36 H8          2.6792   -3.3103   -1.0154 H         1 <0>         0.0919
     37 H9          1.7876   -4.4564   -2.0448 H         1 <0>         0.0704
     38 H10         1.1982   -0.3542   -2.6365 H         1 <0>         0.0732
     39 H11         1.8388   -0.8897   -1.0645 H         1 <0>         0.0876
     40 H12         3.6574    0.0796   -2.3916 H         1 <0>         0.0768
     41 H13         3.9191   -1.6734   -2.2282 H         1 <0>         0.0703
     42 H14         3.2817   -1.0068   -3.7506 H         1 <0>         0.0592
     43 H15        -3.4315   -3.1858   -4.2463 H         1 <0>         0.1247
     44 H16        -3.0374   -1.4770   -3.9418 H         1 <0>         0.1299
     45 H17        -3.2072   -2.0671   -5.6125 H         1 <0>         0.1054
     46 H18         0.3954   -3.1796  -11.1792 H         1 <0>         0.1421
     47 H19        -0.4809   -7.0849   -9.7047 H         1 <0>         0.1420
     48 H20        -0.6835   -6.6402   -6.6350 H         1 <0>         0.0746
     49 H21         0.4227   -7.7045   -7.5362 H         1 <0>         0.0878
     50 H22         1.0769   -6.4671   -6.4366 H         1 <0>         0.0672
     51 H23         0.2901   -5.9886  -12.5128 H         1 <0>         0.0859
     52 H24        -1.3244   -6.3510  -11.8569 H         1 <0>         0.0775
     53 H25        -0.9591   -4.7212  -12.4721 H         1 <0>         0.0776
     54 H26         2.3719   -2.0645   -9.0494 H         1 <0>         0.0873
     55 H27         0.7932   -1.4182   -9.5575 H         1 <0>         0.0842
     56 H28         1.0865   -1.8067   -7.8454 H         1 <0>         0.0552
     57 H29         3.7201   -5.7605   -6.9465 H         1 <0>         0.0933
     58 H30         3.4890   -4.4885   -8.1700 H         1 <0>         0.0805
     59 H31         4.5677   -4.2039   -6.7831 H         1 <0>         0.1023
     60 H32         3.8356   -4.5148   -3.5687 H         1 <0>         0.0808
     61 H33         4.6755   -3.5741   -4.8249 H         1 <0>         0.0797
     62 H34         3.7464   -2.7371   -3.5583 H         1 <0>         0.0983
     63 H35        -1.4729   -3.3398   -6.5000 H         1 <0>         0.4393
@<TRIPOS>BOND
     1    1    2 1
     2    1   29 1
     3    1   30 1
     4    1   31 1
     5    2    3 1
     6    2   32 1
     7    2   33 1
     8    3    4 1
     9    3   34 1
    10    3   35 1
    11    4    5 1
    12    4   36 1
    13    4   37 1
    14    5    6 1
    15    5    8 1
    16    6    7 1
    17    6   38 1
    18    6   39 1
    19    7   40 1
    20    7   41 1
    21    7   42 1
    22    8   16 ar
    23    8    9 ar
    24    9   13 ar
    25    9   10 1
    26   10   11 2
    27   10   28 1
    28   11   12 1
    29   11   27 1
    30   12   13 1
    31   12   18 1
    32   13   14 ar
    33   14   15 ar
    34   14   63 1
    35   15   16 ar
    36   15   17 1
    37   17   43 1
    38   17   44 1
    39   17   45 1
    40   18   23 ar
    41   18   19 ar
    42   19   20 ar
    43   19   26 1
    44   20   21 ar
    45   20   46 1
    46   21   22 ar
    47   21   25 1
    48   22   23 ar
    49   22   47 1
    50   23   24 1
    51   24   48 1
    52   24   49 1
    53   24   50 1
    54   25   51 1
    55   25   52 1
    56   25   53 1
    57   26   54 1
    58   26   55 1
    59   26   56 1
    60   27   57 1
    61   27   58 1
    62   27   59 1
    63   28   60 1
    64   28   61 1
    65   28   62 1
@<TRIPOS>MOLECULE
ZINC01539136
   62    64     0     0     0
SMALL
USER_CHARGES

@<TRIPOS>ATOM
      1 C1          1.5702   -4.8529   -0.6954 C.3       1 <0>        -0.1516
      2 C2          0.0972   -4.7754   -1.1020 C.3       1 <0>        -0.1224
      3 C3         -0.5890   -3.6527   -0.3213 C.3       1 <0>        -0.1391
      4 C4         -2.0619   -3.5752   -0.7279 C.3       1 <0>         0.1490
      5 N1         -2.7189   -2.5002    0.0197 N.pl3     1 <0>        -0.6537
      6 C5         -2.7502   -1.1412   -0.5266 C.3       1 <0>         0.1439
      7 C6         -3.9229   -1.0099   -1.5005 C.3       1 <0>        -0.1777
      8 C7         -3.3097   -2.7683    1.2413 C.ar      1 <0>         0.4830
      9 C8         -4.5814   -3.3576    1.3115 C.ar      1 <0>        -0.2065
     10 C9         -5.5643   -3.8189    0.3325 C.2       1 <0>        -0.1280
     11 C10        -6.6088   -4.3003    1.0262 C.2       1 <0>         0.0807
     12 N2         -6.3673   -4.1813    2.3722 N.pl3     1 <0>        -0.4105
     13 C11        -5.1391   -3.6101    2.5783 C.ar      1 <0>         0.3375
     14 N3         -4.4372   -3.2787    3.6607 N.ar      1 <0>        -0.5308
     15 C12        -3.2483   -2.7273    3.5476 C.ar      1 <0>         0.3465
     16 N4         -2.6847   -2.4792    2.3788 N.ar      1 <0>        -0.5495
     17 C13        -2.4948   -2.3711    4.8032 C.3       1 <0>        -0.0797
     18 C14        -7.2466   -4.5848    3.3857 C.ar      1 <0>         0.1040
     19 C15        -8.1933   -3.6972    3.8794 C.ar      1 <0>        -0.0550
     20 C16        -9.0587   -4.0980    4.8785 C.ar      1 <0>        -0.1221
     21 C17        -8.9830   -5.3816    5.3870 C.ar      1 <0>        -0.0606
     22 C18        -8.0409   -6.2678    4.8977 C.ar      1 <0>        -0.1219
     23 C19        -7.1768   -5.8749    3.8943 C.ar      1 <0>        -0.0540
     24 C20        -6.1552   -6.8435    3.3566 C.3       1 <0>        -0.1156
     25 C21        -9.9288   -5.8156    6.4771 C.3       1 <0>        -0.1181
     26 C22        -8.2762   -2.2979    3.3262 C.3       1 <0>        -0.1140
     27 C23        -7.8586   -4.8827    0.4181 C.3       1 <0>        -0.0903
     28 C24        -5.4314   -3.7640   -1.1676 C.3       1 <0>        -0.0982
     29 H1          2.0590   -5.6528   -1.2517 H         1 <0>         0.0531
     30 H2          2.0589   -3.9044   -0.9179 H         1 <0>         0.0537
     31 H3          1.6419   -5.0569    0.3729 H         1 <0>         0.0526
     32 H4          0.0255   -4.5715   -2.1704 H         1 <0>         0.0614
     33 H5         -0.3915   -5.7240   -0.8796 H         1 <0>         0.0587
     34 H6         -0.5172   -3.8566    0.7471 H         1 <0>         0.0634
     35 H7         -0.1002   -2.7042   -0.5438 H         1 <0>         0.0639
     36 H8         -2.1337   -3.3713   -1.7962 H         1 <0>         0.0730
     37 H9         -2.5506   -4.5237   -0.5054 H         1 <0>         0.0624
     38 H10        -2.8713   -0.4255    0.2865 H         1 <0>         0.0654
     39 H11        -1.8170   -0.9394   -1.0523 H         1 <0>         0.0689
     40 H12        -3.8991   -0.0252   -1.9672 H         1 <0>         0.0623
     41 H13        -3.8444   -1.7784   -2.2695 H         1 <0>         0.0627
     42 H14        -4.8607   -1.1326   -0.9586 H         1 <0>         0.0595
     43 H15        -1.8804   -3.2173    5.1106 H         1 <0>         0.0829
     44 H16        -1.8560   -1.5090    4.6113 H         1 <0>         0.0854
     45 H17        -3.2030   -2.1294    5.5957 H         1 <0>         0.0825
     46 H18        -9.7951   -3.4079    5.2632 H         1 <0>         0.1301
     47 H19        -7.9837   -7.2695    5.2973 H         1 <0>         0.1301
     48 H20        -5.2358   -6.7609    3.9363 H         1 <0>         0.0730
     49 H21        -6.5426   -7.8595    3.4325 H         1 <0>         0.0727
     50 H22        -5.9482   -6.6106    2.3121 H         1 <0>         0.0650
     51 H23       -10.8275   -6.2409    6.0303 H         1 <0>         0.0750
     52 H24        -9.4436   -6.5657    7.1017 H         1 <0>         0.0699
     53 H25       -10.1993   -4.9542    7.0877 H         1 <0>         0.0699
     54 H26        -8.9668   -2.2809    2.4830 H         1 <0>         0.0742
     55 H27        -8.6336   -1.6210    4.1021 H         1 <0>         0.0724
     56 H28        -7.2883   -1.9798    2.9932 H         1 <0>         0.0628
     57 H29        -7.7276   -5.9555    0.2761 H         1 <0>         0.0784
     58 H30        -8.7034   -4.7048    1.0835 H         1 <0>         0.0693
     59 H31        -8.0487   -4.4093   -0.5451 H         1 <0>         0.0876
     60 H32        -4.8920   -4.6444   -1.5170 H         1 <0>         0.0624
     61 H33        -6.4230   -3.7423   -1.6197 H         1 <0>         0.0610
     62 H34        -4.8830   -2.8657   -1.4512 H         1 <0>         0.0893
@<TRIPOS>BOND
     1    1    2 1
     2    1   29 1
     3    1   30 1
     4    1   31 1
     5    2    3 1
     6    2   32 1
     7    2   33 1
     8    3    4 1
     9    3   34 1
    10    3   35 1
    11    4    5 1
    12    4   36 1
    13    4   37 1
    14    5    6 1
    15    5    8 1
    16    6    7 1
    17    6   38 1
    18    6   39 1
    19    7   40 1
    20    7   41 1
    21    7   42 1
    22    8   16 ar
    23    8    9 ar
    24    9   13 ar
    25    9   10 1
    26   10   11 2
    27   10   28 1
    28   11   12 1
    29   11   27 1
    30   12   13 1
    31   12   18 1
    32   13   14 ar
    33   14   15 ar
    34   15   16 ar
    35   15   17 1
    36   17   43 1
    37   17   44 1
    38   17   45 1
    39   18   23 ar
    40   18   19 ar
    41   19   20 ar
    42   19   26 1
    43   20   21 ar
    44   20   46 1
    45   21   22 ar
    46   21   25 1
    47   22   23 ar
    48   22   47 1
    49   23   24 1
    50   24   48 1
    51   24   49 1
    52   24   50 1
    53   25   51 1
    54   25   52 1
    55   25   53 1
    56   26   54 1
    57   26   55 1
    58   26   56 1
    59   27   57 1
    60   27   58 1
    61   27   59 1
    62   28   60 1
    63   28   61 1
    64   28   62 1
@<TRIPOS>MOLECULE
ZINC02511843
   46    48     0     0     0
SMALL
USER_CHARGES

@<TRIPOS>ATOM
      1 C1          1.6534    2.1555    4.3146 C.3       1 <0>        -0.1504
      2 C2          1.0075    1.0928    3.4235 C.3       1 <0>        -0.1460
      3 C3          1.7674   -0.2270    3.5710 C.3       1 <0>         0.1502
      4 N1          1.1489   -1.2446    2.7177 N.pl3     1 <0>        -0.6519
      5 C4          1.5257   -1.3439    1.3054 C.3       1 <0>         0.1805
      6 C5          2.7064   -2.3058    1.1590 C.3       1 <0>        -0.1731
      7 C6          4.0248   -1.7317    0.6363 C.3       1 <0>        -0.1769
      8 C7          3.1763   -2.6369   -0.2589 C.3       1 <0>        -0.1798
      9 C8          0.2067   -2.1140    3.2468 C.ar      1 <0>         0.4753
     10 C9         -1.1535   -1.8444    3.1197 C.ar      1 <0>        -0.2070
     11 C10        -2.0586   -2.7488    3.6680 C.ar      1 <0>         0.4552
     12 N2         -1.5941   -3.8314    4.2897 N.ar      1 <0>        -0.5464
     13 C11        -0.2991   -4.0507    4.3888 C.ar      1 <0>         0.3750
     14 N3          0.5893   -3.2217    3.8791 N.ar      1 <0>        -0.5466
     15 C12         0.1806   -5.2891    5.1011 C.3       1 <0>        -0.0854
     16 N4         -3.4247   -2.5257    3.5687 N.pl3     1 <0>        -0.6529
     17 C13        -4.3223   -3.3766    4.2240 C.ar      1 <0>         0.1724
     18 C14        -5.2136   -2.8626    5.1578 C.ar      1 <0>        -0.0278
     19 C15        -6.0987   -3.7055    5.8032 C.ar      1 <0>        -0.0873
     20 C16        -6.0978   -5.0600    5.5203 C.ar      1 <0>        -0.0176
     21 C17        -5.2114   -5.5750    4.5908 C.ar      1 <0>        -0.0872
     22 C18        -4.3278   -4.7364    3.9378 C.ar      1 <0>         0.0007
     23 Cl1        -3.2214   -5.3822    2.7663 Cl        1 <0>        -0.0241
     24 Cl2        -7.2106   -6.1155    6.3334 Cl        1 <0>        -0.0388
     25 Cl3        -5.2151   -1.1635    5.5139 Cl        1 <0>        -0.0337
     26 Cl4        -1.7060   -0.4175    2.2997 Cl        1 <0>        -0.0369
     27 H1          2.6917    2.2987    4.0152 H         1 <0>         0.0550
     28 H2          1.1121    3.0957    4.2096 H         1 <0>         0.0555
     29 H3          1.6167    1.8293    5.3540 H         1 <0>         0.0530
     30 H4         -0.0307    0.9496    3.7229 H         1 <0>         0.0657
     31 H5          1.0442    1.4190    2.3841 H         1 <0>         0.0633
     32 H6          2.8057   -0.0838    3.2715 H         1 <0>         0.0728
     33 H7          1.7307   -0.5532    4.6104 H         1 <0>         0.0652
     34 H8          0.6793   -1.7172    0.7290 H         1 <0>         0.0671
     35 H9          1.8112   -0.3592    0.9355 H         1 <0>         0.0777
     36 H10         2.7629   -3.0979    1.9057 H         1 <0>         0.1110
     37 H11         4.0509   -0.6687    0.3968 H         1 <0>         0.0929
     38 H12         4.9490   -2.1459    1.0393 H         1 <0>         0.0917
     39 H13         3.5423   -3.6467   -0.4450 H         1 <0>         0.0927
     40 H14         2.6442   -2.1694   -1.0875 H         1 <0>         0.0930
     41 H15         0.2764   -6.1057    4.3856 H         1 <0>         0.0888
     42 H16         1.1496   -5.0922    5.5597 H         1 <0>         0.0891
     43 H17        -0.5375   -5.5651    5.8734 H         1 <0>         0.0877
     44 H18        -3.7576   -1.7800    3.0452 H         1 <0>         0.4276
     45 H19        -6.7915   -3.3066    6.5294 H         1 <0>         0.1556
     46 H20        -5.2131   -6.6326    4.3721 H         1 <0>         0.1550
@<TRIPOS>BOND
     1    1    2 1
     2    1   27 1
     3    1   28 1
     4    1   29 1
     5    2    3 1
     6    2   30 1
     7    2   31 1
     8    3    4 1
     9    3   32 1
    10    3   33 1
    11    4    5 1
    12    4    9 1
    13    5    6 1
    14    5   34 1
    15    5   35 1
    16    6    8 1
    17    6    7 1
    18    6   36 1
    19    7    8 1
    20    7   37 1
    21    7   38 1
    22    8   39 1
    23    8   40 1
    24    9   14 ar
    25    9   10 ar
    26   10   11 ar
    27   10   26 1
    28   11   12 ar
    29   11   16 1
    30   12   13 ar
    31   13   14 ar
    32   13   15 1
    33   15   41 1
    34   15   42 1
    35   15   43 1
    36   16   17 1
    37   16   44 1
    38   17   22 ar
    39   17   18 ar
    40   18   19 ar
    41   18   25 1
    42   19   20 ar
    43   19   45 1
    44   20   21 ar
    45   20   24 1
    46   21   22 ar
    47   21   46 1
    48   22   23 1
