@<TRIPOS>MOLECULE
ZINC03986715
   52    53     0     0     0
SMALL
USER_CHARGES
N-(1-ethylpropyl)-3-methoxy-5-[2-methoxy-4-(trifluoromethoxy)phenyl]-6-methyl-pyrazin-2-amine
@<TRIPOS>ATOM
      1 C1          5.5040   -0.8815    8.3193 C.3       1 <0>        -0.1398
      2 C2          5.2870   -1.5847    9.6606 C.3       1 <0>        -0.1349
      3 C3          3.8777   -2.1787    9.7029 C.3       1 <0>         0.1542
      4 C4          3.7034   -2.9872   10.9902 C.3       1 <0>        -0.1330
      5 C5          2.3408   -3.6829   10.9749 C.3       1 <0>        -0.1521
      6 N1          2.8905   -1.0968    9.6684 N.pl3     1 <0>        -0.6996
      7 C6          2.4847   -0.5635    8.4482 C.ar      1 <0>         0.3708
      8 C7          1.5409    0.4702    8.4149 C.ar      1 <0>         0.2186
      9 N2          1.1603    0.9778    7.2556 N.ar      1 <0>        -0.4368
     10 C8          1.6687    0.4978    6.1209 C.ar      1 <0>         0.0913
     11 C9          2.6067   -0.5292    6.1580 C.ar      1 <0>         0.1085
     12 N3          2.9913   -1.0343    7.3179 N.ar      1 <0>        -0.4658
     13 C10         3.1848   -1.0669    4.8744 C.3       1 <0>        -0.0999
     14 C11         1.2393    1.0621    4.8198 C.ar      1 <0>        -0.0773
     15 C12         2.1910    1.4785    3.8901 C.ar      1 <0>        -0.0200
     16 C13         1.7889    1.9987    2.6783 C.ar      1 <0>        -0.2278
     17 C14         0.4364    2.1195    2.3842 C.ar      1 <0>         0.1544
     18 C15        -0.5169    1.7077    3.3034 C.ar      1 <0>        -0.2197
     19 C16        -0.1224    1.1791    4.5208 C.ar      1 <0>         0.1953
     20 O1         -1.0548    0.7749    5.4220 O.3       1 <0>        -0.2903
     21 C17        -2.4259    0.9241    5.0482 C.3       1 <0>         0.0204
     22 O2          0.0466    2.6374    1.1902 O.3       1 <0>        -0.3099
     23 C18         1.0802    3.0417    0.2900 C.3       1 <0>         0.6053
     24 F1          1.8838    1.9400   -0.0225 F         1 <0>        -0.1620
     25 F2          1.8619    4.0332    0.8926 F         1 <0>        -0.1623
     26 F3          0.5067    3.5478   -0.8814 F         1 <0>        -0.1293
     27 O3          1.0211    0.9536    9.5720 O.3       1 <0>        -0.3101
     28 C19         0.0632    2.0083    9.4622 C.3       1 <0>         0.0440
     29 H1          6.5080   -0.4583    8.2891 H         1 <0>         0.0424
     30 H2          5.3886   -1.6012    7.5088 H         1 <0>         0.0636
     31 H3          4.7700   -0.0840    8.2042 H         1 <0>         0.0486
     32 H4          5.4024   -0.8650   10.4710 H         1 <0>         0.0599
     33 H5          6.0210   -2.3822    9.7757 H         1 <0>         0.0696
     34 H6          3.7322   -2.8309    8.8418 H         1 <0>         0.0907
     35 H7          4.4928   -3.7357   11.0587 H         1 <0>         0.0791
     36 H8          3.7606   -2.3190   11.8494 H         1 <0>         0.0671
     37 H9          1.5514   -2.9344   10.9063 H         1 <0>         0.0550
     38 H10         2.2836   -4.3511   10.1156 H         1 <0>         0.0547
     39 H11         2.2166   -4.2588   11.8920 H         1 <0>         0.0558
     40 H12         2.5196   -0.7521   10.4957 H         1 <0>         0.4135
     41 H13         4.0271   -0.4470    4.5675 H         1 <0>         0.0812
     42 H14         3.5248   -2.0908    5.0299 H         1 <0>         0.0800
     43 H15         2.4205   -1.0519    4.0974 H         1 <0>         0.0801
     44 H16         3.2431    1.3897    4.1173 H         1 <0>         0.1443
     45 H17         2.5272    2.3168    1.9572 H         1 <0>         0.1400
     46 H18        -1.5673    1.7990    3.0695 H         1 <0>         0.1473
     47 H19        -2.6385    1.9762    4.8588 H         1 <0>         0.0602
     48 H20        -2.6213    0.3457    4.1452 H         1 <0>         0.0594
     49 H21        -3.0638    0.5641    5.8554 H         1 <0>         0.1033
     50 H22        -0.2710    2.3006   10.4577 H         1 <0>         0.0957
     51 H23         0.5207    2.8645    8.9665 H         1 <0>         0.0571
     52 H24        -0.7908    1.6642    8.8787 H         1 <0>         0.0591
@<TRIPOS>BOND
     1    1    2 1
     2    1   29 1
     3    1   30 1
     4    1   31 1
     5    2    3 1
     6    2   32 1
     7    2   33 1
     8    3    4 1
     9    3    6 1
    10    3   34 1
    11    4    5 1
    12    4   35 1
    13    4   36 1
    14    5   37 1
    15    5   38 1
    16    5   39 1
    17    6    7 1
    18    6   40 1
    19    7   12 ar
    20    7    8 ar
    21    8    9 ar
    22    8   27 1
    23    9   10 ar
    24   10   11 ar
    25   10   14 1
    26   11   12 ar
    27   11   13 1
    28   13   41 1
    29   13   42 1
    30   13   43 1
    31   14   19 ar
    32   14   15 ar
    33   15   16 ar
    34   15   44 1
    35   16   17 ar
    36   16   45 1
    37   17   18 ar
    38   17   22 1
    39   18   19 ar
    40   18   46 1
    41   19   20 1
    42   20   21 1
    43   21   47 1
    44   21   48 1
    45   21   49 1
    46   22   23 1
    47   23   24 1
    48   23   25 1
    49   23   26 1
    50   27   28 1
    51   28   50 1
    52   28   51 1
    53   28   52 1
@<TRIPOS>MOLECULE
ZINC14975027
   54    55     0     0     0
SMALL
USER_CHARGES
N-(1-ethylpropyl)-3,6-dimethyl-2-(2,4,6-trimethylphenoxy)pyridin-4-amine
@<TRIPOS>ATOM
      1 C1          5.4231    5.5989   -4.6489 C.3       1 <0>        -0.1591
      2 C2          6.9182    5.8247   -4.4154 C.3       1 <0>        -0.1390
      3 C3          7.5579    4.5279   -3.9154 C.3       1 <0>         0.1507
      4 C4          9.0718    4.7171   -3.8008 C.3       1 <0>        -0.1306
      5 C5          9.7248    3.3865   -3.4214 C.3       1 <0>        -0.1538
      6 N1          7.0075    4.1869   -2.6013 N.pl3     1 <0>        -0.7330
      7 C6          5.8139    3.4767   -2.5096 C.ar      1 <0>         0.2913
      8 C7          5.1267    3.0805   -3.6589 C.ar      1 <0>        -0.2813
      9 C8          3.9483    2.3789   -3.5290 C.ar      1 <0>         0.1938
     10 N2          3.4652    2.0787   -2.3370 N.ar      1 <0>        -0.5621
     11 C9          4.0848    2.4350   -1.2225 C.ar      1 <0>         0.3572
     12 C10         5.2726    3.1480   -1.2699 C.ar      1 <0>        -0.2428
     13 C11         5.9705    3.5566    0.0017 C.3       1 <0>        -0.0941
     14 O1          3.5485    2.1035   -0.0211 O.3       1 <0>        -0.2439
     15 C12         2.3802    1.4093   -0.0137 C.ar      1 <0>         0.0901
     16 C13         1.1694    2.0866    0.0021 C.ar      1 <0>        -0.0705
     17 C14        -0.0167    1.3785    0.0096 C.ar      1 <0>        -0.1195
     18 C15         0.0021   -0.0041    0.0020 C.ar      1 <0>        -0.0742
     19 C16         1.2074   -0.6815   -0.0127 C.ar      1 <0>        -0.1187
     20 C17         2.3963    0.0219   -0.0208 C.ar      1 <0>        -0.0709
     21 C18         3.7096   -0.7171   -0.0379 C.3       1 <0>        -0.1119
     22 C19        -1.2934   -0.7740    0.0103 C.3       1 <0>        -0.1173
     23 C20         1.1482    3.5934    0.0099 C.3       1 <0>        -0.1118
     24 C21         3.2003    1.9475   -4.7641 C.3       1 <0>        -0.1080
     25 H1          4.9632    6.5313   -5.0084 H         1 <0>         0.0503
     26 H2          4.9464    5.2950   -3.7053 H         1 <0>         0.0644
     27 H3          5.2848    4.8081   -5.4009 H         1 <0>         0.0575
     28 H4          7.3949    6.1286   -5.3590 H         1 <0>         0.0707
     29 H5          7.0566    6.6155   -3.6634 H         1 <0>         0.0659
     30 H6          7.3219    3.6935   -4.5922 H         1 <0>         0.0812
     31 H7          9.4725    5.0601   -4.7661 H         1 <0>         0.0786
     32 H8          9.2900    5.4668   -3.0260 H         1 <0>         0.0691
     33 H9         10.8132    3.5226   -3.3390 H         1 <0>         0.0566
     34 H10         9.5066    2.6369   -4.1963 H         1 <0>         0.0547
     35 H11         9.3240    3.0435   -2.4561 H         1 <0>         0.0568
     36 H12         7.5375    4.4921   -1.6870 H         1 <0>         0.4200
     37 H13         5.5142    3.3216   -4.6378 H         1 <0>         0.1385
     38 H14         5.3896    3.2063    0.8676 H         1 <0>         0.0742
     39 H15         6.0563    4.6527    0.0369 H         1 <0>         0.0598
     40 H16         6.9750    3.1091    0.0287 H         1 <0>         0.0598
     41 H17        -0.9595    1.9052    0.0170 H         1 <0>         0.1256
     42 H18         1.2193   -1.7614   -0.0183 H         1 <0>         0.1257
     43 H19         3.5205   -1.8007   -0.0414 H         1 <0>         0.0671
     44 H20         4.2926   -0.4495    0.8557 H         1 <0>         0.0718
     45 H21         4.2742   -0.4405   -0.9405 H         1 <0>         0.0667
     46 H22        -1.0788   -1.8528    0.0025 H         1 <0>         0.0661
     47 H23        -1.8821   -0.5107   -0.8808 H         1 <0>         0.0711
     48 H24        -1.8648   -0.5204    0.9154 H         1 <0>         0.0711
     49 H25         0.1061    3.9454    0.0223 H         1 <0>         0.0671
     50 H26         1.6523    3.9718   -0.8916 H         1 <0>         0.0666
     51 H27         1.6707    3.9628    0.9046 H         1 <0>         0.0718
     52 H28         2.2903    1.4037   -4.4704 H         1 <0>         0.0766
     53 H29         3.8411    1.2899   -5.3698 H         1 <0>         0.0771
     54 H30         2.9235    2.8341   -5.3535 H         1 <0>         0.0772
@<TRIPOS>BOND
     1    1    2 1
     2    1   25 1
     3    1   26 1
     4    1   27 1
     5    2    3 1
     6    2   28 1
     7    2   29 1
     8    3    4 1
     9    3    6 1
    10    3   30 1
    11    4    5 1
    12    4   31 1
    13    4   32 1
    14    5   33 1
    15    5   34 1
    16    5   35 1
    17    6    7 1
    18    6   36 1
    19    7   12 ar
    20    7    8 ar
    21    8    9 ar
    22    8   37 1
    23    9   10 ar
    24    9   24 1
    25   10   11 ar
    26   11   12 ar
    27   11   14 1
    28   12   13 1
    29   13   38 1
    30   13   39 1
    31   13   40 1
    32   14   15 1
    33   15   20 ar
    34   15   16 ar
    35   16   17 ar
    36   16   23 1
    37   17   18 ar
    38   17   41 1
    39   18   19 ar
    40   18   22 1
    41   19   20 ar
    42   19   42 1
    43   20   21 1
    44   21   43 1
    45   21   44 1
    46   21   45 1
    47   22   46 1
    48   22   47 1
    49   22   48 1
    50   23   49 1
    51   23   50 1
    52   23   51 1
    53   24   52 1
    54   24   53 1
    55   24   54 1
@<TRIPOS>MOLECULE
ZINC01539136
   63    65     0     0     0
SMALL
USER_CHARGES

@<TRIPOS>ATOM
      1 C1         -0.1020   -4.8883    1.6115 C.3       1 <0>        -0.1540
      2 C2          0.9850   -4.7724    0.5410 C.3       1 <0>        -0.1232
      3 C3          0.6343   -3.6356   -0.4210 C.3       1 <0>        -0.1403
      4 C4          1.7212   -3.5197   -1.4915 C.3       1 <0>         0.1382
      5 N1          1.3854   -2.4311   -2.4126 N.pl3     1 <0>        -0.6553
      6 C5          1.8530   -1.0699   -2.1394 C.3       1 <0>         0.1350
      7 C6          3.2804   -0.9058   -2.6653 C.3       1 <0>        -0.1825
      8 C7          0.6268   -2.6886   -3.5403 C.ar      1 <0>         0.5673
      9 C8          1.2107   -3.2460   -4.6882 C.ar      1 <0>        -0.1767
     10 C9          2.5570   -3.6791   -5.0590 C.2       1 <0>        -0.0903
     11 C10         2.4856   -4.1365   -6.3197 C.2       1 <0>         0.0993
     12 N2          1.1973   -4.0284   -6.7812 N.pl3     1 <0>        -0.3733
     13 C11         0.3963   -3.4889   -5.8094 C.ar      1 <0>         0.3113
     14 N3         -0.8971   -3.1790   -5.7362 N.ar      1 <0>        -0.5055
     15 C12        -1.4018   -2.6569   -4.6395 C.ar      1 <0>         0.4287
     16 N4         -0.6751   -2.4192   -3.5620 N.ar      1 <0>        -0.5062
     17 C13        -2.8711   -2.3236   -4.6078 C.3       1 <0>        -0.1264
     18 C14         0.7654   -4.4132   -8.0573 C.ar      1 <0>         0.0303
     19 C15         0.7975   -3.5040   -9.1062 C.ar      1 <0>        -0.0452
     20 C16         0.3710   -3.8864  -10.3630 C.ar      1 <0>        -0.1188
     21 C17        -0.0877   -5.1732  -10.5772 C.ar      1 <0>        -0.0313
     22 C18        -0.1214   -6.0808   -9.5345 C.ar      1 <0>        -0.1187
     23 C19         0.3096   -5.7063   -8.2769 C.ar      1 <0>        -0.0439
     24 C20         0.2793   -6.6981   -7.1427 C.3       1 <0>        -0.1267
     25 C21        -0.5524   -5.5871  -11.9497 C.3       1 <0>        -0.1297
     26 C22         1.2968   -2.1013   -8.8735 C.3       1 <0>        -0.1233
     27 C23         3.6459   -4.6853   -7.1095 C.3       1 <0>        -0.1000
     28 C24         3.7889   -3.6223   -4.1928 C.3       1 <0>        -0.1132
     29 H1         -0.1683   -3.9516    2.1648 H         1 <0>         0.0566
     30 H2         -1.0599   -5.0977    1.1354 H         1 <0>         0.0526
     31 H3          0.1479   -5.6982    2.2968 H         1 <0>         0.0585
     32 H4          1.9429   -4.5630    1.0171 H         1 <0>         0.0668
     33 H5          1.0513   -5.7092   -0.0124 H         1 <0>         0.0606
     34 H6         -0.3237   -3.8450   -0.8971 H         1 <0>         0.0623
     35 H7          0.5679   -2.6988    0.1323 H         1 <0>         0.0719
     36 H8          2.6792   -3.3103   -1.0154 H         1 <0>         0.0919
     37 H9          1.7876   -4.4564   -2.0448 H         1 <0>         0.0704
     38 H10         1.1982   -0.3542   -2.6365 H         1 <0>         0.0732
     39 H11         1.8388   -0.8897   -1.0645 H         1 <0>         0.0876
     40 H12         3.6574    0.0796   -2.3916 H         1 <0>         0.0768
     41 H13         3.9191   -1.6734   -2.2282 H         1 <0>         0.0703
     42 H14         3.2817   -1.0068   -3.7506 H         1 <0>         0.0592
     43 H15        -3.4315   -3.1858   -4.2463 H         1 <0>         0.1247
     44 H16        -3.0374   -1.4770   -3.9418 H         1 <0>         0.1299
     45 H17        -3.2072   -2.0671   -5.6125 H         1 <0>         0.1054
     46 H18         0.3954   -3.1796  -11.1792 H         1 <0>         0.1421
     47 H19        -0.4809   -7.0849   -9.7047 H         1 <0>         0.1420
     48 H20        -0.6835   -6.6402   -6.6350 H         1 <0>         0.0746
     49 H21         0.4227   -7.7045   -7.5362 H         1 <0>         0.0878
     50 H22         1.0769   -6.4671   -6.4366 H         1 <0>         0.0672
     51 H23         0.2901   -5.9886  -12.5128 H         1 <0>         0.0859
     52 H24        -1.3244   -6.3510  -11.8569 H         1 <0>         0.0775
     53 H25        -0.9591   -4.7212  -12.4721 H         1 <0>         0.0776
     54 H26         2.3719   -2.0645   -9.0494 H         1 <0>         0.0873
     55 H27         0.7932   -1.4182   -9.5575 H         1 <0>         0.0842
     56 H28         1.0865   -1.8067   -7.8454 H         1 <0>         0.0552
     57 H29         3.7201   -5.7605   -6.9465 H         1 <0>         0.0933
     58 H30         3.4890   -4.4885   -8.1700 H         1 <0>         0.0805
     59 H31         4.5677   -4.2039   -6.7831 H         1 <0>         0.1023
     60 H32         3.8356   -4.5148   -3.5687 H         1 <0>         0.0808
     61 H33         4.6755   -3.5741   -4.8249 H         1 <0>         0.0797
     62 H34         3.7464   -2.7371   -3.5583 H         1 <0>         0.0983
     63 H35        -1.4729   -3.3398   -6.5000 H         1 <0>         0.4393
@<TRIPOS>BOND
     1    1    2 1
     2    1   29 1
     3    1   30 1
     4    1   31 1
     5    2    3 1
     6    2   32 1
     7    2   33 1
     8    3    4 1
     9    3   34 1
    10    3   35 1
    11    4    5 1
    12    4   36 1
    13    4   37 1
    14    5    6 1
    15    5    8 1
    16    6    7 1
    17    6   38 1
    18    6   39 1
    19    7   40 1
    20    7   41 1
    21    7   42 1
    22    8   16 ar
    23    8    9 ar
    24    9   13 ar
    25    9   10 1
    26   10   11 2
    27   10   28 1
    28   11   12 1
    29   11   27 1
    30   12   13 1
    31   12   18 1
    32   13   14 ar
    33   14   15 ar
    34   14   63 1
    35   15   16 ar
    36   15   17 1
    37   17   43 1
    38   17   44 1
    39   17   45 1
    40   18   23 ar
    41   18   19 ar
    42   19   20 ar
    43   19   26 1
    44   20   21 ar
    45   20   46 1
    46   21   22 ar
    47   21   25 1
    48   22   23 ar
    49   22   47 1
    50   23   24 1
    51   24   48 1
    52   24   49 1
    53   24   50 1
    54   25   51 1
    55   25   52 1
    56   25   53 1
    57   26   54 1
    58   26   55 1
    59   26   56 1
    60   27   57 1
    61   27   58 1
    62   27   59 1
    63   28   60 1
    64   28   61 1
    65   28   62 1
@<TRIPOS>MOLECULE
ZINC01539136
   62    64     0     0     0
SMALL
USER_CHARGES

@<TRIPOS>ATOM
      1 C1          1.5702   -4.8529   -0.6954 C.3       1 <0>        -0.1516
      2 C2          0.0972   -4.7754   -1.1020 C.3       1 <0>        -0.1224
      3 C3         -0.5890   -3.6527   -0.3213 C.3       1 <0>        -0.1391
      4 C4         -2.0619   -3.5752   -0.7279 C.3       1 <0>         0.1490
      5 N1         -2.7189   -2.5002    0.0197 N.pl3     1 <0>        -0.6537
      6 C5         -2.7502   -1.1412   -0.5266 C.3       1 <0>         0.1439
      7 C6         -3.9229   -1.0099   -1.5005 C.3       1 <0>        -0.1777
      8 C7         -3.3097   -2.7683    1.2413 C.ar      1 <0>         0.4830
      9 C8         -4.5814   -3.3576    1.3115 C.ar      1 <0>        -0.2065
     10 C9         -5.5643   -3.8189    0.3325 C.2       1 <0>        -0.1280
     11 C10        -6.6088   -4.3003    1.0262 C.2       1 <0>         0.0807
     12 N2         -6.3673   -4.1813    2.3722 N.pl3     1 <0>        -0.4105
     13 C11        -5.1391   -3.6101    2.5783 C.ar      1 <0>         0.3375
     14 N3         -4.4372   -3.2787    3.6607 N.ar      1 <0>        -0.5308
     15 C12        -3.2483   -2.7273    3.5476 C.ar      1 <0>         0.3465
     16 N4         -2.6847   -2.4792    2.3788 N.ar      1 <0>        -0.5495
     17 C13        -2.4948   -2.3711    4.8032 C.3       1 <0>        -0.0797
     18 C14        -7.2466   -4.5848    3.3857 C.ar      1 <0>         0.1040
     19 C15        -8.1933   -3.6972    3.8794 C.ar      1 <0>        -0.0550
     20 C16        -9.0587   -4.0980    4.8785 C.ar      1 <0>        -0.1221
     21 C17        -8.9830   -5.3816    5.3870 C.ar      1 <0>        -0.0606
     22 C18        -8.0409   -6.2678    4.8977 C.ar      1 <0>        -0.1219
     23 C19        -7.1768   -5.8749    3.8943 C.ar      1 <0>        -0.0540
     24 C20        -6.1552   -6.8435    3.3566 C.3       1 <0>        -0.1156
     25 C21        -9.9288   -5.8156    6.4771 C.3       1 <0>        -0.1181
     26 C22        -8.2762   -2.2979    3.3262 C.3       1 <0>        -0.1140
     27 C23        -7.8586   -4.8827    0.4181 C.3       1 <0>        -0.0903
     28 C24        -5.4314   -3.7640   -1.1676 C.3       1 <0>        -0.0982
     29 H1          2.0590   -5.6528   -1.2517 H         1 <0>         0.0531
     30 H2          2.0589   -3.9044   -0.9179 H         1 <0>         0.0537
     31 H3          1.6419   -5.0569    0.3729 H         1 <0>         0.0526
     32 H4          0.0255   -4.5715   -2.1704 H         1 <0>         0.0614
     33 H5         -0.3915   -5.7240   -0.8796 H         1 <0>         0.0587
     34 H6         -0.5172   -3.8566    0.7471 H         1 <0>         0.0634
     35 H7         -0.1002   -2.7042   -0.5438 H         1 <0>         0.0639
     36 H8         -2.1337   -3.3713   -1.7962 H         1 <0>         0.0730
     37 H9         -2.5506   -4.5237   -0.5054 H         1 <0>         0.0624
     38 H10        -2.8713   -0.4255    0.2865 H         1 <0>         0.0654
     39 H11        -1.8170   -0.9394   -1.0523 H         1 <0>         0.0689
     40 H12        -3.8991   -0.0252   -1.9672 H         1 <0>         0.0623
     41 H13        -3.8444   -1.7784   -2.2695 H         1 <0>         0.0627
     42 H14        -4.8607   -1.1326   -0.9586 H         1 <0>         0.0595
     43 H15        -1.8804   -3.2173    5.1106 H         1 <0>         0.0829
     44 H16        -1.8560   -1.5090    4.6113 H         1 <0>         0.0854
     45 H17        -3.2030   -2.1294    5.5957 H         1 <0>         0.0825
     46 H18        -9.7951   -3.4079    5.2632 H         1 <0>         0.1301
     47 H19        -7.9837   -7.2695    5.2973 H         1 <0>         0.1301
     48 H20        -5.2358   -6.7609    3.9363 H         1 <0>         0.0730
     49 H21        -6.5426   -7.8595    3.4325 H         1 <0>         0.0727
     50 H22        -5.9482   -6.6106    2.3121 H         1 <0>         0.0650
     51 H23       -10.8275   -6.2409    6.0303 H         1 <0>         0.0750
     52 H24        -9.4436   -6.5657    7.1017 H         1 <0>         0.0699
     53 H25       -10.1993   -4.9542    7.0877 H         1 <0>         0.0699
     54 H26        -8.9668   -2.2809    2.4830 H         1 <0>         0.0742
     55 H27        -8.6336   -1.6210    4.1021 H         1 <0>         0.0724
     56 H28        -7.2883   -1.9798    2.9932 H         1 <0>         0.0628
     57 H29        -7.7276   -5.9555    0.2761 H         1 <0>         0.0784
     58 H30        -8.7034   -4.7048    1.0835 H         1 <0>         0.0693
     59 H31        -8.0487   -4.4093   -0.5451 H         1 <0>         0.0876
     60 H32        -4.8920   -4.6444   -1.5170 H         1 <0>         0.0624
     61 H33        -6.4230   -3.7423   -1.6197 H         1 <0>         0.0610
     62 H34        -4.8830   -2.8657   -1.4512 H         1 <0>         0.0893
@<TRIPOS>BOND
     1    1    2 1
     2    1   29 1
     3    1   30 1
     4    1   31 1
     5    2    3 1
     6    2   32 1
     7    2   33 1
     8    3    4 1
     9    3   34 1
    10    3   35 1
    11    4    5 1
    12    4   36 1
    13    4   37 1
    14    5    6 1
    15    5    8 1
    16    6    7 1
    17    6   38 1
    18    6   39 1
    19    7   40 1
    20    7   41 1
    21    7   42 1
    22    8   16 ar
    23    8    9 ar
    24    9   13 ar
    25    9   10 1
    26   10   11 2
    27   10   28 1
    28   11   12 1
    29   11   27 1
    30   12   13 1
    31   12   18 1
    32   13   14 ar
    33   14   15 ar
    34   15   16 ar
    35   15   17 1
    36   17   43 1
    37   17   44 1
    38   17   45 1
    39   18   23 ar
    40   18   19 ar
    41   19   20 ar
    42   19   26 1
    43   20   21 ar
    44   20   46 1
    45   21   22 ar
    46   21   25 1
    47   22   23 ar
    48   22   47 1
    49   23   24 1
    50   24   48 1
    51   24   49 1
    52   24   50 1
    53   25   51 1
    54   25   52 1
    55   25   53 1
    56   26   54 1
    57   26   55 1
    58   26   56 1
    59   27   57 1
    60   27   58 1
    61   27   59 1
    62   28   60 1
    63   28   61 1
    64   28   62 1
@<TRIPOS>MOLECULE
ZINC00602283
   61    63     0     0     0
SMALL
USER_CHARGES
9-(6-dimethylamino-4-methyl-3-pyridyl)-3,8-dimethyl-N,N-dipropyl-2,6,7-triazabicyclo[4.3.0]nona-2,4,7,9-tetraen-5-amine
@<TRIPOS>ATOM
      1 C1          0.2206   -0.8215   -1.6173 C.3       1 <0>        -0.1535
      2 C2         -0.4069   -0.3576   -0.3013 C.3       1 <0>        -0.1320
      3 C3          0.0261    1.0804   -0.0088 C.3       1 <0>         0.0430
      4 N1         -0.6673    1.5660    1.1918 N.pl3     1 <0>        -0.4767
      5 C4         -0.6704    3.0342    1.2403 C.3       1 <0>         0.0494
      6 C5         -1.7001    3.5751    0.2463 C.3       1 <0>        -0.1179
      7 C6         -1.7951    5.0957    0.3872 C.3       1 <0>        -0.1518
      8 C7         -0.1077    1.0353    2.3339 C.2       1 <0>         0.4150
      9 C8          0.9548    0.1756    2.2530 C.2       1 <0>        -0.2984
     10 C9          1.5019   -0.3469    3.4244 C.2       1 <0>         0.2517
     11 N2          1.0025   -0.0169    4.5964 N.2       1 <0>        -0.5095
     12 C10        -0.0351    0.8216    4.6923 C.2       1 <0>         0.3345
     13 N3         -0.6022    1.3641    3.5687 N.pl3     1 <0>        -0.3200
     14 N4         -1.6492    2.1983    3.9744 N.2       1 <0>        -0.2992
     15 C11        -1.7308    2.1835    5.2825 C.2       1 <0>         0.1527
     16 C12        -0.7448    1.3279    5.7873 C.2       1 <0>        -0.2574
     17 C13        -0.4900    1.0261    7.2158 C.ar      1 <0>        -0.0167
     18 C14         0.3933    1.8083    7.9562 C.ar      1 <0>         0.1566
     19 C15         0.0309    0.5339    9.8466 C.ar      1 <0>         0.4494
     20 C16        -0.8598   -0.2950    9.1715 C.ar      1 <0>        -0.2090
     21 C17        -1.1292   -0.0525    7.8385 C.ar      1 <0>         0.0980
     22 C18        -2.0875   -0.9282    7.0730 C.3       1 <0>        -0.1356
     23 N5          0.3071    0.2957   11.1895 N.pl3     1 <0>        -0.5968
     24 C19        -0.2516   -0.8843   11.8542 C.3       1 <0>         0.0714
     25 C20         1.1567    1.2249   11.9387 C.3       1 <0>         0.0523
     26 C21        -2.7309    2.9520    6.1073 C.3       1 <0>        -0.0824
     27 C22         2.6715   -1.2941    3.3478 C.3       1 <0>        -0.1137
     28 H1          1.3068   -0.7783   -1.5370 H         1 <0>         0.0575
     29 H2         -0.0879   -1.8459   -1.8257 H         1 <0>         0.0646
     30 H3         -0.1100   -0.1707   -2.4268 H         1 <0>         0.0601
     31 H4         -0.0763   -1.0084    0.5082 H         1 <0>         0.0692
     32 H5         -1.4931   -0.4007   -0.3816 H         1 <0>         0.0769
     33 H6          1.1031    1.1090    0.1571 H         1 <0>         0.0690
     34 H7         -0.2278    1.7160   -0.8571 H         1 <0>         0.1027
     35 H8         -0.9287    3.3639    2.2466 H         1 <0>         0.0994
     36 H9          0.3192    3.4085    0.9780 H         1 <0>         0.0578
     37 H10        -1.3929    3.3228   -0.7686 H         1 <0>         0.0666
     38 H11        -2.6733    3.1296    0.4527 H         1 <0>         0.0766
     39 H12        -2.1023    5.3480    1.4021 H         1 <0>         0.0571
     40 H13        -0.8220    5.5412    0.1808 H         1 <0>         0.0549
     41 H14        -2.5287    5.4810   -0.3209 H         1 <0>         0.0648
     42 H15         1.3653   -0.0949    1.2914 H         1 <0>         0.1779
     43 H16         0.8952    2.6401    7.4844 H         1 <0>         0.1885
     44 H17        -1.3353   -1.1183    9.6839 H         1 <0>         0.1804
     45 H18        -1.5410   -1.7552    6.6197 H         1 <0>         0.1022
     46 H19        -2.8429   -1.3214    7.7533 H         1 <0>         0.0913
     47 H20        -2.5716   -0.3413    6.2925 H         1 <0>         0.0906
     48 H21         0.4400   -1.7205   11.7519 H         1 <0>         0.0808
     49 H22        -0.4053   -0.6672   12.9113 H         1 <0>         0.0969
     50 H23        -1.2052   -1.1430   11.3941 H         1 <0>         0.0891
     51 H24         0.7027    2.2158   11.9349 H         1 <0>         0.0785
     52 H25         1.2589    0.8759   12.9662 H         1 <0>         0.1115
     53 H26         2.1406    1.2742   11.4722 H         1 <0>         0.0757
     54 H27        -3.6230    2.3436    6.2563 H         1 <0>         0.0907
     55 H28        -2.2923    3.1968    7.0747 H         1 <0>         0.0785
     56 H29        -3.0006    3.8713    5.5876 H         1 <0>         0.0872
     57 H30         3.6015   -0.7266    3.3818 H         1 <0>         0.0951
     58 H31         2.6360   -1.9842    4.1909 H         1 <0>         0.0888
     59 H32         2.6230   -1.8567    2.4155 H         1 <0>         0.0905
     60 N6          0.6701    1.5926    9.2690 N.ar      1 <0>        -0.5386
     61 H33         1.3201    2.1893    9.7941 H         1 <0>         0.4637
@<TRIPOS>BOND
     1    1    2 1
     2    1   28 1
     3    1   29 1
     4    1   30 1
     5    2    3 1
     6    2   31 1
     7    2   32 1
     8    3    4 1
     9    3   33 1
    10    3   34 1
    11    4    5 1
    12    4    8 1
    13    5    6 1
    14    5   35 1
    15    5   36 1
    16    6    7 1
    17    6   37 1
    18    6   38 1
    19    7   39 1
    20    7   40 1
    21    7   41 1
    22    8   13 1
    23    8    9 2
    24    9   10 1
    25    9   42 1
    26   10   11 2
    27   10   27 1
    28   11   12 1
    29   12   16 2
    30   12   13 1
    31   13   14 1
    32   14   15 2
    33   15   16 1
    34   15   26 1
    35   16   17 1
    36   17   21 ar
    37   17   18 ar
    38   18   43 1
    39   18   60 ar
    40   19   20 ar
    41   19   23 1
    42   19   60 ar
    43   20   21 ar
    44   20   44 1
    45   21   22 1
    46   22   45 1
    47   22   46 1
    48   22   47 1
    49   23   24 1
    50   23   25 1
    51   24   48 1
    52   24   49 1
    53   24   50 1
    54   25   51 1
    55   25   52 1
    56   25   53 1
    57   26   54 1
    58   26   55 1
    59   26   56 1
    60   27   57 1
    61   27   58 1
    62   27   59 1
    63   60   61 1
@<TRIPOS>MOLECULE
ZINC02511843
   46    48     0     0     0
SMALL
USER_CHARGES

@<TRIPOS>ATOM
      1 C1          1.6534    2.1555    4.3146 C.3       1 <0>        -0.1504
      2 C2          1.0075    1.0928    3.4235 C.3       1 <0>        -0.1460
      3 C3          1.7674   -0.2270    3.5710 C.3       1 <0>         0.1502
      4 N1          1.1489   -1.2446    2.7177 N.pl3     1 <0>        -0.6519
      5 C4          1.5257   -1.3439    1.3054 C.3       1 <0>         0.1805
      6 C5          2.7064   -2.3058    1.1590 C.3       1 <0>        -0.1731
      7 C6          4.0248   -1.7317    0.6363 C.3       1 <0>        -0.1769
      8 C7          3.1763   -2.6369   -0.2589 C.3       1 <0>        -0.1798
      9 C8          0.2067   -2.1140    3.2468 C.ar      1 <0>         0.4753
     10 C9         -1.1535   -1.8444    3.1197 C.ar      1 <0>        -0.2070
     11 C10        -2.0586   -2.7488    3.6680 C.ar      1 <0>         0.4552
     12 N2         -1.5941   -3.8314    4.2897 N.ar      1 <0>        -0.5464
     13 C11        -0.2991   -4.0507    4.3888 C.ar      1 <0>         0.3750
     14 N3          0.5893   -3.2217    3.8791 N.ar      1 <0>        -0.5466
     15 C12         0.1806   -5.2891    5.1011 C.3       1 <0>        -0.0854
     16 N4         -3.4247   -2.5257    3.5687 N.pl3     1 <0>        -0.6529
     17 C13        -4.3223   -3.3766    4.2240 C.ar      1 <0>         0.1724
     18 C14        -5.2136   -2.8626    5.1578 C.ar      1 <0>        -0.0278
     19 C15        -6.0987   -3.7055    5.8032 C.ar      1 <0>        -0.0873
     20 C16        -6.0978   -5.0600    5.5203 C.ar      1 <0>        -0.0176
     21 C17        -5.2114   -5.5750    4.5908 C.ar      1 <0>        -0.0872
     22 C18        -4.3278   -4.7364    3.9378 C.ar      1 <0>         0.0007
     23 Cl1        -3.2214   -5.3822    2.7663 Cl        1 <0>        -0.0241
     24 Cl2        -7.2106   -6.1155    6.3334 Cl        1 <0>        -0.0388
     25 Cl3        -5.2151   -1.1635    5.5139 Cl        1 <0>        -0.0337
     26 Cl4        -1.7060   -0.4175    2.2997 Cl        1 <0>        -0.0369
     27 H1          2.6917    2.2987    4.0152 H         1 <0>         0.0550
     28 H2          1.1121    3.0957    4.2096 H         1 <0>         0.0555
     29 H3          1.6167    1.8293    5.3540 H         1 <0>         0.0530
     30 H4         -0.0307    0.9496    3.7229 H         1 <0>         0.0657
     31 H5          1.0442    1.4190    2.3841 H         1 <0>         0.0633
     32 H6          2.8057   -0.0838    3.2715 H         1 <0>         0.0728
     33 H7          1.7307   -0.5532    4.6104 H         1 <0>         0.0652
     34 H8          0.6793   -1.7172    0.7290 H         1 <0>         0.0671
     35 H9          1.8112   -0.3592    0.9355 H         1 <0>         0.0777
     36 H10         2.7629   -3.0979    1.9057 H         1 <0>         0.1110
     37 H11         4.0509   -0.6687    0.3968 H         1 <0>         0.0929
     38 H12         4.9490   -2.1459    1.0393 H         1 <0>         0.0917
     39 H13         3.5423   -3.6467   -0.4450 H         1 <0>         0.0927
     40 H14         2.6442   -2.1694   -1.0875 H         1 <0>         0.0930
     41 H15         0.2764   -6.1057    4.3856 H         1 <0>         0.0888
     42 H16         1.1496   -5.0922    5.5597 H         1 <0>         0.0891
     43 H17        -0.5375   -5.5651    5.8734 H         1 <0>         0.0877
     44 H18        -3.7576   -1.7800    3.0452 H         1 <0>         0.4276
     45 H19        -6.7915   -3.3066    6.5294 H         1 <0>         0.1556
     46 H20        -5.2131   -6.6326    4.3721 H         1 <0>         0.1550
@<TRIPOS>BOND
     1    1    2 1
     2    1   27 1
     3    1   28 1
     4    1   29 1
     5    2    3 1
     6    2   30 1
     7    2   31 1
     8    3    4 1
     9    3   32 1
    10    3   33 1
    11    4    5 1
    12    4    9 1
    13    5    6 1
    14    5   34 1
    15    5   35 1
    16    6    8 1
    17    6    7 1
    18    6   36 1
    19    7    8 1
    20    7   37 1
    21    7   38 1
    22    8   39 1
    23    8   40 1
    24    9   14 ar
    25    9   10 ar
    26   10   11 ar
    27   10   26 1
    28   11   12 ar
    29   11   16 1
    30   12   13 ar
    31   13   14 ar
    32   13   15 1
    33   15   41 1
    34   15   42 1
    35   15   43 1
    36   16   17 1
    37   16   44 1
    38   17   22 ar
    39   17   18 ar
    40   18   19 ar
    41   18   25 1
    42   19   20 ar
    43   19   45 1
    44   20   21 ar
    45   20   24 1
    46   21   22 ar
    47   21   46 1
    48   22   23 1
@<TRIPOS>MOLECULE
ZINC40914223
   49    51     0     0     0
SMALL
USER_CHARGES

@<TRIPOS>ATOM
      1 C1         -0.0187    1.5258    0.0104 C.3       1 <0>        -0.1558
      2 C2          0.0021   -0.0041    0.0020 C.3       1 <0>        -0.1339
      3 C3          0.7182   -0.4975   -1.2568 C.3       1 <0>         0.1507
      4 H1          0.2444   -0.0644   -2.1377 H         1 <0>         0.1034
      5 C4          0.6303   -2.0233   -1.3286 C.3       1 <0>        -0.1655
      6 N1          2.1249   -0.0911   -1.2094 N.pl3     1 <0>        -0.6703
      7 C5          2.8358    0.0539   -2.3720 C.2       1 <0>         0.6774
      8 N2          2.2578   -0.1658   -3.5390 N.2       1 <0>        -0.5993
      9 C6          2.9364   -0.0287   -4.6753 C.2       1 <0>         0.3989
     10 N3          4.2009    0.3284   -4.6766 N.2       1 <0>        -0.5423
     11 C7          4.8346    0.5634   -3.5189 C.2       1 <0>         0.3285
     12 N4          4.1497    0.4331   -2.3356 N.pl3     1 <0>        -0.3829
     13 N5          5.0300    0.7390   -1.2947 N.2       1 <0>        -0.3138
     14 C8          6.2000    1.0494   -1.7967 C.2       1 <0>         0.1516
     15 C9          6.1354    0.9459   -3.1933 C.2       1 <0>        -0.1978
     16 C10         7.2388    1.2108   -4.1468 C.ar      1 <0>        -0.0777
     17 C11         7.4441    2.4987   -4.6555 C.ar      1 <0>        -0.0212
     18 C12         8.4861    2.6963   -5.5411 C.ar      1 <0>        -0.1947
     19 C13         9.2899    1.6193   -5.8953 C.ar      1 <0>         0.3248
     20 N6          9.0695    0.4141   -5.3973 N.ar      1 <0>        -0.5393
     21 C14         8.0902    0.1832   -4.5453 C.ar      1 <0>         0.1887
     22 C15         7.8861   -1.2077   -4.0023 C.3       1 <0>        -0.0994
     23 O1         10.3151    1.8068   -6.7649 O.3       1 <0>        -0.3087
     24 C16        11.1065    0.6626   -7.0912 C.3       1 <0>         0.0405
     25 C17         7.4193    1.4405   -1.0020 C.3       1 <0>        -0.0783
     26 C18         2.2411   -0.2885   -5.9868 C.3       1 <0>        -0.0848
     27 H2          1.0039    1.9031    0.0027 H         1 <0>         0.0522
     28 H3         -0.5459    1.8868   -0.8726 H         1 <0>         0.0581
     29 H4         -0.5289    1.8773    0.9072 H         1 <0>         0.0612
     30 H5          0.5293   -0.3651    0.8851 H         1 <0>         0.0711
     31 H6         -1.0205   -0.3814    0.0098 H         1 <0>         0.0888
     32 H7         -0.4163   -2.3257   -1.3639 H         1 <0>         0.0749
     33 H8          1.1405   -2.3748   -2.2254 H         1 <0>         0.0642
     34 H9          1.1041   -2.4564   -0.4477 H         1 <0>         0.0580
     35 H10         2.5531    0.0754   -0.3551 H         1 <0>         0.4218
     36 H11         6.8036    3.3176   -4.3631 H         1 <0>         0.1378
     37 H12         8.6736    3.6766   -5.9538 H         1 <0>         0.1418
     38 H13         7.2101   -1.7577   -4.6570 H         1 <0>         0.0769
     39 H14         8.8451   -1.7234   -3.9544 H         1 <0>         0.0765
     40 H15         7.4553   -1.1480   -3.0028 H         1 <0>         0.0723
     41 H16        11.8889    0.9503   -7.7935 H         1 <0>         0.0956
     42 H17        11.5610    0.2645   -6.1840 H         1 <0>         0.0586
     43 H18        10.4732   -0.0997   -7.5451 H         1 <0>         0.0586
     44 H19         7.9969    0.5483   -0.7602 H         1 <0>         0.0874
     45 H20         8.0332    2.1223   -1.5904 H         1 <0>         0.0849
     46 H21         7.1096    1.9336   -0.0806 H         1 <0>         0.0816
     47 H22         1.2056   -0.5723   -5.7990 H         1 <0>         0.0912
     48 H23         2.2655    0.6149   -6.5962 H         1 <0>         0.0940
     49 H24         2.7493   -1.0961   -6.5137 H         1 <0>         0.0940
@<TRIPOS>BOND
     1    1    2 1
     2    1   27 1
     3    1   28 1
     4    1   29 1
     5    2    3 1
     6    2   30 1
     7    2   31 1
     8    3    4 1
     9    3    5 1
    10    3    6 1
    11    5   32 1
    12    5   33 1
    13    5   34 1
    14    6    7 1
    15    6   35 1
    16    7   12 1
    17    7    8 2
    18    8    9 1
    19    9   10 2
    20    9   26 1
    21   10   11 1
    22   11   15 2
    23   11   12 1
    24   12   13 1
    25   13   14 2
    26   14   15 1
    27   14   25 1
    28   15   16 1
    29   16   21 ar
    30   16   17 ar
    31   17   18 ar
    32   17   36 1
    33   18   19 ar
    34   18   37 1
    35   19   20 ar
    36   19   23 1
    37   20   21 ar
    38   21   22 1
    39   22   38 1
    40   22   39 1
    41   22   40 1
    42   23   24 1
    43   24   41 1
    44   24   42 1
    45   24   43 1
    46   25   44 1
    47   25   45 1
    48   25   46 1
    49   26   47 1
    50   26   48 1
    51   26   49 1
@<TRIPOS>MOLECULE
ZINC34023590
   58    60     0     0     0
SMALL
USER_CHARGES

@<TRIPOS>ATOM
      1 C1         -0.0184    1.5028    0.0103 C.3       1 <0>        -0.1098
      2 C2          0.0021   -0.0041    0.0020 C.ar      1 <0>        -0.0265
      3 C3          0.0057   -0.6881   -1.1960 C.ar      1 <0>        -0.1530
      4 C4          0.0245   -2.0757   -1.2046 C.ar      1 <0>         0.1315
      5 C5          0.0392   -2.7804   -0.0087 C.ar      1 <0>        -0.2126
      6 C6          0.0356   -2.1032    1.1928 C.ar      1 <0>        -0.0564
      7 C7          0.0231   -0.7085    1.2052 C.ar      1 <0>        -0.0275
      8 C8          0.0259    0.0229    2.4942 C.2       1 <0>        -0.1982
      9 C9         -1.1006    0.4132    3.2316 C.2       1 <0>         0.1481
     10 N1         -0.7031    1.0362    4.3137 N.2       1 <0>        -0.3180
     11 N2          0.6931    1.0807    4.3319 N.pl3     1 <0>        -0.3792
     12 C10         1.1498    0.4460    3.2029 C.2       1 <0>         0.3275
     13 N3          2.4696    0.3505    2.9885 N.2       1 <0>        -0.5425
     14 C11         3.3167    0.8585    3.8550 C.2       1 <0>         0.3981
     15 N4          2.8936    1.4739    4.9562 N.2       1 <0>        -0.6079
     16 C12         1.6037    1.6015    5.2101 C.2       1 <0>         0.6715
     17 N5          1.1820    2.2369    6.3487 N.pl3     1 <0>        -0.5463
     18 C13         2.1634    2.7919    7.2841 C.3       1 <0>         0.1317
     19 C14         2.4739    4.2395    6.8982 C.3       1 <0>         0.0439
     20 O1          1.3007    5.0385    7.0629 O.3       1 <0>        -0.3901
     21 C15         1.4835    6.4155    6.7275 C.3       1 <0>         0.0326
     22 C16        -0.2503    2.3612    6.6305 C.3       1 <0>         0.1069
     23 C17        -0.7178    1.1501    7.4401 C.3       1 <0>         0.0519
     24 O2         -0.0791    1.1564    8.7184 O.3       1 <0>        -0.3906
     25 C18        -0.4486    0.0609    9.5582 C.3       1 <0>         0.0328
     26 C19         4.7968    0.7412    3.5968 C.3       1 <0>        -0.0841
     27 C20        -2.5343    0.1584    2.8432 C.3       1 <0>        -0.0780
     28 O3          0.0281   -2.7465   -2.3870 O.3       1 <0>        -0.3186
     29 C21         0.0477   -4.1740   -2.3230 C.3       1 <0>         0.0274
     30 H1          1.0042    1.8801    0.0026 H         1 <0>         0.0697
     31 H2         -0.5455    1.8639   -0.8728 H         1 <0>         0.0673
     32 H3         -0.5286    1.8543    0.9071 H         1 <0>         0.0648
     33 H4         -0.0064   -0.1431   -2.1283 H         1 <0>         0.1301
     34 H5          0.0531   -3.8603   -0.0191 H         1 <0>         0.1269
     35 H6          0.0467   -2.6520    2.1228 H         1 <0>         0.1200
     36 H7          1.7574    2.7646    8.2953 H         1 <0>         0.1065
     37 H8          3.0784    2.2009    7.2438 H         1 <0>         0.1095
     38 H9          3.2681    4.6238    7.5382 H         1 <0>         0.0668
     39 H10         2.7958    4.2770    5.8575 H         1 <0>         0.0537
     40 H11         1.7848    6.4982    5.6832 H         1 <0>         0.0389
     41 H12         0.5478    6.9538    6.8793 H         1 <0>         0.0868
     42 H13         2.2571    6.8450    7.3640 H         1 <0>         0.0432
     43 H14        -0.4305    3.2718    7.2019 H         1 <0>         0.1058
     44 H15        -0.8027    2.4059    5.6919 H         1 <0>         0.1264
     45 H16        -1.7985    1.1975    7.5737 H         1 <0>         0.0657
     46 H17        -0.4573    0.2350    6.9083 H         1 <0>         0.0473
     47 H18         0.0785    0.1380   10.5091 H         1 <0>         0.0873
     48 H19        -1.5238    0.0857    9.7358 H         1 <0>         0.0426
     49 H20        -0.1825   -0.8768    9.0704 H         1 <0>         0.0377
     50 H21         4.9611    0.2122    2.6581 H         1 <0>         0.0921
     51 H22         5.2347    1.7374    3.5340 H         1 <0>         0.0919
     52 H23         5.2652    0.1892    4.4117 H         1 <0>         0.0922
     53 H24        -2.8582   -0.7971    3.2558 H         1 <0>         0.0858
     54 H25        -3.1644    0.9562    3.2361 H         1 <0>         0.0801
     55 H26        -2.6171    0.1317    1.7567 H         1 <0>         0.0859
     56 H27        -0.8351   -4.5259   -1.7893 H         1 <0>         0.0553
     57 H28         0.0485   -4.5830   -3.3334 H         1 <0>         0.0996
     58 H29         0.9447   -4.5018   -1.7976 H         1 <0>         0.0554
@<TRIPOS>BOND
     1    1    2 1
     2    1   30 1
     3    1   31 1
     4    1   32 1
     5    2    7 ar
     6    2    3 ar
     7    3    4 ar
     8    3   33 1
     9    4    5 ar
    10    4   28 1
    11    5    6 ar
    12    5   34 1
    13    6    7 ar
    14    6   35 1
    15    7    8 1
    16    8   12 2
    17    8    9 1
    18    9   10 2
    19    9   27 1
    20   10   11 1
    21   11   16 1
    22   11   12 1
    23   12   13 1
    24   13   14 2
    25   14   15 1
    26   14   26 1
    27   15   16 2
    28   16   17 1
    29   17   18 1
    30   17   22 1
    31   18   19 1
    32   18   36 1
    33   18   37 1
    34   19   20 1
    35   19   38 1
    36   19   39 1
    37   20   21 1
    38   21   40 1
    39   21   41 1
    40   21   42 1
    41   22   23 1
    42   22   43 1
    43   22   44 1
    44   23   24 1
    45   23   45 1
    46   23   46 1
    47   24   25 1
    48   25   47 1
    49   25   48 1
    50   25   49 1
    51   26   50 1
    52   26   51 1
    53   26   52 1
    54   27   53 1
    55   27   54 1
    56   27   55 1
    57   28   29 1
    58   29   56 1
    59   29   57 1
    60   29   58 1
@<TRIPOS>MOLECULE
ZINC34007762
   49    51     0     0     0
SMALL
USER_CHARGES

@<TRIPOS>ATOM
      1 C1         -0.0187    1.5258    0.0104 C.3       1 <0>        -0.1558
      2 C2          0.0021   -0.0041    0.0020 C.3       1 <0>        -0.1340
      3 C3          0.7182   -0.4975   -1.2568 C.3       1 <0>         0.1508
      4 H1          1.7103   -0.0491   -1.3098 H         1 <0>         0.1033
      5 C4          0.8493   -2.0210   -1.2049 C.3       1 <0>        -0.1656
      6 N1         -0.0549   -0.1139   -2.4405 N.pl3     1 <0>        -0.6703
      7 C5          0.5714    0.0303   -3.6509 C.2       1 <0>         0.6773
      8 N2          1.8708   -0.1803   -3.7588 N.2       1 <0>        -0.5993
      9 C6          2.4914   -0.0439   -4.9279 C.2       1 <0>         0.3989
     10 N3          1.8361    0.3043   -6.0122 N.2       1 <0>        -0.5423
     11 C7          0.5158    0.5298   -5.9569 C.2       1 <0>         0.3285
     12 N4         -0.1439    0.3883   -4.7606 N.pl3     1 <0>        -0.3828
     13 N5         -1.4945    0.6707   -4.9798 N.2       1 <0>        -0.3138
     14 C8         -1.6735    0.9672   -6.2437 C.2       1 <0>         0.1516
     15 C9         -0.4380    0.9028   -6.9032 C.2       1 <0>        -0.1978
     16 C10        -0.1941    1.1652   -8.3414 C.ar      1 <0>        -0.0777
     17 C11        -0.2919    0.1302   -9.2787 C.ar      1 <0>        -0.0212
     18 C12        -0.0561    0.4239  -10.6082 C.ar      1 <0>        -0.1947
     19 C13         0.2678    1.7264  -10.9687 C.ar      1 <0>         0.3248
     20 N6          0.3527    2.6823  -10.0588 N.ar      1 <0>        -0.5393
     21 C14         0.1300    2.4464   -8.7808 C.ar      1 <0>         0.1887
     22 C15         0.2335    3.5728   -7.7851 C.3       1 <0>        -0.0994
     23 O1          0.5006    2.0215  -12.2729 O.3       1 <0>        -0.3088
     24 C16         0.8292    3.3773  -12.5827 C.3       1 <0>         0.0406
     25 C17        -2.9897    1.3309   -6.8811 C.3       1 <0>        -0.0784
     26 C18         3.9754   -0.2932   -5.0098 C.3       1 <0>        -0.0848
     27 H2          1.0039    1.9031    0.0027 H         1 <0>         0.0581
     28 H3         -0.5459    1.8868   -0.8726 H         1 <0>         0.0522
     29 H4         -0.5289    1.8773    0.9072 H         1 <0>         0.0612
     30 H5          0.5293   -0.3651    0.8851 H         1 <0>         0.0888
     31 H6         -1.0205   -0.3814    0.0098 H         1 <0>         0.0711
     32 H7          1.3594   -2.3725   -2.1017 H         1 <0>         0.0643
     33 H8          1.4245   -2.3064   -0.3242 H         1 <0>         0.0749
     34 H9         -0.1428   -2.4694   -1.1520 H         1 <0>         0.0578
     35 H10        -1.0102    0.0381   -2.3676 H         1 <0>         0.4218
     36 H11        -0.5451   -0.8734   -8.9703 H         1 <0>         0.1378
     37 H12        -0.1224   -0.3501  -11.3585 H         1 <0>         0.1418
     38 H13         1.2564    3.6368   -7.4140 H         1 <0>         0.0769
     39 H14        -0.0369    4.5114   -8.2688 H         1 <0>         0.0766
     40 H15        -0.4440    3.3849   -6.9522 H         1 <0>         0.0723
     41 H16         0.9901    3.4759  -13.6562 H         1 <0>         0.0956
     42 H17         0.0105    4.0285  -12.2767 H         1 <0>         0.0586
     43 H18         1.7375    3.6614  -12.0515 H         1 <0>         0.0586
     44 H19        -3.1336    2.4100   -6.8272 H         1 <0>         0.0875
     45 H20        -2.9872    1.0163   -7.9248 H         1 <0>         0.0849
     46 H21        -3.8003    0.8294   -6.3525 H         1 <0>         0.0816
     47 H22         4.3522   -0.5697   -4.0252 H         1 <0>         0.0912
     48 H23         4.1695   -1.1025   -5.7137 H         1 <0>         0.0939
     49 H24         4.4777    0.6124   -5.3499 H         1 <0>         0.0940
@<TRIPOS>BOND
     1    1    2 1
     2    1   27 1
     3    1   28 1
     4    1   29 1
     5    2    3 1
     6    2   30 1
     7    2   31 1
     8    3    4 1
     9    3    5 1
    10    3    6 1
    11    5   32 1
    12    5   33 1
    13    5   34 1
    14    6    7 1
    15    6   35 1
    16    7   12 1
    17    7    8 2
    18    8    9 1
    19    9   10 2
    20    9   26 1
    21   10   11 1
    22   11   15 2
    23   11   12 1
    24   12   13 1
    25   13   14 2
    26   14   15 1
    27   14   25 1
    28   15   16 1
    29   16   21 ar
    30   16   17 ar
    31   17   18 ar
    32   17   36 1
    33   18   19 ar
    34   18   37 1
    35   19   20 ar
    36   19   23 1
    37   20   21 ar
    38   21   22 1
    39   22   38 1
    40   22   39 1
    41   22   40 1
    42   23   24 1
    43   24   41 1
    44   24   42 1
    45   24   43 1
    46   25   44 1
    47   25   45 1
    48   25   46 1
    49   26   47 1
    50   26   48 1
    51   26   49 1
@<TRIPOS>MOLECULE
ZINC01539133
   59    61     0     0     0
SMALL
USER_CHARGES
N-butyl-N-ethyl-4,9-dimethyl-7-(2,4,6-trimethylphenyl)-3,5,7-triazabicyclo[4.3.0]nona-2,4,8,10-tetraen-2-amine
@<TRIPOS>ATOM
      1 C1          0.0401    7.9356    1.8211 C.3       1 <0>        -0.1516
      2 C2         -0.1899    6.4357    2.0171 C.3       1 <0>        -0.1236
      3 C3          0.5897    5.6572    0.9555 C.3       1 <0>        -0.1136
      4 C4          0.3596    4.1573    1.1515 C.3       1 <0>         0.0645
      5 N1          1.2057    3.4057    0.2150 N.pl3     1 <0>        -0.4835
      6 C5          0.7032    3.5249   -1.1603 C.3       1 <0>         0.0499
      7 C6          1.8175    3.1613   -2.1437 C.3       1 <0>        -0.1460
      8 C7          1.3058    2.0788    0.5928 C.ar      1 <0>         0.4054
      9 C8          2.5355    1.5369    0.9973 C.ar      1 <0>        -0.1823
     10 C9          3.8957    2.0521    1.1449 C.2       1 <0>        -0.1171
     11 C10         4.6538    1.0319    1.5788 C.2       1 <0>         0.0474
     12 N2          3.8814   -0.0942    1.7191 N.pl3     1 <0>        -0.4122
     13 C11         2.5850    0.1817    1.3721 C.ar      1 <0>         0.3360
     14 N3          1.4618   -0.5327    1.3279 N.ar      1 <0>        -0.5275
     15 C12         0.3307    0.0169    0.9421 C.ar      1 <0>         0.3479
     16 N4          0.2394    1.2846    0.5820 N.ar      1 <0>        -0.5663
     17 C13        -0.9121   -0.8348    0.9092 C.3       1 <0>        -0.0807
     18 C14         4.3495   -1.3414    2.1534 C.ar      1 <0>         0.0998
     19 C15         4.8158   -2.2690    1.2314 C.ar      1 <0>        -0.0531
     20 C16         5.2824   -3.4952    1.6632 C.ar      1 <0>        -0.1225
     21 C17         5.2744   -3.8040    3.0110 C.ar      1 <0>        -0.0595
     22 C18         4.8049   -2.8846    3.9311 C.ar      1 <0>        -0.1225
     23 C19         4.3428   -1.6544    3.5061 C.ar      1 <0>        -0.0531
     24 C20         3.8322   -0.6527    4.5096 C.3       1 <0>        -0.1163
     25 C21         5.7779   -5.1453    3.4782 C.3       1 <0>        -0.1185
     26 C22         4.8186   -1.9358   -0.2383 C.3       1 <0>        -0.1144
     27 C23         4.3584    3.4587    0.8648 C.3       1 <0>        -0.0791
     28 H1         -0.5153    8.4903    2.5773 H         1 <0>         0.0539
     29 H2          1.1033    8.1557    1.9168 H         1 <0>         0.0549
     30 H3         -0.3039    8.2294    0.8293 H         1 <0>         0.0539
     31 H4         -1.2532    6.2157    1.9214 H         1 <0>         0.0607
     32 H5          0.1541    6.1420    3.0088 H         1 <0>         0.0614
     33 H6          1.6529    5.8773    1.0512 H         1 <0>         0.0738
     34 H7          0.2457    5.9509   -0.0362 H         1 <0>         0.0643
     35 H8         -0.6880    3.9228    0.9633 H         1 <0>         0.0505
     36 H9          0.6157    3.8811    2.1744 H         1 <0>         0.0709
     37 H10        -0.1394    2.8475   -1.2993 H         1 <0>         0.0551
     38 H11         0.3791    4.5497   -1.3411 H         1 <0>         0.0845
     39 H12         1.4739    3.3368   -3.1631 H         1 <0>         0.0620
     40 H13         2.6937    3.7782   -1.9443 H         1 <0>         0.0660
     41 H14         2.0787    2.1098   -2.0243 H         1 <0>         0.0459
     42 H15         5.7122    1.0888    1.7861 H         1 <0>         0.1765
     43 H16        -1.0067   -1.3017   -0.0713 H         1 <0>         0.0838
     44 H17        -0.8432   -1.6079    1.6745 H         1 <0>         0.0834
     45 H18        -1.7852   -0.2110    1.1004 H         1 <0>         0.0851
     46 H19         5.6496   -4.2153    0.9470 H         1 <0>         0.1305
     47 H20         4.7999   -3.1286    4.9832 H         1 <0>         0.1305
     48 H21         2.7622   -0.7991    4.6570 H         1 <0>         0.0729
     49 H22         4.3519   -0.7909    5.4577 H         1 <0>         0.0732
     50 H23         4.0133    0.3566    4.1398 H         1 <0>         0.0663
     51 H24         4.9526   -5.8572    3.4959 H         1 <0>         0.0755
     52 H25         6.5501   -5.5012    2.7961 H         1 <0>         0.0700
     53 H26         6.1952   -5.0479    4.4804 H         1 <0>         0.0700
     54 H27         5.7669   -1.4682   -0.5030 H         1 <0>         0.0755
     55 H28         4.6897   -2.8497   -0.8183 H         1 <0>         0.0724
     56 H29         4.0012   -1.2486   -0.4566 H         1 <0>         0.0626
     57 H30         4.3218    4.0431    1.7842 H         1 <0>         0.0643
     58 H31         5.3813    3.4366    0.4888 H         1 <0>         0.0604
     59 H32         3.7068    3.9137    0.1188 H         1 <0>         0.0820
@<TRIPOS>BOND
     1    1    2 1
     2    1   28 1
     3    1   29 1
     4    1   30 1
     5    2    3 1
     6    2   31 1
     7    2   32 1
     8    3    4 1
     9    3   33 1
    10    3   34 1
    11    4    5 1
    12    4   35 1
    13    4   36 1
    14    5    6 1
    15    5    8 1
    16    6    7 1
    17    6   37 1
    18    6   38 1
    19    7   39 1
    20    7   40 1
    21    7   41 1
    22    8   16 ar
    23    8    9 ar
    24    9   13 ar
    25    9   10 1
    26   10   11 2
    27   10   27 1
    28   11   12 1
    29   11   42 1
    30   12   13 1
    31   12   18 1
    32   13   14 ar
    33   14   15 ar
    34   15   16 ar
    35   15   17 1
    36   17   43 1
    37   17   44 1
    38   17   45 1
    39   18   23 ar
    40   18   19 ar
    41   19   20 ar
    42   19   26 1
    43   20   21 ar
    44   20   46 1
    45   21   22 ar
    46   21   25 1
    47   22   23 ar
    48   22   47 1
    49   23   24 1
    50   24   48 1
    51   24   49 1
    52   24   50 1
    53   25   51 1
    54   25   52 1
    55   25   53 1
    56   26   54 1
    57   26   55 1
    58   26   56 1
    59   27   57 1
    60   27   58 1
    61   27   59 1
