@<TRIPOS>MOLECULE
ZINC27730947
   42    43     0     0     0
SMALL
USER_CHARGES
(1S)-4-(3-phenoxyphenyl)-1-phosphono-butane-1-sulfonic acid
@<TRIPOS>ATOM
      1 C1          1.6500    1.2129    3.5828 C.ar      1 <0>        -0.1617
      2 C2          2.2525    1.5675    2.3899 C.ar      1 <0>        -0.0859
      3 C3          1.7028    1.1614    1.1895 C.ar      1 <0>        -0.1522
      4 C4          0.5449    0.3968    1.1815 C.ar      1 <0>         0.1298
      5 C5         -0.0610    0.0471    2.3798 C.ar      1 <0>        -0.1929
      6 C6          0.4958    0.4515    3.5776 C.ar      1 <0>        -0.0822
      7 O1          0.0021   -0.0041    0.0020 O.3       1 <0>        -0.2577
      8 C7         -1.1374   -0.7433    0.0427 C.ar      1 <0>         0.0718
      9 C8         -2.3747   -0.1151    0.0207 C.ar      1 <0>        -0.1389
     10 C9         -3.5313   -0.8688    0.0616 C.ar      1 <0>        -0.1046
     11 C10        -3.4573   -2.2483    0.1240 C.ar      1 <0>        -0.1041
     12 C11        -2.2260   -2.8766    0.1456 C.ar      1 <0>        -0.0455
     13 C12        -1.0660   -2.1276    0.1005 C.ar      1 <0>        -0.1243
     14 C13        -2.1491   -4.3802    0.2127 C.3       1 <0>        -0.0840
     15 C14        -2.1309   -4.9537   -1.2056 C.3       1 <0>        -0.1538
     16 C15        -2.0528   -6.4802   -1.1376 C.3       1 <0>        -0.0657
     17 C16        -2.0346   -7.0537   -2.5559 C.3       1 <0>        -1.2269
     18 H1         -1.1812   -6.5063   -2.9825 H         1 <0>         0.1067
     19 P1         -1.7923   -8.8588   -2.4784 P.3       1 <0>         2.2850
     20 O2         -2.8998   -9.4728   -1.7122 O.2       1 <0>        -1.0668
     21 O3         -1.7731   -9.4623   -3.9708 O.3       1 <0>        -1.1057
     22 O4         -0.3929   -9.1818   -1.7508 O.3       1 <0>        -0.9403
     23 S1         -3.6114   -6.6898   -3.3756 S.o2      1 <0>         2.6464
     24 O5         -3.9005   -5.3014   -3.2862 O.2       1 <0>        -1.0766
     25 O6         -3.6815   -7.3656   -4.6237 O.2       1 <0>        -1.0321
     26 O7         -4.6668   -7.3628   -2.5097 O.3       1 <0>        -1.0575
     27 H2          2.0814    1.5315    4.5202 H         1 <0>         0.1211
     28 H3          3.1536    2.1629    2.3966 H         1 <0>         0.1271
     29 H4          2.1736    1.4389    0.2580 H         1 <0>         0.1302
     30 H5         -0.9650   -0.5438    2.3762 H         1 <0>         0.1311
     31 H6          0.0268    0.1764    4.5108 H         1 <0>         0.1238
     32 H7         -2.4330    0.9622   -0.0281 H         1 <0>         0.1244
     33 H8         -4.4944   -0.3804    0.0445 H         1 <0>         0.1292
     34 H9         -4.3629   -2.8359    0.1556 H         1 <0>         0.1350
     35 H10        -0.1044   -2.6191    0.1132 H         1 <0>         0.1276
     36 H11        -1.2306   -4.6772    0.7401 H         1 <0>         0.0658
     37 H12        -3.0245   -4.7683    0.7540 H         1 <0>         0.0797
     38 H13        -3.0494   -4.6567   -1.7330 H         1 <0>         0.1238
     39 H14        -1.2555   -4.5655   -1.7469 H         1 <0>         0.0469
     40 H15        -1.1343   -6.7772   -0.6102 H         1 <0>         0.0455
     41 H16        -2.9282   -6.8684   -0.5963 H         1 <0>         0.0790
     42 H17        -0.0734  -10.2251   -1.6115 H         1 <0>         0.4293
@<TRIPOS>BOND
     1    1    6 ar
     2    1    2 ar
     3    1   27 1
     4    2    3 ar
     5    2   28 1
     6    3    4 ar
     7    3   29 1
     8    4    5 ar
     9    4    7 1
    10    5    6 ar
    11    5   30 1
    12    6   31 1
    13    7    8 1
    14    8   13 ar
    15    8    9 ar
    16    9   10 ar
    17    9   32 1
    18   10   11 ar
    19   10   33 1
    20   11   12 ar
    21   11   34 1
    22   12   13 ar
    23   12   14 1
    24   13   35 1
    25   14   15 1
    26   14   36 1
    27   14   37 1
    28   15   16 1
    29   15   38 1
    30   15   39 1
    31   16   17 1
    32   16   40 1
    33   16   41 1
    34   17   18 1
    35   17   19 1
    36   17   23 1
    37   19   20 2
    38   19   21 1
    39   19   22 1
    40   22   42 1
    41   23   24 2
    42   23   25 2
    43   23   26 1
