@<TRIPOS>MOLECULE
ZINC40423853
   72    77     0     0     0
SMALL
USER_CHARGES

@<TRIPOS>ATOM
      1 C1          2.2379    1.3842   -0.2342 C.3       1 <0>        -0.0473
      2 N1          2.0950   -0.0778   -0.2340 N.4       1 <0>        -0.3852
      3 C2          2.3510   -0.5928    1.1164 C.3       1 <0>        -0.0072
      4 C3          2.2832   -2.1215    1.1048 C.3       1 <0>        -0.1412
      5 C4          0.8905   -2.5617    0.6445 C.3       1 <0>        -0.0508
      6 C5          0.6045   -1.9576   -0.7334 C.3       1 <0>        -0.1411
      7 C6          0.7345   -0.4350   -0.6536 C.3       1 <0>        -0.0070
      8 C7          0.8410   -4.0652    0.5556 C.ar      1 <0>        -0.1132
      9 C8          1.7052   -4.7351   -0.2911 C.ar      1 <0>        -0.0936
     10 C9          1.6627   -6.1130   -0.3746 C.ar      1 <0>        -0.1063
     11 C10         0.7508   -6.8260    0.3931 C.ar      1 <0>         0.1731
     12 C11        -0.1158   -6.1500    1.2425 C.ar      1 <0>        -0.1391
     13 C12        -0.0645   -4.7724    1.3252 C.ar      1 <0>        -0.0851
     14 N2          0.7049   -8.2209    0.3106 N.pl3     1 <0>        -0.6282
     15 C13         1.8651   -8.9385    0.0937 C.ar      1 <0>         0.6099
     16 N3          3.0240   -8.2890    0.0752 N.ar      1 <0>        -0.5706
     17 C14         4.1613   -8.9305   -0.1280 C.ar      1 <0>         0.2834
     18 C15         4.1194  -10.3120   -0.3238 C.ar      1 <0>        -0.3313
     19 C16         5.3361  -11.1038   -0.5559 C.2       1 <0>         0.4546
     20 O1          6.4377  -10.5834   -0.5870 O.2       1 <0>        -0.4810
     21 C17         5.1647  -12.5548   -0.7488 C.2       1 <0>        -0.3113
     22 C18         3.8948  -13.0872   -0.7027 C.2       1 <0>         0.2582
     23 N4          2.8056  -12.3289   -0.4878 N.pl3     1 <0>        -0.4194
     24 C19         2.8738  -10.9709   -0.2983 C.ar      1 <0>         0.4674
     25 N5          1.7802  -10.2481   -0.0825 N.ar      1 <0>        -0.5809
     26 C20         1.5509  -12.9492   -0.4559 C.ar      1 <0>         0.0883
     27 C21         1.2863  -13.9382    0.4827 C.ar      1 <0>        -0.1031
     28 C22         0.0480  -14.5458    0.5100 C.ar      1 <0>        -0.0925
     29 C23        -0.9333  -14.1744   -0.3952 C.ar      1 <0>        -0.0738
     30 C24        -0.6729  -13.1902   -1.3310 C.ar      1 <0>        -0.0858
     31 C25         0.5659  -12.5741   -1.3581 C.ar      1 <0>        -0.0652
     32 C26        -1.8957  -12.9701   -2.1958 C.3       1 <0>        -0.0822
     33 C27        -2.7753  -14.2193   -1.9772 C.3       1 <0>        -0.1217
     34 C28        -2.3491  -14.6821   -0.5678 C.3       1 <0>        -0.0880
     35 C29         6.3305  -13.4204   -0.9871 C.2       1 <0>         0.5966
     36 O2          6.1706  -14.5976   -1.2487 O.2       1 <0>        -0.5314
     37 N6          7.5754  -12.9090   -0.9156 N.am      1 <0>        -0.5864
     38 O3          8.6911  -13.7114   -1.2572 O.3       1 <0>        -0.1461
     39 C30         9.9476  -13.0417   -1.1356 C.3       1 <0>         0.0006
     40 H1          1.5174    1.8198    0.4581 H         1 <0>         0.1214
     41 H2          3.2479    1.6506    0.0773 H         1 <0>         0.1237
     42 H3          2.0544    1.7671   -1.2381 H         1 <0>         0.1236
     43 H4          3.3412   -0.2760    1.4439 H         1 <0>         0.1315
     44 H5          1.5999   -0.2014    1.8025 H         1 <0>         0.1287
     45 H6          3.0341   -2.5139    0.4192 H         1 <0>         0.0906
     46 H7          2.4718   -2.5018    2.1087 H         1 <0>         0.1143
     47 H8          0.1437   -2.2128    1.3576 H         1 <0>         0.0951
     48 H9          1.3206   -2.3466   -1.4572 H         1 <0>         0.0901
     49 H10        -0.4068   -2.2207   -1.0433 H         1 <0>         0.1139
     50 H11         0.0179   -0.0470    0.0702 H         1 <0>         0.1288
     51 H12         0.5313   -0.0016   -1.6329 H         1 <0>         0.1312
     52 H13         2.4138   -4.1801   -0.8880 H         1 <0>         0.1216
     53 H14         2.3377   -6.6355   -1.0363 H         1 <0>         0.1388
     54 H15        -0.8262   -6.7014    1.8405 H         1 <0>         0.1306
     55 H16        -0.7352   -4.2465    1.9885 H         1 <0>         0.1285
     56 H17        -0.1417   -8.6848    0.4058 H         1 <0>         0.4293
     57 H18         5.1010   -8.3984   -0.1425 H         1 <0>         0.1942
     58 H19         3.7699  -14.1506   -0.8446 H         1 <0>         0.1944
     59 H20         2.0483  -14.2307    1.1900 H         1 <0>         0.1352
     60 H21        -0.1575  -15.3147    1.2400 H         1 <0>         0.1355
     61 H22         0.7678  -11.8022   -2.0860 H         1 <0>         0.1235
     62 H23        -2.4271  -12.0730   -1.8781 H         1 <0>         0.0831
     63 H24        -1.6080  -12.8888   -3.2440 H         1 <0>         0.0783
     64 H25        -3.8330  -13.9565   -1.9953 H         1 <0>         0.0815
     65 H26        -2.5524  -14.9850   -2.7203 H         1 <0>         0.0768
     66 H27        -2.3711  -15.7701   -0.5043 H         1 <0>         0.0826
     67 H28        -3.0023  -14.2451    0.1874 H         1 <0>         0.0863
     68 H29         7.7072  -11.9914   -0.6302 H         1 <0>         0.4186
     69 H30         9.9619  -12.1736   -1.7947 H         1 <0>         0.0568
     70 H31        10.0882  -12.7174   -0.1045 H         1 <0>         0.0563
     71 H32        10.7511  -13.7232   -1.4150 H         1 <0>         0.1145
     72 H33         2.7606   -0.4799   -0.8769 H         1 <0>         0.4244
@<TRIPOS>BOND
     1    1    2 1
     2    1   40 1
     3    1   41 1
     4    1   42 1
     5    2    7 1
     6    2    3 1
     7    2   72 1
     8    3    4 1
     9    3   43 1
    10    3   44 1
    11    4    5 1
    12    4   45 1
    13    4   46 1
    14    5    6 1
    15    5    8 1
    16    5   47 1
    17    6    7 1
    18    6   48 1
    19    6   49 1
    20    7   50 1
    21    7   51 1
    22    8   13 ar
    23    8    9 ar
    24    9   10 ar
    25    9   52 1
    26   10   11 ar
    27   10   53 1
    28   11   12 ar
    29   11   14 1
    30   12   13 ar
    31   12   54 1
    32   13   55 1
    33   14   15 1
    34   14   56 1
    35   15   25 ar
    36   15   16 ar
    37   16   17 ar
    38   17   18 ar
    39   17   57 1
    40   18   24 ar
    41   18   19 1
    42   19   20 2
    43   19   21 1
    44   21   22 2
    45   21   35 1
    46   22   23 1
    47   22   58 1
    48   23   24 1
    49   23   26 1
    50   24   25 ar
    51   26   31 ar
    52   26   27 ar
    53   27   28 ar
    54   27   59 1
    55   28   29 ar
    56   28   60 1
    57   29   34 1
    58   29   30 ar
    59   30   31 ar
    60   30   32 1
    61   31   61 1
    62   32   33 1
    63   32   62 1
    64   32   63 1
    65   33   34 1
    66   33   64 1
    67   33   65 1
    68   34   66 1
    69   34   67 1
    70   35   36 2
    71   35   37 am
    72   37   38 1
    73   37   68 1
    74   38   39 1
    75   39   69 1
    76   39   70 1
    77   39   71 1
