@<TRIPOS>MOLECULE
ZINC03814434
   62    69     0     0     0
SMALL
USER_CHARGES

@<TRIPOS>ATOM
      1 C1         -0.1295    1.5952   -0.2973 C.3       1 <0>        -0.1687
      2 C2         -0.0862    0.0696   -0.1900 C.3       1 <0>         0.3342
      3 C3          0.5692   -0.4501   -1.4637 C.3       1 <0>         0.0405
      4 H1          1.4796    0.1159   -1.6612 H         1 <0>         0.1372
      5 C4          0.9167   -1.9328   -1.2889 C.3       1 <0>        -0.0061
      6 H2          1.3963   -2.3075   -2.1932 H         1 <0>         0.1555
      7 C5          1.8785   -2.0596   -0.1021 C.3       1 <0>        -0.1827
      8 C6          1.2061   -1.5198    1.1541 C.3       1 <0>         0.2999
      9 H3          1.9797   -1.4243    1.9161 H         1 <0>         0.1550
     10 O1          0.6555   -0.2442    0.9666 O.3       1 <0>        -0.3234
     11 N1          0.2189   -2.4746    1.6600 N.pl3     1 <0>        -0.5366
     12 C7          0.4705   -3.5508    2.4739 C.ar      1 <0>         0.1469
     13 C8          1.6649   -4.0152    3.0240 C.ar      1 <0>        -0.1522
     14 C9          1.5948   -5.1456    3.8201 C.ar      1 <0>        -0.0582
     15 C10         0.4006   -5.7997    4.0696 C.ar      1 <0>        -0.1457
     16 C11        -0.7984   -5.3597    3.5358 C.ar      1 <0>        -0.0280
     17 C12        -0.7487   -4.2198    2.7307 C.ar      1 <0>        -0.1131
     18 C13        -1.7893   -3.4830    2.0197 C.ar      1 <0>         0.0276
     19 C14        -1.1442   -2.4197    1.3841 C.ar      1 <0>         0.0376
     20 C15        -1.8806   -1.5095    0.6175 C.ar      1 <0>         0.0894
     21 N2         -1.4718   -0.3951   -0.1095 N.pl3     1 <0>        -0.5183
     22 C16        -2.5611    0.1913   -0.7090 C.ar      1 <0>         0.1618
     23 C17        -2.6521    1.3277   -1.5118 C.ar      1 <0>        -0.1305
     24 C18        -3.9109    1.6745   -1.9733 C.ar      1 <0>        -0.0737
     25 C19        -5.0393    0.9368   -1.6616 C.ar      1 <0>        -0.1358
     26 C20        -4.9745   -0.1955   -0.8662 C.ar      1 <0>        -0.0503
     27 C21        -3.7147   -0.5596   -0.3919 C.ar      1 <0>        -0.1042
     28 C22        -3.2693   -1.6660    0.4845 C.ar      1 <0>        -0.0360
     29 C23        -3.9084   -2.7313    1.1102 C.ar      1 <0>        -0.0288
     30 C24        -3.1873   -3.6421    1.8754 C.ar      1 <0>        -0.1255
     31 C25        -4.1221   -4.6480    2.4030 C.2       1 <0>         0.5632
     32 O2         -3.8062   -5.5851    3.1110 O.2       1 <0>        -0.5106
     33 N3         -5.3744   -4.3851    1.9926 N.am      1 <0>        -0.7162
     34 C26        -5.3495   -3.1771    1.1601 C.3       1 <0>         0.1358
     35 N4         -0.3067   -2.7008   -1.0216 N.4       1 <0>        -0.5252
     36 C27         0.0145   -4.1336   -0.9773 C.3       1 <0>        -0.0497
     37 O3         -0.3340   -0.2979   -2.5607 O.3       1 <0>        -0.3614
     38 C28         0.3101   -0.0933   -3.8198 C.3       1 <0>         0.0162
     39 H4          0.8261    2.0094    0.0240 H         1 <0>         0.0984
     40 H5         -0.3202    1.8814   -1.3317 H         1 <0>         0.1036
     41 H6         -0.9255    1.9818    0.3392 H         1 <0>         0.0921
     42 H7          2.1370   -3.1081    0.0458 H         1 <0>         0.1233
     43 H8          2.7835   -1.4869   -0.3048 H         1 <0>         0.1455
     44 H9          2.6036   -3.5149    2.8368 H         1 <0>         0.1365
     45 H10         2.5026   -5.5304    4.2610 H         1 <0>         0.1359
     46 H11         0.4045   -6.6780    4.6980 H         1 <0>         0.1352
     47 H12        -1.7278   -5.8736    3.7323 H         1 <0>         0.1600
     48 H13        -1.7792    1.9122   -1.7624 H         1 <0>         0.1440
     49 H14        -4.0153    2.5500   -2.5970 H         1 <0>         0.1336
     50 H15        -5.9967    1.2527   -2.0488 H         1 <0>         0.1332
     51 H16        -5.8575   -0.7687   -0.6249 H         1 <0>         0.1415
     52 H17        -6.1628   -4.9065    2.2103 H         1 <0>         0.4348
     53 H18        -5.9671   -2.3994    1.6094 H         1 <0>         0.1115
     54 H19        -5.7060   -3.4063    0.1559 H         1 <0>         0.1103
     55 H20        -0.6958   -2.4158   -0.1353 H         1 <0>         0.4186
     56 H21         0.4349   -4.4415   -1.9347 H         1 <0>         0.1256
     57 H22         0.7403   -4.3189   -0.1854 H         1 <0>         0.1191
     58 H23        -0.8932   -4.7035   -0.7789 H         1 <0>         0.1256
     59 H24         0.9168    0.8112   -3.7748 H         1 <0>         0.0633
     60 H25         0.9482   -0.9479   -4.0446 H         1 <0>         0.0514
     61 H26        -0.4433    0.0130   -4.6003 H         1 <0>         0.1100
     62 H27        -0.9785   -2.5293   -1.7546 H         1 <0>         0.4274
@<TRIPOS>BOND
     1    1    2 1
     2    1   39 1
     3    1   40 1
     4    1   41 1
     5    2   10 1
     6    2   21 1
     7    2    3 1
     8    3    4 1
     9    3    5 1
    10    3   37 1
    11    5    6 1
    12    5    7 1
    13    5   35 1
    14    7    8 1
    15    7   42 1
    16    7   43 1
    17    8    9 1
    18    8   10 1
    19    8   11 1
    20   11   19 1
    21   11   12 1
    22   12   17 ar
    23   12   13 ar
    24   13   14 ar
    25   13   44 1
    26   14   15 ar
    27   14   45 1
    28   15   16 ar
    29   15   46 1
    30   16   17 ar
    31   16   47 1
    32   17   18 1
    33   18   30 ar
    34   18   19 ar
    35   19   20 ar
    36   20   28 ar
    37   20   21 1
    38   21   22 1
    39   22   27 ar
    40   22   23 ar
    41   23   24 ar
    42   23   48 1
    43   24   25 ar
    44   24   49 1
    45   25   26 ar
    46   25   50 1
    47   26   27 ar
    48   26   51 1
    49   27   28 1
    50   28   29 ar
    51   29   34 1
    52   29   30 ar
    53   30   31 1
    54   31   32 2
    55   31   33 am
    56   33   34 1
    57   33   52 1
    58   34   53 1
    59   34   54 1
    60   35   36 1
    61   35   55 1
    62   35   62 1
    63   36   56 1
    64   36   57 1
    65   36   58 1
    66   37   38 1
    67   38   59 1
    68   38   60 1
    69   38   61 1
@<TRIPOS>MOLECULE
ZINC03870968
   14    15     0     0     0
SMALL
USER_CHARGES

@<TRIPOS>ATOM
      1 C1         -0.0168    1.3871    0.0097 C.ar      1 <0>         0.1275
      2 C2         -1.2442    2.0718    0.0183 C.ar      1 <0>         0.0209
      3 C3         -2.4387    1.3383    0.0195 C.ar      1 <0>         0.0311
      4 C4         -2.4004   -0.0268    0.0123 C.ar      1 <0>        -0.0704
      5 C5         -1.1860   -0.7032    0.0042 C.ar      1 <0>        -0.0030
      6 C6          0.0021   -0.0041    0.0020 C.ar      1 <0>        -0.0597
      7 Br1         1.6499   -0.9315   -0.0180 Br        1 <0>         0.0166
      8 Br2        -1.1636   -2.5941   -0.0043 Br        1 <0>         0.0379
      9 Br3        -4.0172   -1.0076    0.0139 Br        1 <0>         0.0317
     10 Br4        -4.1018    2.2382    0.0316 Br        1 <0>         0.0337
     11 N1         -0.9754    3.3929    0.0240 N.2       1 <0>        -0.1877
     12 N2          0.2956    3.5906    0.0197 N.2       1 <0>         0.0383
     13 N3          0.9599    2.3551    0.0055 N.pl3     1 <0>        -0.4750
     14 H1          1.9192    2.2118   -0.0041 H         1 <0>         0.4582
@<TRIPOS>BOND
     1    1    6 ar
     2    1   13 1
     3    1    2 ar
     4    2    3 ar
     5    2   11 1
     6    3    4 ar
     7    3   10 1
     8    4    5 ar
     9    4    9 1
    10    5    6 ar
    11    5    8 1
    12    6    7 1
    13   11   12 2
    14   12   13 1
    15   13   14 1
@<TRIPOS>MOLECULE
ZINC19093815
   26    28     0     0     0
SMALL
USER_CHARGES

@<TRIPOS>ATOM
      1 C1         -0.0164    1.3581    0.0095 C.ar      1 <0>        -0.1075
      2 C2          1.1678    2.0900    0.0021 C.ar      1 <0>        -0.1282
      3 C3          2.3776    1.4626   -0.0128 C.ar      1 <0>        -0.0981
      4 C4          2.4337    0.0613   -0.0209 C.ar      1 <0>        -0.0882
      5 C5          1.2305   -0.6841   -0.0134 C.ar      1 <0>        -0.0038
      6 C6          0.0021   -0.0041    0.0020 C.ar      1 <0>        -0.1130
      7 C7          1.2762   -2.0936   -0.0219 C.ar      1 <0>        -0.1667
      8 C8          2.4683   -2.7384   -0.0373 C.ar      1 <0>        -0.0241
      9 C9          3.6755   -2.0176   -0.0449 C.ar      1 <0>        -0.2044
     10 C10         3.6731   -0.6199   -0.0369 C.ar      1 <0>         0.2087
     11 N1          4.8529    0.0795   -0.0439 N.pl3     1 <0>        -0.5954
     12 C11         6.0522   -0.5144   -0.0590 C.2       1 <0>         0.1415
     13 C12         6.1871   -1.8898   -0.0691 C.2       1 <0>        -0.2890
     14 C13         4.9709   -2.7198   -0.0616 C.2       1 <0>         0.4128
     15 O1          5.0331   -3.9370   -0.0691 O.2       1 <0>        -0.4566
     16 C14         7.5164   -2.5109   -0.0856 C.2       1 <0>         0.5363
     17 O2          8.5195   -1.8096   -0.0906 O.co2     1 <0>        -0.7037
     18 O3          7.6221   -3.7303   -0.0944 O.co2     1 <0>        -0.6631
     19 H1         -0.9631    1.8776    0.0259 H         1 <0>         0.1226
     20 H2          1.1272    3.1692    0.0080 H         1 <0>         0.1232
     21 H3          3.2890    2.0419   -0.0188 H         1 <0>         0.1208
     22 H4         -0.9246   -0.5588    0.0083 H         1 <0>         0.1290
     23 H5          0.3576   -2.6615   -0.0159 H         1 <0>         0.1292
     24 H6          2.4912   -3.8181   -0.0433 H         1 <0>         0.1364
     25 H7          6.9409    0.0993   -0.0638 H         1 <0>         0.1726
     26 H8          4.8165    1.0488   -0.0381 H         1 <0>         0.4088
@<TRIPOS>BOND
     1    1    6 ar
     2    1    2 ar
     3    1   19 1
     4    2    3 ar
     5    2   20 1
     6    3    4 ar
     7    3   21 1
     8    4   10 ar
     9    4    5 ar
    10    5    6 ar
    11    5    7 ar
    12    6   22 1
    13    7    8 ar
    14    7   23 1
    15    8    9 ar
    16    8   24 1
    17    9   14 1
    18    9   10 ar
    19   10   11 1
    20   11   12 1
    21   11   26 1
    22   12   13 2
    23   12   25 1
    24   13   14 1
    25   13   16 1
    26   14   15 2
    27   16   17 2
    28   16   18 1
@<TRIPOS>MOLECULE
ZINC12372437
   23    24     0     0     0
SMALL
USER_CHARGES

@<TRIPOS>ATOM
      1 C1         -0.0184    1.5028    0.0103 C.3       1 <0>        -0.1136
      2 C2          0.0021   -0.0041    0.0020 C.ar      1 <0>        -0.1438
      3 C3          0.0057   -0.6875   -1.1961 C.ar      1 <0>         0.0173
      4 C4          0.0244   -2.0760   -1.2202 C.ar      1 <0>        -0.1594
      5 C5          0.0392   -2.7905   -0.0430 C.ar      1 <0>        -0.0211
      6 C6          0.0357   -2.1119    1.1756 C.ar      1 <0>        -0.1885
      7 C7          0.0230   -0.7066    1.2031 C.ar      1 <0>         0.2096
      8 N1          0.0249   -0.0343    2.4066 N.pl3     1 <0>        -0.6062
      9 H1          0.0113    0.9356    2.3964 H         1 <0>         0.4108
     10 C8          0.0441   -0.6617    3.5883 C.2       1 <0>         0.1533
     11 C9          0.0638   -2.0398    3.6898 C.2       1 <0>        -0.3004
     12 C10         0.0511   -2.8438    2.4557 C.2       1 <0>         0.4159
     13 O1          0.0674   -4.0616    2.4908 O.2       1 <0>        -0.4481
     14 C11         0.0851   -2.6908    5.0039 C.2       1 <0>         0.5369
     15 O2          0.0856   -2.0126    6.0230 O.co2     1 <0>        -0.7041
     16 O3          0.1024   -3.9123    5.0817 O.co2     1 <0>        -0.6650
     17 Cl1        -0.0138    0.1972   -2.6897 Cl        1 <0>        -0.0682
     18 H2          1.0042    1.8801    0.0026 H         1 <0>         0.0757
     19 H3         -0.5455    1.8639   -0.8728 H         1 <0>         0.0791
     20 H4         -0.5286    1.8543    0.9071 H         1 <0>         0.0645
     21 H5          0.0271   -2.5975   -2.1659 H         1 <0>         0.1369
     22 H6          0.0530   -3.8702   -0.0633 H         1 <0>         0.1463
     23 H7          0.0447   -0.0715    4.4928 H         1 <0>         0.1721
@<TRIPOS>BOND
     1    1    2 1
     2    1   18 1
     3    1   19 1
     4    1   20 1
     5    2    7 ar
     6    2    3 ar
     7    3    4 ar
     8    3   17 1
     9    4    5 ar
    10    4   21 1
    11    5    6 ar
    12    5   22 1
    13    6   12 1
    14    6    7 ar
    15    7    8 1
    16    8    9 1
    17    8   10 1
    18   10   11 2
    19   10   23 1
    20   11   12 1
    21   11   14 1
    22   12   13 2
    23   14   15 2
    24   14   16 1
@<TRIPOS>MOLECULE
ZINC03945161
   20    21     0     0     0
SMALL
USER_CHARGES
7,8-dichloro-4-oxo-1H-quinoline-3-carboxylic acid
@<TRIPOS>ATOM
      1 C1          2.4007   -0.0118   -0.0214 C.ar      1 <0>        -0.0076
      2 C2          1.2058   -0.6964   -0.0132 C.ar      1 <0>        -0.1536
      3 C3          0.0021   -0.0041    0.0020 C.ar      1 <0>         0.0276
      4 C4         -0.0166    1.3759    0.0096 C.ar      1 <0>        -0.1016
      5 C5          1.1807    2.0875    0.0020 C.ar      1 <0>         0.2216
      6 C6          2.3968    1.3832   -0.0138 C.ar      1 <0>        -0.1826
      7 C7          3.6568    2.1489   -0.0227 C.2       1 <0>         0.4191
      8 O1          4.7395    1.5900   -0.0361 O.2       1 <0>        -0.4452
      9 C8          3.5514    3.6171   -0.0143 C.2       1 <0>        -0.2826
     10 C9          2.2984    4.1957    0.0013 C.2       1 <0>         0.1705
     11 N1          1.1756    3.4660    0.0090 N.pl3     1 <0>        -0.6054
     12 H1          0.2959    3.9414    0.0203 H         1 <0>         0.4205
     13 C10         4.7603    4.4529   -0.0228 C.2       1 <0>         0.5071
     14 O2          5.8589    3.9327   -0.0369 O.co2     1 <0>        -0.6080
     15 Cl1        -1.5313    2.2242    0.0214 Cl        1 <0>        -0.0465
     16 Cl2        -1.4946   -0.8835    0.0110 Cl        1 <0>        -0.0467
     17 H2          3.3358   -0.5520   -0.0339 H         1 <0>         0.1542
     18 H3          1.2049   -1.7763   -0.0190 H         1 <0>         0.1475
     19 H4          2.2209    5.2729    0.0071 H         1 <0>         0.1803
     20 O3          4.6508    5.7965   -0.0149 O.co2     1 <0>        -0.7687
@<TRIPOS>BOND
     1    1    6 ar
     2    1    2 ar
     3    1   17 1
     4    2    3 ar
     5    2   18 1
     6    3    4 ar
     7    3   16 1
     8    4    5 ar
     9    4   15 1
    10    5   11 1
    11    5    6 ar
    12    6    7 1
    13    7    8 2
    14    7    9 1
    15    9   10 2
    16    9   13 1
    17   10   11 1
    18   10   19 1
    19   11   12 1
    20   13   14 2
    21   13   20 1
@<TRIPOS>MOLECULE
ZINC13585914
   16    17     0     0     0
SMALL
USER_CHARGES
4,5,6,7-tetrabromo-1,3-dihydrobenzimidazol-2-one
@<TRIPOS>ATOM
      1 C1         -0.7150    3.0918    0.0255 C.ar      1 <0>         0.1438
      2 C2         -1.1521    1.7659    0.0165 C.ar      1 <0>         0.1437
      3 C3         -2.5106    1.4858    0.0206 C.ar      1 <0>        -0.0485
      4 C4         -3.4270    2.5213    0.0300 C.ar      1 <0>        -0.0409
      5 C5         -2.9933    3.8371    0.0349 C.ar      1 <0>        -0.0409
      6 C6         -1.6406    4.1248    0.0399 C.ar      1 <0>        -0.0485
      7 Br1        -1.0542    5.9225    0.0440 Br        1 <0>         0.0146
      8 Br2        -4.2556    5.2450    0.0479 Br        1 <0>         0.0281
      9 Br3        -5.2792    2.1400    0.0357 Br        1 <0>         0.0281
     10 Br4        -3.1081   -0.3083    0.0139 Br        1 <0>         0.0146
     11 N1         -0.0111    0.9658    0.0074 N.am      1 <0>        -0.6281
     12 H1          0.0021   -0.0041    0.0020 H         1 <0>         0.4460
     13 C7          1.0698    1.7685    0.0013 C.2       1 <0>         0.6935
     14 O1          2.2255    1.3876   -0.0124 O.2       1 <0>        -0.5235
     15 N2          0.6781    3.0566    0.0120 N.am      1 <0>        -0.6281
     16 H2          1.2655    3.8285    0.0101 H         1 <0>         0.4460
@<TRIPOS>BOND
     1    1    6 ar
     2    1   15 1
     3    1    2 ar
     4    2    3 ar
     5    2   11 1
     6    3    4 ar
     7    3   10 1
     8    4    5 ar
     9    4    9 1
    10    5    6 ar
    11    5    8 1
    12    6    7 1
    13   11   12 1
    14   11   13 am
    15   13   14 2
    16   13   15 am
    17   15   16 1
@<TRIPOS>MOLECULE
ZINC00009295
   33    37     0     0     0
SMALL
USER_CHARGES

@<TRIPOS>ATOM
      1 C1         -0.0165    1.3617    0.0018 C.ar      1 <0>        -0.1166
      2 C2          1.1670    2.0860    0.0184 C.ar      1 <0>        -0.1102
      3 C3          2.3845    1.4365    0.0139 C.ar      1 <0>        -0.0886
      4 C4          2.4235    0.0506   -0.0069 C.ar      1 <0>         0.0477
      5 C5          1.2253   -0.6845   -0.0233 C.ar      1 <0>         0.0671
      6 C6          0.0020   -0.0039   -0.0189 C.ar      1 <0>        -0.0707
      7 N1          1.5589   -1.9954   -0.0410 N.2       1 <0>        -0.4717
      8 C7          2.8671   -2.1252   -0.0368 C.2       1 <0>         0.3597
      9 N2          3.4512   -0.8811   -0.0157 N.am      1 <0>        -0.4750
     10 C8          4.7897   -0.7218   -0.0067 C.2       1 <0>         0.5811
     11 O1          5.2621    0.3982    0.0124 O.2       1 <0>        -0.4908
     12 C9          5.6842   -1.8884   -0.0191 C.ar      1 <0>        -0.1855
     13 C10         7.0648   -1.7546   -0.0097 C.ar      1 <0>        -0.0005
     14 C11         7.8775   -2.8821   -0.0216 C.ar      1 <0>        -0.1716
     15 C12         7.3478   -4.1414   -0.0427 C.ar      1 <0>        -0.0150
     16 C13         5.9572   -4.3167   -0.0532 C.ar      1 <0>        -0.0588
     17 C14         5.1192   -3.1838   -0.0409 C.ar      1 <0>         0.0057
     18 C15         3.7136   -3.3357   -0.0511 C.ar      1 <0>        -0.0918
     19 C16         3.1553   -4.6045   -0.0728 C.ar      1 <0>        -0.0099
     20 C17         3.9517   -5.7383   -0.0860 C.ar      1 <0>        -0.1235
     21 C18         5.3407   -5.6422   -0.0767 C.ar      1 <0>        -0.0496
     22 C19         6.1748   -6.8553   -0.0900 C.2       1 <0>         0.5213
     23 O2          5.6524   -7.9579    0.0012 O.co2     1 <0>        -0.6640
     24 O3          7.3903   -6.7609   -0.1924 O.co2     1 <0>        -0.6690
     25 H1         -0.9622    1.8832    0.0098 H         1 <0>         0.1325
     26 H2          1.1351    3.1654    0.0346 H         1 <0>         0.1328
     27 H3          3.3027    2.0049    0.0262 H         1 <0>         0.1327
     28 H4         -0.9253   -0.5575   -0.0313 H         1 <0>         0.1345
     29 H5          7.5099   -0.7707    0.0065 H         1 <0>         0.1371
     30 H6          8.9505   -2.7602   -0.0144 H         1 <0>         0.1360
     31 H7          8.0006   -5.0018   -0.0516 H         1 <0>         0.1874
     32 H8          2.0806   -4.7111   -0.0791 H         1 <0>         0.1408
     33 H9          3.4871   -6.7131   -0.1025 H         1 <0>         0.1466
@<TRIPOS>BOND
     1    1    6 ar
     2    1    2 ar
     3    1   25 1
     4    2    3 ar
     5    2   26 1
     6    3    4 ar
     7    3   27 1
     8    4    9 1
     9    4    5 ar
    10    5    6 ar
    11    5    7 1
    12    6   28 1
    13    7    8 2
    14    8   18 1
    15    8    9 1
    16    9   10 am
    17   10   11 2
    18   10   12 1
    19   12   17 ar
    20   12   13 ar
    21   13   14 ar
    22   13   29 1
    23   14   15 ar
    24   14   30 1
    25   15   16 ar
    26   15   31 1
    27   16   21 ar
    28   16   17 ar
    29   17   18 ar
    30   18   19 ar
    31   19   20 ar
    32   19   32 1
    33   20   21 ar
    34   20   33 1
    35   21   22 1
    36   22   23 2
    37   22   24 1
@<TRIPOS>MOLECULE
ZINC03871576
   30    32     0     0     0
SMALL
USER_CHARGES

@<TRIPOS>ATOM
      1 C1         -0.0169    1.3935    0.0097 C.ar      1 <0>        -0.0604
      2 C2          1.1676    2.0963    0.0022 C.ar      1 <0>        -0.1497
      3 C3          2.3803    1.4179   -0.0135 C.ar      1 <0>         0.1360
      4 C4          2.4038    0.0284   -0.0212 C.ar      1 <0>        -0.1474
      5 C5          1.2241   -0.6823   -0.0133 C.ar      1 <0>        -0.0612
      6 C6          0.0021   -0.0041    0.0020 C.ar      1 <0>        -0.0853
      7 C7         -1.2639   -0.7610    0.0105 C.2       1 <0>         0.2092
      8 C8         -1.2134   -2.1203    0.0083 C.2       1 <0>        -0.3116
      9 C9         -2.4177   -2.8631    0.0169 C.2       1 <0>         0.4226
     10 O1         -2.4099   -4.0836    0.0156 O.2       1 <0>        -0.4538
     11 C10        -3.6809   -2.1061    0.0279 C.ar      1 <0>        -0.2659
     12 C11        -4.9199   -2.7591    0.0374 C.ar      1 <0>         0.2192
     13 C12        -6.0832   -2.0121    0.0480 C.ar      1 <0>        -0.2049
     14 C13        -6.0212   -0.6227    0.0493 C.ar      1 <0>         0.1922
     15 C14        -4.7984    0.0300    0.0400 C.ar      1 <0>        -0.1830
     16 C15        -3.6212   -0.7020    0.0293 C.ar      1 <0>         0.1830
     17 O2         -2.4220   -0.0821    0.0257 O.3       1 <0>        -0.2182
     18 O3         -7.1695    0.1013    0.0593 O.3       1 <0>        -0.4872
     19 O4         -4.9782   -4.1150    0.0356 O.3       1 <0>        -0.4722
     20 O5          3.5455    2.1145   -0.0218 O.3       1 <0>        -0.4965
     21 H1         -0.9589    1.9215    0.0260 H         1 <0>         0.1404
     22 H2          1.1538    3.1762    0.0081 H         1 <0>         0.1393
     23 H3          3.3485   -0.4949   -0.0338 H         1 <0>         0.1414
     24 H4          1.2432   -1.7622   -0.0196 H         1 <0>         0.1415
     25 H5         -0.2608   -2.6290   -0.0002 H         1 <0>         0.1637
     26 H6         -7.0423   -2.5086    0.0550 H         1 <0>         0.1502
     27 H7         -4.7627    1.1094    0.0411 H         1 <0>         0.1534
     28 H8         -7.4952    0.3100    0.9456 H         1 <0>         0.4037
     29 H9         -4.9875   -4.5094    0.9185 H         1 <0>         0.4031
     30 H10         3.8920    2.3119    0.8591 H         1 <0>         0.3984
@<TRIPOS>BOND
     1    1    6 ar
     2    1    2 ar
     3    1   21 1
     4    2    3 ar
     5    2   22 1
     6    3    4 ar
     7    3   20 1
     8    4    5 ar
     9    4   23 1
    10    5    6 ar
    11    5   24 1
    12    6    7 1
    13    7   17 1
    14    7    8 2
    15    8    9 1
    16    8   25 1
    17    9   10 2
    18    9   11 1
    19   11   16 ar
    20   11   12 ar
    21   12   13 ar
    22   12   19 1
    23   13   14 ar
    24   13   26 1
    25   14   15 ar
    26   14   18 1
    27   15   16 ar
    28   15   27 1
    29   16   17 1
    30   18   28 1
    31   19   29 1
    32   20   30 1
@<TRIPOS>MOLECULE
ZINC03871576
   29    31     0     0     0
SMALL
USER_CHARGES

@<TRIPOS>ATOM
      1 C1         -0.0169    1.3945    0.0097 C.ar      1 <0>        -0.0666
      2 C2          1.1672    2.0969    0.0022 C.ar      1 <0>        -0.1480
      3 C3          2.3804    1.4183   -0.0135 C.ar      1 <0>         0.1175
      4 C4          2.4042    0.0284   -0.0212 C.ar      1 <0>        -0.1471
      5 C5          1.2251   -0.6825   -0.0138 C.ar      1 <0>        -0.0696
      6 C6          0.0021   -0.0041    0.0020 C.ar      1 <0>        -0.0607
      7 C7         -1.2623   -0.7603    0.0105 C.2       1 <0>         0.1733
      8 C8         -1.2238   -2.1392    0.0085 C.2       1 <0>        -0.2675
      9 C9         -2.4161   -2.8666    0.0170 C.2       1 <0>         0.3649
     10 C10        -3.6370   -2.1554    0.0275 C.2       1 <0>        -0.3407
     11 C11        -4.8707   -2.8387    0.0369 C.2       1 <0>         0.2653
     12 C12        -6.0384   -2.1317    0.0475 C.2       1 <0>        -0.3780
     13 C13        -6.0158   -0.7277    0.0485 C.2       1 <0>         0.3615
     14 O1         -7.1627   -0.0461    0.0589 O.2       1 <0>        -0.6669
     15 C14        -4.7977   -0.0391    0.0393 C.2       1 <0>        -0.3147
     16 C15        -3.6098   -0.7430    0.0291 C.2       1 <0>         0.2111
     17 O2         -2.4272   -0.0920    0.0257 O.3       1 <0>        -0.2196
     18 O3         -4.8969   -4.1953    0.0351 O.3       1 <0>        -0.4477
     19 O4         -2.4024   -4.2178    0.0147 O.3       1 <0>        -0.5784
     20 O5          3.5452    2.1149   -0.0218 O.3       1 <0>        -0.4988
     21 H1         -0.9589    1.9225    0.0260 H         1 <0>         0.1416
     22 H2          1.1536    3.1768    0.0081 H         1 <0>         0.1349
     23 H3          3.3490   -0.4946   -0.0334 H         1 <0>         0.1360
     24 H4          1.2446   -1.7623   -0.0201 H         1 <0>         0.1407
     25 H5         -0.2747   -2.6546   -0.0001 H         1 <0>         0.1464
     26 H6         -6.9835   -2.6543    0.0547 H         1 <0>         0.1160
     27 H7         -4.7867    1.0408    0.0398 H         1 <0>         0.1203
     28 H8         -5.7877   -4.5715    0.0420 H         1 <0>         0.3828
     29 H9          3.8917    2.3124    0.8591 H         1 <0>         0.3921
@<TRIPOS>BOND
     1    1    6 ar
     2    1    2 ar
     3    1   21 1
     4    2    3 ar
     5    2   22 1
     6    3    4 ar
     7    3   20 1
     8    4    5 ar
     9    4   23 1
    10    5    6 ar
    11    5   24 1
    12    6    7 1
    13    7   17 1
    14    7    8 2
    15    8    9 1
    16    8   25 1
    17    9   10 2
    18    9   19 1
    19   10   16 1
    20   10   11 1
    21   11   12 2
    22   11   18 1
    23   12   13 1
    24   12   26 1
    25   13   14 2
    26   13   15 1
    27   15   16 2
    28   15   27 1
    29   16   17 1
    30   18   28 1
    31   20   29 1
@<TRIPOS>MOLECULE
ZINC03824868
   30    32     0     0     0
SMALL
USER_CHARGES

@<TRIPOS>ATOM
      1 C1         -0.0184    1.5028    0.0103 C.3       1 <0>        -0.1226
      2 C2          0.0021   -0.0041    0.0020 C.ar      1 <0>        -0.0467
      3 C3          0.0056   -0.6846   -1.2057 C.ar      1 <0>        -0.0777
      4 C4          0.0247   -2.0740   -1.2193 C.ar      1 <0>        -0.1023
      5 C5          0.0393   -2.7853   -0.0037 C.ar      1 <0>        -0.1570
      6 C6          0.0359   -2.0869    1.2054 C.ar      1 <0>         0.1678
      7 C7          0.0228   -0.6942    1.1963 C.ar      1 <0>        -0.1289
      8 O1          0.0505   -2.7608    2.3820 O.3       1 <0>        -0.4752
      9 C8          0.0585   -4.2611   -0.0191 C.2       1 <0>         0.4332
     10 O2         -0.1799   -4.8894    0.9949 O.2       1 <0>        -0.4012
     11 C9          0.3688   -4.9653   -1.2755 C.ar      1 <0>        -0.1610
     12 C10         0.3560   -4.2577   -2.4949 C.ar      1 <0>        -0.0881
     13 C11         0.6490   -4.9184   -3.6792 C.ar      1 <0>        -0.1045
     14 C12         0.9543   -6.2780   -3.6592 C.ar      1 <0>         0.1499
     15 C13         0.9669   -6.9770   -2.4633 C.ar      1 <0>        -0.1574
     16 C14         0.6764   -6.3296   -1.2684 C.ar      1 <0>         0.1816
     17 O3          0.6910   -7.0180   -0.1003 O.3       1 <0>        -0.4772
     18 O4          1.2407   -6.9216   -4.8193 O.3       1 <0>        -0.4894
     19 C15         0.0302   -2.8145   -2.4994 C.2       1 <0>         0.4391
     20 O5         -0.2290   -2.2451   -3.5412 O.2       1 <0>        -0.4183
     21 H1          1.0042    1.8801    0.0026 H         1 <0>         0.0818
     22 H2         -0.5455    1.8639   -0.8728 H         1 <0>         0.0767
     23 H3         -0.5286    1.8543    0.9071 H         1 <0>         0.0758
     24 H4         -0.0068   -0.1353   -2.1355 H         1 <0>         0.1465
     25 H5          0.0245   -0.1513    2.1300 H         1 <0>         0.1448
     26 H6          0.9381   -2.9447    2.7190 H         1 <0>         0.3987
     27 H7          0.6401   -4.3799   -4.6153 H         1 <0>         0.1529
     28 H8          1.2042   -8.0306   -2.4595 H         1 <0>         0.1513
     29 H9         -0.1605   -7.4111    0.1353 H         1 <0>         0.4051
     30 H10         2.1793   -6.9145   -5.0516 H         1 <0>         0.4024
@<TRIPOS>BOND
     1    1    2 1
     2    1   21 1
     3    1   22 1
     4    1   23 1
     5    2    7 ar
     6    2    3 ar
     7    3    4 ar
     8    3   24 1
     9    4   19 1
    10    4    5 ar
    11    5    6 ar
    12    5    9 1
    13    6    7 ar
    14    6    8 1
    15    7   25 1
    16    8   26 1
    17    9   10 2
    18    9   11 1
    19   11   16 ar
    20   11   12 ar
    21   12   13 ar
    22   12   19 1
    23   13   14 ar
    24   13   27 1
    25   14   15 ar
    26   14   18 1
    27   15   16 ar
    28   15   28 1
    29   16   17 1
    30   17   29 1
    31   18   30 1
    32   19   20 2
@<TRIPOS>MOLECULE
ZINC02528524
   15    16     0     0     0
SMALL
USER_CHARGES

@<TRIPOS>ATOM
      1 C1         -0.0156    1.2968    0.0092 C.2       1 <0>         0.2958
      2 N1          1.2556    1.7816   -0.0004 N.pl3     1 <0>        -0.5876
      3 H1          1.5144    2.7164    0.0027 H         1 <0>         0.4347
      4 C2          2.1093    0.6957   -0.0143 C.ar      1 <0>         0.0848
      5 C3          1.2871   -0.4433   -0.0126 C.ar      1 <0>         0.0920
      6 N2          0.0021   -0.0041    0.0020 N.2       1 <0>        -0.4744
      7 C4          1.8705   -1.7139   -0.0250 C.ar      1 <0>         0.0014
      8 C5          3.2427   -1.8365   -0.0388 C.ar      1 <0>        -0.0598
      9 C6          4.0513   -0.7072   -0.0400 C.ar      1 <0>        -0.0359
     10 C7          3.4906    0.5539   -0.0283 C.ar      1 <0>        -0.0439
     11 Br1         4.6006    2.0848   -0.0300 Br        1 <0>        -0.0002
     12 Br2         5.9325   -0.8987   -0.0583 Br        1 <0>         0.0219
     13 Br3         4.0312   -3.5552   -0.0555 Br        1 <0>         0.0198
     14 Br4         0.7800   -3.2587   -0.0223 Br        1 <0>         0.0173
     15 H2         -0.9090    1.9033    0.0251 H         1 <0>         0.2339
@<TRIPOS>BOND
     1    1    6 2
     2    1    2 1
     3    1   15 1
     4    2    3 1
     5    2    4 1
     6    4   10 ar
     7    4    5 ar
     8    5    6 1
     9    5    7 ar
    10    7    8 ar
    11    7   14 1
    12    8    9 ar
    13    8   13 1
    14    9   10 ar
    15    9   12 1
    16   10   11 1
@<TRIPOS>MOLECULE
ZINC08830553
   23    24     0     0     0
SMALL
USER_CHARGES

@<TRIPOS>ATOM
      1 C1         -0.0178    1.4608    0.0101 C.3       1 <0>         0.1046
      2 N1          0.0021   -0.0041    0.0020 N.pl3     1 <0>        -0.5941
      3 C2          0.0241   -0.7433    1.2666 C.3       1 <0>         0.0832
      4 C3          0.0000   -0.6873   -1.1963 C.2       1 <0>         0.5723
      5 N2          0.0119   -2.0467   -1.3242 N.pl3     1 <0>        -0.6100
      6 H1          0.0232   -2.6926   -0.6006 H         1 <0>         0.4284
      7 C4          0.0041   -2.3318   -2.6805 C.ar      1 <0>         0.0801
      8 C5         -0.0126   -1.0922   -3.3399 C.ar      1 <0>         0.1386
      9 N3         -0.0193   -0.1288   -2.3806 N.2       1 <0>        -0.5242
     10 C6         -0.0242   -1.0555   -4.7369 C.ar      1 <0>        -0.0212
     11 C7         -0.0190   -2.2337   -5.4529 C.ar      1 <0>        -0.0459
     12 C8         -0.0029   -3.4564   -4.7961 C.ar      1 <0>        -0.0542
     13 C9          0.0091   -3.5081   -3.4157 C.ar      1 <0>        -0.0340
     14 Br1         0.0322   -5.1789   -2.5303 Br        1 <0>        -0.0066
     15 Br2         0.0027   -5.0609   -5.7968 Br        1 <0>         0.0152
     16 Br3        -0.0346   -2.1836   -7.3432 Br        1 <0>         0.0151
     17 Br4        -0.0474    0.6046   -5.6421 Br        1 <0>         0.0102
     18 H2          1.0048    1.8381    0.0023 H         1 <0>         0.0599
     19 H3         -0.5450    1.8219   -0.8730 H         1 <0>         0.0859
     20 H4         -0.5280    1.8123    0.9069 H         1 <0>         0.0771
     21 H5          0.0224   -0.0395    2.0990 H         1 <0>         0.0963
     22 H6         -0.8567   -1.3823    1.3294 H         1 <0>         0.0616
     23 H7          0.9230   -1.3581    1.3125 H         1 <0>         0.0616
@<TRIPOS>BOND
     1    1    2 1
     2    1   18 1
     3    1   19 1
     4    1   20 1
     5    2    3 1
     6    2    4 1
     7    3   21 1
     8    3   22 1
     9    3   23 1
    10    4    9 2
    11    4    5 1
    12    5    6 1
    13    5    7 1
    14    7   13 ar
    15    7    8 ar
    16    8    9 1
    17    8   10 ar
    18   10   11 ar
    19   10   17 1
    20   11   12 ar
    21   11   16 1
    22   12   13 ar
    23   12   15 1
    24   13   14 1
@<TRIPOS>MOLECULE
ZINC27646328
   29    31     0     0     0
SMALL
USER_CHARGES

@<TRIPOS>ATOM
      1 C1         -0.0167    1.3827    0.0096 C.ar      1 <0>        -0.1625
      2 C2          1.1644    2.0935    0.0022 C.ar      1 <0>        -0.0388
      3 C3          2.3857    1.4152   -0.0131 C.ar      1 <0>        -0.0794
      4 C4          2.4009    0.0127   -0.0207 C.ar      1 <0>         0.1715
      5 C5          1.2066   -0.6872   -0.0131 C.ar      1 <0>        -0.1838
      6 C6          0.0021   -0.0041    0.0020 C.ar      1 <0>         0.1383
      7 F1         -1.1606   -0.6920    0.0098 F         1 <0>        -0.1281
      8 O1          3.5826   -0.6560   -0.0360 O.3       1 <0>        -0.4846
      9 C7          3.6520    2.1698   -0.0216 C.2       1 <0>         0.0882
     10 C8          3.9644    3.2071   -0.8727 C.2       1 <0>        -0.1983
     11 C9          5.2519    3.6341   -0.5407 C.2       1 <0>        -0.1129
     12 C10         5.6803    2.8374    0.5067 C.2       1 <0>        -0.0435
     13 O2          4.6941    1.9649    0.8044 O.3       1 <0>        -0.1430
     14 C11         6.9299    2.9248    1.1543 C.2       1 <0>         0.1171
     15 C12         7.2286    2.0736    2.1798 C.2       1 <0>        -0.2286
     16 C13         8.4122    1.9867    2.9715 C.2       1 <0>         0.5618
     17 O3          9.3505    2.7398    2.7812 O.2       1 <0>        -0.4759
     18 N1          8.4605    1.0653    3.9178 N.am      1 <0>        -0.6867
     19 C14         7.4191    0.2301    4.1290 C.2       1 <0>         0.5477
     20 O4          7.3101   -0.6602    4.9509 O.2       1 <0>        -0.4138
     21 S1          6.2400    0.7704    2.9006 S.3       1 <0>        -0.0353
     22 H1         -0.9604    1.9078    0.0260 H         1 <0>         0.1491
     23 H2          1.1456    3.1733    0.0078 H         1 <0>         0.1476
     24 H3          1.2142   -1.7671   -0.0189 H         1 <0>         0.1509
     25 H4          3.9337   -0.8544    0.8429 H         1 <0>         0.4019
     26 H5          3.3335    3.6127   -1.6499 H         1 <0>         0.1635
     27 H6          5.8067    4.4324   -1.0111 H         1 <0>         0.1684
     28 H7          7.6507    3.6648    0.8393 H         1 <0>         0.1869
     29 H8          9.2552    0.9871    4.4686 H         1 <0>         0.4224
@<TRIPOS>BOND
     1    1    6 ar
     2    1    2 ar
     3    1   22 1
     4    2    3 ar
     5    2   23 1
     6    3    4 ar
     7    3    9 1
     8    4    5 ar
     9    4    8 1
    10    5    6 ar
    11    5   24 1
    12    6    7 1
    13    8   25 1
    14    9   13 1
    15    9   10 2
    16   10   11 1
    17   10   26 1
    18   11   12 2
    19   11   27 1
    20   12   13 1
    21   12   14 1
    22   14   15 2
    23   14   28 1
    24   15   21 1
    25   15   16 1
    26   16   17 2
    27   16   18 am
    28   18   19 am
    29   18   29 1
    30   19   20 2
    31   19   21 1
@<TRIPOS>MOLECULE
ZINC16052569
   50    53     0     0     0
SMALL
USER_CHARGES

@<TRIPOS>ATOM
      1 C1         -0.0184    1.5028    0.0103 C.3       1 <0>        -0.0807
      2 C2          0.0021   -0.0041    0.0020 C.2       1 <0>         0.1088
      3 C3          0.0083   -0.8581   -1.1820 C.ar      1 <0>        -0.1763
      4 C4         -0.0019   -0.6082   -2.5573 C.ar      1 <0>        -0.0083
      5 C5          0.0079   -1.6738   -3.4431 C.ar      1 <0>        -0.1061
      6 C6          0.0279   -2.9891   -2.9631 C.ar      1 <0>        -0.0534
      7 C7          0.0380   -3.2410   -1.6234 C.ar      1 <0>        -0.1371
      8 C8          0.0285   -2.1860   -0.7124 C.ar      1 <0>         0.1440
      9 N1          0.0337   -2.1193    0.6566 N.pl3     1 <0>        -0.5045
     10 H1          0.0468   -2.8812    1.2569 H         1 <0>         0.4444
     11 N2          0.0230   -0.7772    1.0497 N.2       1 <0>        -0.2435
     12 C9         -0.0034   -1.4202   -4.9053 C.ar      1 <0>        -0.0271
     13 C10         0.0004   -2.4846   -5.8096 C.ar      1 <0>        -0.1014
     14 C11        -0.0110   -2.1940   -7.1677 C.ar      1 <0>         0.0698
     15 C12        -0.0257   -0.8671   -7.5756 C.ar      1 <0>         0.0161
     16 N3         -0.0289    0.1132   -6.6940 N.ar      1 <0>        -0.4368
     17 C13        -0.0238   -0.1167   -5.3969 C.ar      1 <0>         0.0812
     18 O1         -0.0074   -3.1961   -8.0859 O.3       1 <0>        -0.3231
     19 C14        -0.0198   -2.8144   -9.4629 C.3       1 <0>         0.0274
     20 C15        -0.0136   -4.0682  -10.3397 C.3       1 <0>         0.0437
     21 H2          0.8359   -4.6958  -10.0703 H         1 <0>         0.1553
     22 C16         0.0989   -3.6615  -11.8104 C.3       1 <0>        -0.0972
     23 C17         0.2286   -4.8962  -12.6646 C.ar      1 <0>        -0.1303
     24 C18         1.4792   -5.4136  -12.9461 C.ar      1 <0>        -0.1030
     25 C19         1.5982   -6.5462  -13.7296 C.ar      1 <0>        -0.1053
     26 C20         0.4666   -7.1617  -14.2312 C.ar      1 <0>        -0.1014
     27 C21        -0.7840   -6.6448  -13.9490 C.ar      1 <0>        -0.1075
     28 C22        -0.9032   -5.5147  -13.1619 C.ar      1 <0>        -0.1401
     29 N4         -1.2605   -4.8167  -10.1327 N.4       1 <0>        -0.6365
     30 H3          1.0042    1.8801    0.0026 H         1 <0>         0.0878
     31 H4         -0.5455    1.8639   -0.8728 H         1 <0>         0.0842
     32 H5         -0.5286    1.8543    0.9071 H         1 <0>         0.0843
     33 H6         -0.0177    0.4067   -2.9264 H         1 <0>         0.1366
     34 H7          0.0350   -3.8127   -3.6617 H         1 <0>         0.1316
     35 H8          0.0531   -4.2604   -1.2670 H         1 <0>         0.1332
     36 H9          0.0123   -3.5071   -5.4619 H         1 <0>         0.1476
     37 H10        -0.0343   -0.6345   -8.6302 H         1 <0>         0.1565
     38 H11        -0.0314    0.7142   -4.7071 H         1 <0>         0.1670
     39 H12        -0.9167   -2.2306   -9.6700 H         1 <0>         0.0927
     40 H13         0.8631   -2.2138   -9.6814 H         1 <0>         0.1143
     41 H14        -0.7936   -3.1088  -12.1038 H         1 <0>         0.1038
     42 H15         0.9777   -3.0313  -11.9469 H         1 <0>         0.1255
     43 H16         2.3632   -4.9328  -12.5542 H         1 <0>         0.1308
     44 H17         2.5752   -6.9501  -13.9502 H         1 <0>         0.1335
     45 H18         0.5596   -8.0462  -14.8440 H         1 <0>         0.1330
     46 H19        -1.6681   -7.1255  -14.3411 H         1 <0>         0.1326
     47 H20        -1.8805   -5.1130  -12.9382 H         1 <0>         0.1228
     48 H21        -1.2564   -5.6436  -10.7110 H         1 <0>         0.4365
     49 H22        -1.3347   -5.0850   -9.1628 H         1 <0>         0.4422
     50 H23        -2.0469   -4.2358  -10.3821 H         1 <0>         0.4324
@<TRIPOS>BOND
     1    1    2 1
     2    1   30 1
     3    1   31 1
     4    1   32 1
     5    2   11 2
     6    2    3 1
     7    3    8 ar
     8    3    4 ar
     9    4    5 ar
    10    4   33 1
    11    5    6 ar
    12    5   12 1
    13    6    7 ar
    14    6   34 1
    15    7    8 ar
    16    7   35 1
    17    8    9 1
    18    9   10 1
    19    9   11 1
    20   12   17 ar
    21   12   13 ar
    22   13   14 ar
    23   13   36 1
    24   14   15 ar
    25   14   18 1
    26   15   16 ar
    27   15   37 1
    28   16   17 ar
    29   17   38 1
    30   18   19 1
    31   19   20 1
    32   19   39 1
    33   19   40 1
    34   20   21 1
    35   20   22 1
    36   20   29 1
    37   22   23 1
    38   22   41 1
    39   22   42 1
    40   23   28 ar
    41   23   24 ar
    42   24   25 ar
    43   24   43 1
    44   25   26 ar
    45   25   44 1
    46   26   27 ar
    47   26   45 1
    48   27   28 ar
    49   27   46 1
    50   28   47 1
    51   29   48 1
    52   29   49 1
    53   29   50 1
@<TRIPOS>MOLECULE
ZINC03869685
   32    34     0     0     0
SMALL
USER_CHARGES

@<TRIPOS>ATOM
      1 C1          0.9741   -0.2755   -0.9644 C.ar      1 <0>        -0.0748
      2 C2          2.1569    0.4329   -0.9701 C.ar      1 <0>        -0.1346
      3 C3          2.3856    1.4156   -0.0177 C.ar      1 <0>         0.1032
      4 C4          1.4203    1.6918    0.9495 C.ar      1 <0>         0.0788
      5 C5          0.2328    0.9863    0.9617 C.ar      1 <0>        -0.0762
      6 C6          0.0021   -0.0041    0.0020 C.ar      1 <0>        -0.0447
      7 C7         -1.2637   -0.7605    0.0100 C.2       1 <0>         0.1350
      8 C8         -2.4363   -0.0759    0.1235 C.2       1 <0>        -0.0429
      9 C9         -3.6628   -0.7894    0.1327 C.2       1 <0>         0.4011
     10 O1         -4.7327   -0.2102    0.2323 O.2       1 <0>        -0.4484
     11 C10        -3.5946   -2.2549    0.0170 C.ar      1 <0>        -0.2690
     12 C11        -4.7561   -3.0387    0.0170 C.ar      1 <0>         0.2244
     13 C12        -4.6504   -4.4123   -0.0941 C.ar      1 <0>        -0.2081
     14 C13        -3.3994   -5.0103   -0.2044 C.ar      1 <0>         0.2000
     15 C14        -2.2463   -4.2416   -0.2047 C.ar      1 <0>        -0.1854
     16 C15        -2.3316   -2.8618   -0.0952 C.ar      1 <0>         0.1876
     17 O2         -1.2182   -2.0992   -0.1003 O.3       1 <0>        -0.1970
     18 O3         -3.3070   -6.3605   -0.3125 O.3       1 <0>        -0.4866
     19 O4         -5.9758   -2.4535    0.1257 O.3       1 <0>        -0.4726
     20 O5         -2.4312    1.2810    0.2275 O.3       1 <0>        -0.4502
     21 O6          1.6480    2.6557    1.8815 O.3       1 <0>        -0.4836
     22 O7          3.5534    2.1101   -0.0273 O.3       1 <0>        -0.4861
     23 H1          0.7971   -1.0371   -1.7094 H         1 <0>         0.1379
     24 H2          2.9075    0.2221   -1.7176 H         1 <0>         0.1421
     25 H3         -0.5155    1.1988    1.7108 H         1 <0>         0.1429
     26 H4         -5.5413   -5.0229   -0.0948 H         1 <0>         0.1515
     27 H5         -1.2805   -4.7174   -0.2903 H         1 <0>         0.1559
     28 H6         -3.3257   -6.6843   -1.2235 H         1 <0>         0.4050
     29 H7         -6.3751   -2.2160   -0.7224 H         1 <0>         0.4036
     30 H8         -3.3120    1.6729    0.3033 H         1 <0>         0.4079
     31 H9          1.3508    3.5370    1.6166 H         1 <0>         0.3905
     32 H10         3.5287    2.9137   -0.5647 H         1 <0>         0.3924
@<TRIPOS>BOND
     1    1    6 ar
     2    1    2 ar
     3    1   23 1
     4    2    3 ar
     5    2   24 1
     6    3    4 ar
     7    3   22 1
     8    4    5 ar
     9    4   21 1
    10    5    6 ar
    11    5   25 1
    12    6    7 1
    13    7   17 1
    14    7    8 2
    15    8    9 1
    16    8   20 1
    17    9   10 2
    18    9   11 1
    19   11   16 ar
    20   11   12 ar
    21   12   13 ar
    22   12   19 1
    23   13   14 ar
    24   13   26 1
    25   14   15 ar
    26   14   18 1
    27   15   16 ar
    28   15   27 1
    29   16   17 1
    30   18   28 1
    31   19   29 1
    32   20   30 1
    33   21   31 1
    34   22   32 1
@<TRIPOS>MOLECULE
ZINC03869685
   31    33     0     0     0
SMALL
USER_CHARGES

@<TRIPOS>ATOM
      1 C1          0.1390    1.1246   -0.8120 C.ar      1 <0>        -0.0626
      2 C2          1.3229    1.8301   -0.8179 C.ar      1 <0>        -0.1333
      3 C3          2.3812    1.4233   -0.0172 C.ar      1 <0>         0.0878
      4 C4          2.2522    0.2984    0.7970 C.ar      1 <0>         0.0757
      5 C5          1.0694   -0.4139    0.8086 C.ar      1 <0>        -0.0997
      6 C6          0.0021   -0.0041    0.0020 C.ar      1 <0>        -0.0194
      7 C7         -1.2620   -0.7597    0.0100 C.2       1 <0>         0.1007
      8 C8         -2.4587   -0.0763    0.1245 C.2       1 <0>        -0.0038
      9 C9         -3.6655   -0.7872    0.1324 C.2       1 <0>         0.3349
     10 C10        -3.6167   -2.1939    0.0219 C.2       1 <0>        -0.3331
     11 C11        -4.8018   -2.9593    0.0240 C.2       1 <0>         0.2664
     12 C12        -4.7326   -4.3182   -0.0844 C.2       1 <0>        -0.3749
     13 C13        -3.4871   -4.9570   -0.1979 C.2       1 <0>         0.3648
     14 O1         -3.4307   -6.2860   -0.3033 O.2       1 <0>        -0.6598
     15 C14        -2.3054   -4.2086   -0.2016 C.2       1 <0>        -0.3143
     16 C15        -2.3616   -2.8325   -0.0921 C.2       1 <0>         0.2118
     17 O2         -1.2290   -2.0988   -0.0996 O.3       1 <0>        -0.2018
     18 O3         -6.0073   -2.3463    0.1339 O.3       1 <0>        -0.4482
     19 O4         -4.8484   -0.1420    0.2437 O.3       1 <0>        -0.5747
     20 O5         -2.4638    1.2803    0.2294 O.3       1 <0>        -0.4649
     21 O6          3.2919   -0.0973    1.5794 O.3       1 <0>        -0.4856
     22 O7          3.5458    2.1225   -0.0269 O.3       1 <0>        -0.4881
     23 H1         -0.6843    1.4460   -1.4327 H         1 <0>         0.1397
     24 H2          1.4276    2.7014   -1.4473 H         1 <0>         0.1381
     25 H3          0.9685   -1.2854    1.4384 H         1 <0>         0.1410
     26 H4         -5.6395   -4.9047   -0.0825 H         1 <0>         0.1180
     27 H5         -1.3506   -4.7057   -0.2895 H         1 <0>         0.1230
     28 H6         -6.7597   -2.9537    0.1258 H         1 <0>         0.3847
     29 H7         -3.3475    1.6656    0.3047 H         1 <0>         0.4058
     30 H8          3.2925    0.2977    2.4620 H         1 <0>         0.3855
     31 H9          3.5825    2.8346    0.6263 H         1 <0>         0.3863
@<TRIPOS>BOND
     1    1    6 ar
     2    1    2 ar
     3    1   23 1
     4    2    3 ar
     5    2   24 1
     6    3    4 ar
     7    3   22 1
     8    4    5 ar
     9    4   21 1
    10    5    6 ar
    11    5   25 1
    12    6    7 1
    13    7   17 1
    14    7    8 2
    15    8    9 1
    16    8   20 1
    17    9   10 2
    18    9   19 1
    19   10   16 1
    20   10   11 1
    21   11   12 2
    22   11   18 1
    23   12   13 1
    24   12   26 1
    25   13   14 2
    26   13   15 1
    27   15   16 2
    28   15   27 1
    29   16   17 1
    30   18   28 1
    31   20   29 1
    32   21   30 1
    33   22   31 1
@<TRIPOS>MOLECULE
ZINC38732932
   20    21     0     0     0
SMALL
USER_CHARGES

@<TRIPOS>ATOM
      1 C1         -0.0168    1.3877    0.0097 C.ar      1 <0>        -0.0854
      2 C2          1.1421    2.1067    0.0025 C.ar      1 <0>         0.0009
      3 C3          2.3784    1.4400   -0.0129 C.ar      1 <0>         0.1544
      4 C4          2.3954    0.0244   -0.0207 C.ar      1 <0>        -0.1216
      5 C5          3.6381   -0.6479   -0.0362 C.ar      1 <0>         0.2048
      6 C6          4.8029    0.1319   -0.0432 C.ar      1 <0>        -0.2043
      7 C7          4.6923    1.5341   -0.0346 C.ar      1 <0>         0.1985
      8 N1          3.5284    2.1293   -0.0207 N.ar      1 <0>        -0.4884
      9 C8          6.1250   -0.5085   -0.0588 C.2       1 <0>         0.5256
     10 O1          7.1377    0.1785   -0.0648 O.co2     1 <0>        -0.6798
     11 O2          6.2136   -1.7291   -0.0658 O.co2     1 <0>        -0.6609
     12 O3          3.7015   -1.9983   -0.0437 O.3       1 <0>        -0.4468
     13 C9          1.1852   -0.6861   -0.0134 C.ar      1 <0>         0.0129
     14 C10         0.0021   -0.0041    0.0020 C.ar      1 <0>        -0.0408
     15 Cl1        -1.4951   -0.8828    0.0122 Cl        1 <0>        -0.0447
     16 Cl2         1.1921   -2.4220   -0.0234 Cl        1 <0>        -0.0178
     17 Cl3         1.0896    3.8418    0.0117 Cl        1 <0>        -0.0329
     18 H1         -0.9640    1.9064    0.0261 H         1 <0>         0.1540
     19 H2          5.5906    2.1336   -0.0396 H         1 <0>         0.1788
     20 H3          3.7114   -2.3867   -0.9292 H         1 <0>         0.3937
@<TRIPOS>BOND
     1    1   14 ar
     2    1    2 ar
     3    1   18 1
     4    2    3 ar
     5    2   17 1
     6    3    8 ar
     7    3    4 ar
     8    4    5 ar
     9    4   13 ar
    10    5    6 ar
    11    5   12 1
    12    6    7 ar
    13    6    9 1
    14    7    8 ar
    15    7   19 1
    16    9   10 2
    17    9   11 1
    18   12   20 1
    19   13   14 ar
    20   13   16 1
    21   14   15 1
@<TRIPOS>MOLECULE
ZINC19795629
   32    35     0     0     0
SMALL
USER_CHARGES
2-(5-oxo-6H-indolo[1,2-a]quinazolin-7-yl)acetic acid
@<TRIPOS>ATOM
      1 C1          5.0288   -3.2609   -0.0585 C.ar      1 <0>        -0.1403
      2 C2          5.6087   -1.9998   -0.0581 C.ar      1 <0>        -0.1598
      3 C3          4.8248   -0.8657   -0.0467 C.ar      1 <0>        -0.1147
      4 C4          3.4401   -0.9846   -0.0345 C.ar      1 <0>         0.0517
      5 C5          2.8564   -2.2635   -0.0349 C.ar      1 <0>        -0.0214
      6 C6          3.6694   -3.4002   -0.0470 C.ar      1 <0>        -0.0967
      7 C7          1.4104   -2.0503   -0.0208 C.2       1 <0>        -0.2125
      8 C8          1.2016   -0.7086   -0.0128 C.2       1 <0>         0.3562
      9 N1          2.4112   -0.0573   -0.0209 N.pl3     1 <0>        -0.4561
     10 C9          2.4598    1.3366   -0.0153 C.ar      1 <0>         0.1942
     11 C10         3.6764    2.0035   -0.0228 C.ar      1 <0>        -0.1820
     12 C11         3.7024    3.3839   -0.0167 C.ar      1 <0>        -0.0898
     13 C12         2.5227    4.1115   -0.0036 C.ar      1 <0>        -0.1751
     14 C13         1.3046    3.4649    0.0040 C.ar      1 <0>        -0.0454
     15 C14         1.2654    2.0713    0.0011 C.ar      1 <0>        -0.1836
     16 C15        -0.0162    1.3432    0.0094 C.2       1 <0>         0.5026
     17 O1         -1.0715    1.9478    0.0177 O.3       1 <0>        -0.6023
     18 N2          0.0021   -0.0041    0.0020 N.2       1 <0>        -0.6483
     19 C16         0.3491   -3.1202   -0.0155 C.3       1 <0>        -0.0594
     20 C17        -0.0181   -3.4705   -1.4345 C.2       1 <0>         0.4700
     21 O2          0.5261   -2.9090   -2.3555 O.co2     1 <0>        -0.6325
     22 O3         -0.9498   -4.4064   -1.6751 O.co2     1 <0>        -0.8037
     23 H1          5.6570   -4.1393   -0.0682 H         1 <0>         0.1065
     24 H2          6.6846   -1.9061   -0.0672 H         1 <0>         0.1073
     25 H3          5.2850    0.1114   -0.0468 H         1 <0>         0.1088
     26 H4          3.2251   -4.3846   -0.0478 H         1 <0>         0.1139
     27 H5          4.6004    1.4444   -0.0338 H         1 <0>         0.1299
     28 H6          4.6503    3.9014   -0.0226 H         1 <0>         0.1170
     29 H7          2.5576    5.1909    0.0003 H         1 <0>         0.1155
     30 H8          0.3870    4.0344    0.0139 H         1 <0>         0.1301
     31 H9          0.7334   -4.0153    0.4955 H         1 <0>         0.0516
     32 H10        -0.5418   -2.7503    0.5132 H         1 <0>         0.0684
@<TRIPOS>BOND
     1    1    6 ar
     2    1    2 ar
     3    1   23 1
     4    2    3 ar
     5    2   24 1
     6    3    4 ar
     7    3   25 1
     8    4    9 1
     9    4    5 ar
    10    5    6 ar
    11    5    7 1
    12    6   26 1
    13    7    8 2
    14    7   19 1
    15    8   18 1
    16    8    9 1
    17    9   10 1
    18   10   15 ar
    19   10   11 ar
    20   11   12 ar
    21   11   27 1
    22   12   13 ar
    23   12   28 1
    24   13   14 ar
    25   13   29 1
    26   14   15 ar
    27   14   30 1
    28   15   16 1
    29   16   17 1
    30   16   18 2
    31   19   20 1
    32   19   31 1
    33   19   32 1
    34   20   21 2
    35   20   22 1
