@<TRIPOS>MOLECULE
ZINC01493878
   48    50     0     0     0
SMALL
USER_CHARGES

@<TRIPOS>ATOM
      1 C1         -1.0955   -5.0083   -6.9234 C.3       1 <0>         0.0847
      2 N1         -1.5520   -4.3038   -5.7228 N.am      1 <0>        -0.7137
      3 C2         -1.8827   -5.0004   -4.6175 C.2       1 <0>         0.5696
      4 O1         -1.8023   -6.2129   -4.6168 O.2       1 <0>        -0.5284
      5 C3         -2.3445   -4.2878   -3.4031 C.ar      1 <0>         0.1129
      6 C4         -2.6788   -5.0128   -2.2640 C.ar      1 <0>        -0.1883
      7 C5         -3.1110   -4.3279   -1.1310 C.ar      1 <0>         0.1595
      8 C6         -3.1903   -2.9389   -1.1877 C.ar      1 <0>        -0.1766
      9 C7         -2.8404   -2.2885   -2.3571 C.ar      1 <0>         0.1349
     10 N2         -2.4302   -2.9626   -3.4105 N.ar      1 <0>        -0.4815
     11 O2         -3.4471   -4.9979    0.0005 O.3       1 <0>        -0.2437
     12 C8         -3.4462   -6.3570   -0.0383 C.ar      1 <0>         0.0568
     13 C9         -2.2447   -7.0505   -0.0178 C.ar      1 <0>        -0.1074
     14 C10        -2.2431   -8.4307   -0.0577 C.ar      1 <0>        -0.1009
     15 C11        -3.4442   -9.1246   -0.1179 C.ar      1 <0>         0.1671
     16 C12        -4.6464   -8.4301   -0.1379 C.ar      1 <0>        -0.1272
     17 C13        -4.6469   -7.0500   -0.0928 C.ar      1 <0>        -0.0940
     18 N3         -3.4432  -10.5252   -0.1588 N.am      1 <0>        -0.6776
     19 C14        -2.5108  -11.2187    0.5239 C.2       1 <0>         0.7077
     20 O3         -1.6217  -10.6297    1.1080 O.2       1 <0>        -0.5493
     21 N4         -2.5639  -12.5649    0.5593 N.am      1 <0>        -0.6795
     22 C15        -1.6655  -13.2800    1.3600 C.ar      1 <0>         0.1700
     23 C16        -1.2529  -12.7583    2.5792 C.ar      1 <0>        -0.0742
     24 C17        -0.3670  -13.4659    3.3674 C.ar      1 <0>        -0.0871
     25 C18         0.1097  -14.6941    2.9434 C.ar      1 <0>        -0.0077
     26 C19        -0.2993  -15.2159    1.7290 C.ar      1 <0>        -0.1564
     27 C20        -1.1898  -14.5147    0.9394 C.ar      1 <0>        -0.0879
     28 C21         0.2222  -16.5533    1.2702 C.3       1 <0>         0.5112
     29 F1         -0.3299  -16.8663    0.0234 F         1 <0>        -0.1743
     30 F2          1.6160  -16.4983    1.1626 F         1 <0>        -0.1671
     31 F3         -0.1354  -17.5367    2.1987 F         1 <0>        -0.1677
     32 Cl1         1.2234  -15.5812    3.9366 Cl        1 <0>        -0.0394
     33 H1         -0.8760   -4.2843   -7.7081 H         1 <0>         0.0803
     34 H2         -0.1948   -5.5764   -6.6909 H         1 <0>         0.0631
     35 H3         -1.8761   -5.6883   -7.2645 H         1 <0>         0.0629
     36 H4         -1.6162   -3.3359   -5.7233 H         1 <0>         0.4141
     37 H5         -2.6047   -6.0902   -2.2584 H         1 <0>         0.1546
     38 H6         -3.5217   -2.3755   -0.3280 H         1 <0>         0.1523
     39 H7         -2.9005   -1.2112   -2.4052 H         1 <0>         0.1747
     40 H8         -1.3104   -6.5106    0.0290 H         1 <0>         0.1364
     41 H9         -1.3078   -8.9704   -0.0424 H         1 <0>         0.1514
     42 H10        -5.5809   -8.9693   -0.1851 H         1 <0>         0.1386
     43 H11        -5.5820   -6.5098   -0.1039 H         1 <0>         0.1400
     44 H12        -4.1137  -10.9957   -0.6785 H         1 <0>         0.4131
     45 H13        -3.2246  -13.0383    0.0299 H         1 <0>         0.4146
     46 H14        -1.6244  -11.7997    2.9103 H         1 <0>         0.1546
     47 H15        -0.0456  -13.0604    4.3154 H         1 <0>         0.1524
     48 H16        -1.5123  -14.9245   -0.0064 H         1 <0>         0.1525
@<TRIPOS>BOND
     1    1    2 1
     2    1   33 1
     3    1   34 1
     4    1   35 1
     5    2    3 am
     6    2   36 1
     7    3    4 2
     8    3    5 1
     9    5   10 ar
    10    5    6 ar
    11    6    7 ar
    12    6   37 1
    13    7    8 ar
    14    7   11 1
    15    8    9 ar
    16    8   38 1
    17    9   10 ar
    18    9   39 1
    19   11   12 1
    20   12   17 ar
    21   12   13 ar
    22   13   14 ar
    23   13   40 1
    24   14   15 ar
    25   14   41 1
    26   15   16 ar
    27   15   18 1
    28   16   17 ar
    29   16   42 1
    30   17   43 1
    31   18   19 am
    32   18   44 1
    33   19   20 2
    34   19   21 am
    35   21   22 1
    36   21   45 1
    37   22   27 ar
    38   22   23 ar
    39   23   24 ar
    40   23   46 1
    41   24   25 ar
    42   24   47 1
    43   25   26 ar
    44   25   32 1
    45   26   27 ar
    46   26   28 1
    47   27   48 1
    48   28   29 1
    49   28   30 1
    50   28   31 1
@<TRIPOS>MOLECULE
ZINC21982951
   60    63     0     0     0
SMALL
USER_CHARGES

@<TRIPOS>ATOM
      1 C1         -2.0700    1.6928    0.2333 C.3       1 <0>        -0.1170
      2 C2         -1.6482    0.2604    0.0301 C.ar      1 <0>        -0.0813
      3 C3         -1.8479   -0.3525   -1.1919 C.ar      1 <0>        -0.1034
      4 C4         -1.4615   -1.6665   -1.3798 C.ar      1 <0>        -0.0990
      5 C5         -0.8738   -2.3725   -0.3459 C.ar      1 <0>        -0.1046
      6 C6         -0.6714   -1.7660    0.8791 C.ar      1 <0>        -0.0220
      7 C7         -1.0534   -0.4428    1.0688 C.ar      1 <0>         0.1347
      8 N1         -0.8441    0.1769    2.3055 N.am      1 <0>        -0.6659
      9 C8         -1.2819   -0.4110    3.4365 C.2       1 <0>         0.6018
     10 O1         -1.7689   -1.5261    3.3939 O.2       1 <0>        -0.4722
     11 C9         -1.1720    0.2905    4.7149 C.2       1 <0>        -0.2635
     12 C10        -1.5472   -0.1201    5.9866 C.2       1 <0>         0.1512
     13 N2         -1.3262    0.7270    6.9599 N.2       1 <0>        -0.5510
     14 C11        -0.7756    1.9070    6.7361 C.2       1 <0>         0.2513
     15 S1         -0.5107    1.9100    5.0742 S.3       1 <0>         0.2445
     16 N3         -0.4817    2.8997    7.6498 N.pl3     1 <0>        -0.5870
     17 C12        -0.6908    2.6801    9.0050 C.ar      1 <0>         0.4543
     18 C13        -1.0534    1.4192    9.4679 C.ar      1 <0>        -0.2926
     19 C14        -1.2512    1.2508   10.8352 C.ar      1 <0>         0.4935
     20 N4         -1.0875    2.2952   11.6453 N.ar      1 <0>        -0.5328
     21 C15        -0.7435    3.4737   11.1677 C.ar      1 <0>         0.4541
     22 N5         -0.5417    3.6719    9.8809 N.ar      1 <0>        -0.5672
     23 C16        -0.5694    4.6273   12.1217 C.3       1 <0>        -0.1251
     24 N6         -1.6138    0.0143   11.3464 N.pl3     1 <0>        -0.5370
     25 C17        -2.0559   -0.1253   12.7422 C.3       1 <0>         0.1090
     26 C18        -3.3866   -0.8852   12.7576 C.3       1 <0>         0.0383
     27 N7         -3.2335   -2.1493   12.0251 N.3       1 <0>        -0.5289
     28 C19        -2.9165   -1.9105   10.6107 C.3       1 <0>         0.0343
     29 C20        -1.5725   -1.1917   10.5056 C.3       1 <0>         0.1057
     30 C21        -4.4334   -2.9856   12.1619 C.3       1 <0>         0.0545
     31 C22        -4.1483   -4.3816   11.6043 C.3       1 <0>         0.0776
     32 O2         -3.1500   -5.0191   12.4038 O.3       1 <0>        -0.5606
     33 Cl1         0.0658   -2.6526    2.1768 Cl        1 <0>        -0.0453
     34 H1         -1.2464    2.3553   -0.0328 H         1 <0>         0.0773
     35 H2         -2.9308    1.9112   -0.3987 H         1 <0>         0.0785
     36 H3         -2.3379    1.8478    1.2784 H         1 <0>         0.0640
     37 H4         -2.3069    0.1956   -2.0014 H         1 <0>         0.1372
     38 H5         -1.6193   -2.1430   -2.3361 H         1 <0>         0.1391
     39 H6         -0.5731   -3.3989   -0.4959 H         1 <0>         0.1403
     40 H7         -0.3838    1.0296    2.3489 H         1 <0>         0.4083
     41 H8         -1.9972   -1.0858    6.1634 H         1 <0>         0.2027
     42 H9         -0.1293    3.7505    7.3451 H         1 <0>         0.4460
     43 H10        -1.1784    0.5927    8.7841 H         1 <0>         0.2218
     44 H11         0.4644    4.6619   12.4652 H         1 <0>         0.1245
     45 H12        -0.8146    5.5596   11.6130 H         1 <0>         0.1071
     46 H13        -1.2322    4.4948   12.9768 H         1 <0>         0.1273
     47 H14        -1.3096   -0.6823   13.3087 H         1 <0>         0.0989
     48 H15        -2.1929    0.8619   13.1834 H         1 <0>         0.1094
     49 H16        -3.6740   -1.0944   13.7880 H         1 <0>         0.1036
     50 H17        -4.1569   -0.2794   12.2806 H         1 <0>         0.0428
     51 H18        -2.8631   -2.8634   10.0841 H         1 <0>         0.1043
     52 H19        -3.6935   -1.2904   10.1636 H         1 <0>         0.0450
     53 H20        -1.3900   -0.9091    9.4688 H         1 <0>         0.1029
     54 H21        -0.7788   -1.8532   10.8529 H         1 <0>         0.1042
     55 H22        -4.7041   -3.0633   13.2149 H         1 <0>         0.0912
     56 H23        -5.2561   -2.5340   11.6075 H         1 <0>         0.0533
     57 H24        -5.0627   -4.9745   11.6240 H         1 <0>         0.0547
     58 H25        -3.7921   -4.2970   10.5776 H         1 <0>         0.0454
     59 H26        -2.9188   -5.9101   12.1076 H         1 <0>         0.3805
     60 H27        -0.2852    4.5531    9.5669 H         1 <0>         0.4414
@<TRIPOS>BOND
     1    1    2 1
     2    1   34 1
     3    1   35 1
     4    1   36 1
     5    2    7 ar
     6    2    3 ar
     7    3    4 ar
     8    3   37 1
     9    4    5 ar
    10    4   38 1
    11    5    6 ar
    12    5   39 1
    13    6    7 ar
    14    6   33 1
    15    7    8 1
    16    8    9 am
    17    8   40 1
    18    9   10 2
    19    9   11 1
    20   11   15 1
    21   11   12 2
    22   12   13 1
    23   12   41 1
    24   13   14 2
    25   14   15 1
    26   14   16 1
    27   16   17 1
    28   16   42 1
    29   17   22 ar
    30   17   18 ar
    31   18   19 ar
    32   18   43 1
    33   19   20 ar
    34   19   24 1
    35   20   21 ar
    36   21   22 ar
    37   21   23 1
    38   22   60 1
    39   23   44 1
    40   23   45 1
    41   23   46 1
    42   24   29 1
    43   24   25 1
    44   25   26 1
    45   25   47 1
    46   25   48 1
    47   26   27 1
    48   26   49 1
    49   26   50 1
    50   27   28 1
    51   27   30 1
    52   28   29 1
    53   28   51 1
    54   28   52 1
    55   29   53 1
    56   29   54 1
    57   30   31 1
    58   30   55 1
    59   30   56 1
    60   31   32 1
    61   31   57 1
    62   31   58 1
    63   32   59 1
@<TRIPOS>MOLECULE
ZINC21982951
   60    63     0     0     0
SMALL
USER_CHARGES

@<TRIPOS>ATOM
      1 C1          3.2739    6.6585    1.8418 C.3       1 <0>        -0.1168
      2 C2          2.5810    7.9910    1.9663 C.ar      1 <0>        -0.0823
      3 C3          2.8983    9.0189    1.0995 C.ar      1 <0>        -0.1038
      4 C4          2.2635   10.2419    1.2126 C.ar      1 <0>        -0.1008
      5 C5          1.3088   10.4411    2.1933 C.ar      1 <0>        -0.1049
      6 C6          0.9869    9.4175    3.0639 C.ar      1 <0>        -0.0226
      7 C7          1.6192    8.1849    2.9486 C.ar      1 <0>         0.1373
      8 N1          1.2913    7.1440    3.8238 N.am      1 <0>        -0.6678
      9 C8          1.3128    7.3511    5.1554 C.2       1 <0>         0.6036
     10 O1          1.5184    8.4680    5.5945 O.2       1 <0>        -0.4759
     11 C9          1.0891    6.2346    6.0728 C.2       1 <0>        -0.2694
     12 C10         1.0619    6.2190    7.4604 C.2       1 <0>         0.1522
     13 N2          0.8357    5.0596    8.0247 N.2       1 <0>        -0.5060
     14 C11         0.6446    3.9678    7.3056 C.2       1 <0>         0.2464
     15 S1          0.7674    4.5141    5.7185 S.3       1 <0>         0.2029
     16 N3          0.3973    2.6842    7.7505 N.pl3     1 <0>        -0.5650
     17 C12         0.2197    2.4414    9.1063 C.ar      1 <0>         0.4999
     18 C13        -0.1342    1.1736    9.5555 C.ar      1 <0>        -0.3181
     19 C14        -0.3003    0.9817   10.9244 C.ar      1 <0>         0.4940
     20 N4         -0.1157    2.0114   11.7481 N.ar      1 <0>        -0.5712
     21 C15         0.2193    3.1978   11.2829 C.ar      1 <0>         0.4509
     22 N5          0.3911    3.4178    9.9956 N.ar      1 <0>        -0.4879
     23 C16         0.4179    4.3344   12.2523 C.3       1 <0>        -0.1253
     24 N6         -0.6531   -0.2629   11.4224 N.pl3     1 <0>        -0.5744
     25 C17        -0.9639   -0.4449   12.8484 C.3       1 <0>         0.1013
     26 C18        -2.3114   -1.1652   12.9649 C.3       1 <0>         0.0387
     27 N7         -2.2712   -2.4031   12.1749 N.3       1 <0>        -0.5277
     28 C19        -2.0835   -2.1176   10.7462 C.3       1 <0>         0.0305
     29 C20        -0.7325   -1.4351   10.5377 C.3       1 <0>         0.1149
     30 C21        -3.4796   -3.2085   12.3965 C.3       1 <0>         0.0543
     31 C22        -3.2958   -4.5889   11.7629 C.3       1 <0>         0.0774
     32 O2         -2.2472   -5.2869   12.4378 O.3       1 <0>        -0.5615
     33 Cl1        -0.2110    9.6681    4.2952 Cl        1 <0>        -0.0453
     34 H1          2.7121    6.0191    1.1609 H         1 <0>         0.0767
     35 H2          4.2810    6.8077    1.4524 H         1 <0>         0.0779
     36 H3          3.3298    6.1850    2.8220 H         1 <0>         0.0648
     37 H4          3.6435    8.8670    0.3327 H         1 <0>         0.1365
     38 H5          2.5139   11.0437    0.5337 H         1 <0>         0.1383
     39 H6          0.8148   11.3976    2.2790 H         1 <0>         0.1396
     40 H7          1.0484    6.2731    3.4723 H         1 <0>         0.4083
     41 H8          1.2191    7.1147    8.0430 H         1 <0>         0.1979
     42 H9          0.3477    1.9521    7.1161 H         1 <0>         0.4525
     43 H10        -0.2767    0.3593    8.8606 H         1 <0>         0.1835
     44 H11         1.4596    4.3615   12.5720 H         1 <0>         0.1250
     45 H12         0.1626    5.2758   11.7656 H         1 <0>         0.1301
     46 H13        -0.2249    4.1881   13.1203 H         1 <0>         0.1049
     47 H14        -0.1857   -1.0458   13.3190 H         1 <0>         0.1119
     48 H15        -1.0251    0.5276   13.3369 H         1 <0>         0.0843
     49 H16        -2.5057   -1.4068   14.0099 H         1 <0>         0.1076
     50 H17        -3.1034   -0.5184   12.5874 H         1 <0>         0.0465
     51 H18        -2.1124   -3.0499   10.1822 H         1 <0>         0.1076
     52 H19        -2.8786   -1.4576   10.3996 H         1 <0>         0.0467
     53 H20        -0.6409   -1.1170    9.4992 H         1 <0>         0.1034
     54 H21         0.0684   -2.1330   10.7819 H         1 <0>         0.1075
     55 H22        -3.6507   -3.3200   13.4672 H         1 <0>         0.0925
     56 H23        -4.3362   -2.7111   11.9416 H         1 <0>         0.0553
     57 H24        -4.2233   -5.1548   11.8494 H         1 <0>         0.0565
     58 H25        -3.0370   -4.4741   10.7103 H         1 <0>         0.0456
     59 H26        -2.0752   -6.1719   12.0881 H         1 <0>         0.3821
     60 H27        -0.2297    1.8867   12.7033 H         1 <0>         0.4392
@<TRIPOS>BOND
     1    1    2 1
     2    1   34 1
     3    1   35 1
     4    1   36 1
     5    2    7 ar
     6    2    3 ar
     7    3    4 ar
     8    3   37 1
     9    4    5 ar
    10    4   38 1
    11    5    6 ar
    12    5   39 1
    13    6    7 ar
    14    6   33 1
    15    7    8 1
    16    8    9 am
    17    8   40 1
    18    9   10 2
    19    9   11 1
    20   11   15 1
    21   11   12 2
    22   12   13 1
    23   12   41 1
    24   13   14 2
    25   14   15 1
    26   14   16 1
    27   16   17 1
    28   16   42 1
    29   17   18 ar
    30   17   22 ar
    31   18   43 1
    32   18   19 ar
    33   19   24 1
    34   19   20 ar
    35   20   60 1
    36   20   21 ar
    37   21   23 1
    38   21   22 ar
    39   23   44 1
    40   23   45 1
    41   23   46 1
    42   24   29 1
    43   24   25 1
    44   25   26 1
    45   25   47 1
    46   25   48 1
    47   26   27 1
    48   26   49 1
    49   26   50 1
    50   27   28 1
    51   27   30 1
    52   28   29 1
    53   28   51 1
    54   28   52 1
    55   29   53 1
    56   29   54 1
    57   30   31 1
    58   30   55 1
    59   30   56 1
    60   31   32 1
    61   31   57 1
    62   31   58 1
    63   32   59 1
@<TRIPOS>MOLECULE
ZINC21982951
   59    62     0     0     0
SMALL
USER_CHARGES

@<TRIPOS>ATOM
      1 C1          3.4106    6.6420    1.8847 C.3       1 <0>        -0.1165
      2 C2          2.6976    7.9659    1.9845 C.ar      1 <0>        -0.0852
      3 C3          3.0204    8.9921    1.1176 C.ar      1 <0>        -0.1055
      4 C4          2.3672   10.2073    1.2080 C.ar      1 <0>        -0.1070
      5 C5          1.3885   10.4004    2.1660 C.ar      1 <0>        -0.1064
      6 C6          1.0609    9.3785    3.0365 C.ar      1 <0>        -0.0243
      7 C7          1.7118    8.1536    2.9438 C.ar      1 <0>         0.1460
      8 N1          1.3783    7.1144    3.8189 N.am      1 <0>        -0.6734
      9 C8          1.3676    7.3308    5.1492 C.2       1 <0>         0.6131
     10 O1          1.5489    8.4533    5.5848 O.2       1 <0>        -0.4899
     11 C9          1.1384    6.2176    6.0693 C.2       1 <0>        -0.3092
     12 C10         1.0807    6.2111    7.4561 C.2       1 <0>         0.1722
     13 N2          0.8573    5.0526    8.0233 N.2       1 <0>        -0.5180
     14 C11         0.6966    3.9535    7.3079 C.2       1 <0>         0.3121
     15 S1          0.8472    4.4907    5.7202 S.3       1 <0>         0.1340
     16 N3          0.4564    2.6698    7.7563 N.pl3     1 <0>        -0.5904
     17 C12         0.2490    2.4343    9.1091 C.ar      1 <0>         0.4412
     18 C13        -0.1036    1.1661    9.5586 C.ar      1 <0>        -0.3412
     19 C14        -0.3003    0.9817   10.9244 C.ar      1 <0>         0.4686
     20 N4         -0.1450    2.0186   11.7452 N.ar      1 <0>        -0.5923
     21 C15         0.1898    3.2050   11.2799 C.ar      1 <0>         0.3946
     22 N5          0.3901    3.4182    9.9956 N.ar      1 <0>        -0.5459
     23 C16         0.3546    4.3498   12.2460 C.3       1 <0>        -0.0834
     24 N6         -0.6531   -0.2629   11.4224 N.pl3     1 <0>        -0.5966
     25 C17        -1.0693   -0.4249   12.8237 C.3       1 <0>         0.1300
     26 C18        -2.3993   -1.1856   12.8517 C.3       1 <0>         0.0401
     27 N7         -2.2595   -2.4378   12.0965 N.3       1 <0>        -0.5276
     28 C19        -1.9688   -2.1765   10.6804 C.3       1 <0>         0.0363
     29 C20        -0.6270   -1.4554   10.5619 C.3       1 <0>         0.1269
     30 C21        -3.4565   -3.2768   12.2420 C.3       1 <0>         0.0537
     31 C22        -3.1814   -4.6636   11.6572 C.3       1 <0>         0.0792
     32 O2         -2.1684   -5.3132   12.4279 O.3       1 <0>        -0.5589
     33 Cl1        -0.1672    9.6214    4.2392 Cl        1 <0>        -0.0433
     34 H1          2.8725    5.9906    1.1961 H         1 <0>         0.0754
     35 H2          4.4240    6.8020    1.5166 H         1 <0>         0.0754
     36 H3          3.4510    6.1760    2.8692 H         1 <0>         0.0676
     37 H4          3.7844    8.8450    0.3685 H         1 <0>         0.1337
     38 H5          2.6220   11.0077    0.5292 H         1 <0>         0.1350
     39 H6          0.8801   11.3508    2.2339 H         1 <0>         0.1371
     40 H7          1.1547    6.2381    3.4683 H         1 <0>         0.4085
     41 H8          1.2132    7.1127    8.0357 H         1 <0>         0.1884
     42 H9          0.4325    1.9325    7.1264 H         1 <0>         0.4387
     43 H10        -0.2220    0.3459    8.8660 H         1 <0>         0.1413
     44 H11         1.3882    4.3890   12.5900 H         1 <0>         0.0870
     45 H12         0.1021    5.2855   11.7470 H         1 <0>         0.0890
     46 H13        -0.3072    4.2031   13.0995 H         1 <0>         0.0846
     47 H14        -0.3126   -0.9904   13.3674 H         1 <0>         0.0744
     48 H15        -1.1984    0.5551   13.2831 H         1 <0>         0.1008
     49 H16        -2.6676   -1.4113   13.8837 H         1 <0>         0.0903
     50 H17        -3.1785   -0.5727   12.3986 H         1 <0>         0.0372
     51 H18        -1.9249   -3.1208   10.1378 H         1 <0>         0.0905
     52 H19        -2.7540   -1.5497   10.2576 H         1 <0>         0.0380
     53 H20        -0.4638   -1.1563    9.5265 H         1 <0>         0.0877
     54 H21         0.1731   -2.1219   10.8840 H         1 <0>         0.0802
     55 H22        -3.7077   -3.3713   13.2985 H         1 <0>         0.0861
     56 H23        -4.2894   -2.8169   11.7102 H         1 <0>         0.0487
     57 H24        -4.0952   -5.2572   11.6843 H         1 <0>         0.0498
     58 H25        -2.8443   -4.5626   10.6256 H         1 <0>         0.0451
     59 H26        -1.9426   -6.1994   12.1134 H         1 <0>         0.3762
@<TRIPOS>BOND
     1    1    2 1
     2    1   34 1
     3    1   35 1
     4    1   36 1
     5    2    7 ar
     6    2    3 ar
     7    3    4 ar
     8    3   37 1
     9    4    5 ar
    10    4   38 1
    11    5    6 ar
    12    5   39 1
    13    6    7 ar
    14    6   33 1
    15    7    8 1
    16    8    9 am
    17    8   40 1
    18    9   10 2
    19    9   11 1
    20   11   15 1
    21   11   12 2
    22   12   13 1
    23   12   41 1
    24   13   14 2
    25   14   15 1
    26   14   16 1
    27   16   17 1
    28   16   42 1
    29   17   18 ar
    30   17   22 ar
    31   18   43 1
    32   18   19 ar
    33   19   24 1
    34   19   20 ar
    35   20   21 ar
    36   21   23 1
    37   21   22 ar
    38   23   44 1
    39   23   45 1
    40   23   46 1
    41   24   29 1
    42   24   25 1
    43   25   26 1
    44   25   47 1
    45   25   48 1
    46   26   27 1
    47   26   49 1
    48   26   50 1
    49   27   28 1
    50   27   30 1
    51   28   29 1
    52   28   51 1
    53   28   52 1
    54   29   53 1
    55   29   54 1
    56   30   31 1
    57   30   55 1
    58   30   56 1
    59   31   32 1
    60   31   57 1
    61   31   58 1
    62   32   59 1
@<TRIPOS>MOLECULE
ZINC21982951
   61    64     0     0     0
SMALL
USER_CHARGES

@<TRIPOS>ATOM
      1 C1          3.2770    6.6581    1.8427 C.3       1 <0>        -0.1166
      2 C2          2.5837    7.9904    1.9667 C.ar      1 <0>        -0.0814
      3 C3          2.9012    9.0183    1.0999 C.ar      1 <0>        -0.1028
      4 C4          2.2660   10.2411    1.2125 C.ar      1 <0>        -0.0975
      5 C5          1.3108   10.4402    2.1928 C.ar      1 <0>        -0.1039
      6 C6          0.9888    9.4167    3.0634 C.ar      1 <0>        -0.0218
      7 C7          1.6215    8.1842    2.9485 C.ar      1 <0>         0.1327
      8 N1          1.2933    7.1433    3.8237 N.am      1 <0>        -0.6648
      9 C8          1.3141    7.3507    5.1552 C.2       1 <0>         0.5983
     10 O1          1.5193    8.4677    5.5943 O.2       1 <0>        -0.4690
     11 C9          1.0903    6.2342    6.0727 C.2       1 <0>        -0.2500
     12 C10         1.0624    6.2188    7.4604 C.2       1 <0>         0.1439
     13 N2          0.8362    5.0594    8.0246 N.2       1 <0>        -0.4984
     14 C11         0.6458    3.9675    7.3056 C.2       1 <0>         0.2172
     15 S1          0.7692    4.5136    5.7185 S.3       1 <0>         0.2242
     16 N3          0.3986    2.6839    7.7506 N.pl3     1 <0>        -0.5513
     17 C12         0.2203    2.4413    9.1063 C.ar      1 <0>         0.5098
     18 C13        -0.1335    1.1734    9.5556 C.ar      1 <0>        -0.3097
     19 C14        -0.3003    0.9817   10.9244 C.ar      1 <0>         0.4927
     20 N4         -0.1163    2.0116   11.7481 N.ar      1 <0>        -0.5695
     21 C15         0.2187    3.1980   11.2828 C.ar      1 <0>         0.4589
     22 N5          0.3911    3.4178    9.9956 N.ar      1 <0>        -0.4762
     23 C16         0.4165    4.3348   12.2521 C.3       1 <0>        -0.1303
     24 N6         -0.6531   -0.2629   11.4224 N.pl3     1 <0>        -0.6123
     25 C17        -0.9643   -0.4465   12.8484 C.3       1 <0>         0.0782
     26 C18        -2.3027   -1.1838   12.9625 C.3       1 <0>        -0.0204
     27 N7         -2.2406   -2.4311   12.1903 N.4       1 <0>        -0.3852
     28 C19        -2.0770   -2.1279   10.7629 C.3       1 <0>        -0.0304
     29 C20        -0.7330   -1.4363   10.5388 C.3       1 <0>         0.0932
     30 C21        -3.4827   -3.1900   12.3886 C.3       1 <0>        -0.0061
     31 C22        -3.3702   -4.5448   11.6865 C.3       1 <0>         0.0434
     32 O2         -2.3479   -5.3224   12.3128 O.3       1 <0>        -0.5819
     33 Cl1        -0.2098    9.6671    4.2940 Cl        1 <0>        -0.0466
     34 H1          2.7157    6.0184    1.1617 H         1 <0>         0.0770
     35 H2          4.2843    6.8074    1.4538 H         1 <0>         0.0791
     36 H3          3.3325    6.1847    2.8230 H         1 <0>         0.0631
     37 H4          3.6468    8.8665    0.3335 H         1 <0>         0.1380
     38 H5          2.5166   11.0428    0.5336 H         1 <0>         0.1401
     39 H6          0.8165   11.3966    2.2780 H         1 <0>         0.1410
     40 H7          1.0508    6.2723    3.4722 H         1 <0>         0.4077
     41 H8          1.2191    7.1146    8.0429 H         1 <0>         0.2016
     42 H9          0.3494    1.9517    7.1163 H         1 <0>         0.4545
     43 H10        -0.2756    0.3590    8.8607 H         1 <0>         0.1860
     44 H11         1.4581    4.3621   12.5724 H         1 <0>         0.1309
     45 H12         0.1613    5.2760   11.7653 H         1 <0>         0.1358
     46 H13        -0.2267    4.1885   13.1199 H         1 <0>         0.1083
     47 H14        -0.1795   -1.0367   13.3215 H         1 <0>         0.1249
     48 H15        -1.0392    0.5259   13.3352 H         1 <0>         0.1232
     49 H16        -2.5028   -1.4138   14.0090 H         1 <0>         0.1602
     50 H17        -3.0999   -0.5526   12.5701 H         1 <0>         0.1410
     51 H18        -2.1110   -3.0537   10.1885 H         1 <0>         0.1585
     52 H19        -2.8811   -1.4682   10.4370 H         1 <0>         0.1418
     53 H20        -0.6550   -1.1179    9.4992 H         1 <0>         0.1416
     54 H21         0.0756   -2.1281   10.7747 H         1 <0>         0.1211
     55 H22        -3.6469   -3.3459   13.4548 H         1 <0>         0.1465
     56 H23        -4.3202   -2.6321   11.9697 H         1 <0>         0.1464
     57 H24        -4.3221   -5.0710   11.7578 H         1 <0>         0.1026
     58 H25        -3.1180   -4.3904   10.6374 H         1 <0>         0.0719
     59 H26        -2.2211   -6.1961   11.9183 H         1 <0>         0.4154
     60 H27        -0.2308    1.8869   12.7032 H         1 <0>         0.4393
     61 H28        -1.4578   -2.9831   12.5075 H         1 <0>         0.4359
@<TRIPOS>BOND
     1    1    2 1
     2    1   34 1
     3    1   35 1
     4    1   36 1
     5    2    7 ar
     6    2    3 ar
     7    3    4 ar
     8    3   37 1
     9    4    5 ar
    10    4   38 1
    11    5    6 ar
    12    5   39 1
    13    6    7 ar
    14    6   33 1
    15    7    8 1
    16    8    9 am
    17    8   40 1
    18    9   10 2
    19    9   11 1
    20   11   15 1
    21   11   12 2
    22   12   13 1
    23   12   41 1
    24   13   14 2
    25   14   15 1
    26   14   16 1
    27   16   17 1
    28   16   42 1
    29   17   18 ar
    30   17   22 ar
    31   18   43 1
    32   18   19 ar
    33   19   24 1
    34   19   20 ar
    35   20   60 1
    36   20   21 ar
    37   21   23 1
    38   21   22 ar
    39   23   44 1
    40   23   45 1
    41   23   46 1
    42   24   29 1
    43   24   25 1
    44   25   26 1
    45   25   47 1
    46   25   48 1
    47   26   27 1
    48   26   49 1
    49   26   50 1
    50   27   28 1
    51   27   30 1
    52   27   61 1
    53   28   29 1
    54   28   51 1
    55   28   52 1
    56   29   53 1
    57   29   54 1
    58   30   31 1
    59   30   55 1
    60   30   56 1
    61   31   32 1
    62   31   57 1
    63   31   58 1
    64   32   59 1
@<TRIPOS>MOLECULE
ZINC03814434
   62    69     0     0     0
SMALL
USER_CHARGES

@<TRIPOS>ATOM
      1 C1         -0.1295    1.5952   -0.2973 C.3       1 <0>        -0.1687
      2 C2         -0.0862    0.0696   -0.1900 C.3       1 <0>         0.3342
      3 C3          0.5692   -0.4501   -1.4637 C.3       1 <0>         0.0405
      4 H1          1.4796    0.1159   -1.6612 H         1 <0>         0.1372
      5 C4          0.9167   -1.9328   -1.2889 C.3       1 <0>        -0.0061
      6 H2          1.3963   -2.3075   -2.1932 H         1 <0>         0.1555
      7 C5          1.8785   -2.0596   -0.1021 C.3       1 <0>        -0.1827
      8 C6          1.2061   -1.5198    1.1541 C.3       1 <0>         0.2999
      9 H3          1.9797   -1.4243    1.9161 H         1 <0>         0.1550
     10 O1          0.6555   -0.2442    0.9666 O.3       1 <0>        -0.3234
     11 N1          0.2189   -2.4746    1.6600 N.pl3     1 <0>        -0.5366
     12 C7          0.4705   -3.5508    2.4739 C.ar      1 <0>         0.1469
     13 C8          1.6649   -4.0152    3.0240 C.ar      1 <0>        -0.1522
     14 C9          1.5948   -5.1456    3.8201 C.ar      1 <0>        -0.0582
     15 C10         0.4006   -5.7997    4.0696 C.ar      1 <0>        -0.1457
     16 C11        -0.7984   -5.3597    3.5358 C.ar      1 <0>        -0.0280
     17 C12        -0.7487   -4.2198    2.7307 C.ar      1 <0>        -0.1131
     18 C13        -1.7893   -3.4830    2.0197 C.ar      1 <0>         0.0276
     19 C14        -1.1442   -2.4197    1.3841 C.ar      1 <0>         0.0376
     20 C15        -1.8806   -1.5095    0.6175 C.ar      1 <0>         0.0894
     21 N2         -1.4718   -0.3951   -0.1095 N.pl3     1 <0>        -0.5183
     22 C16        -2.5611    0.1913   -0.7090 C.ar      1 <0>         0.1618
     23 C17        -2.6521    1.3277   -1.5118 C.ar      1 <0>        -0.1305
     24 C18        -3.9109    1.6745   -1.9733 C.ar      1 <0>        -0.0737
     25 C19        -5.0393    0.9368   -1.6616 C.ar      1 <0>        -0.1358
     26 C20        -4.9745   -0.1955   -0.8662 C.ar      1 <0>        -0.0503
     27 C21        -3.7147   -0.5596   -0.3919 C.ar      1 <0>        -0.1042
     28 C22        -3.2693   -1.6660    0.4845 C.ar      1 <0>        -0.0360
     29 C23        -3.9084   -2.7313    1.1102 C.ar      1 <0>        -0.0288
     30 C24        -3.1873   -3.6421    1.8754 C.ar      1 <0>        -0.1255
     31 C25        -4.1221   -4.6480    2.4030 C.2       1 <0>         0.5632
     32 O2         -3.8062   -5.5851    3.1110 O.2       1 <0>        -0.5106
     33 N3         -5.3744   -4.3851    1.9926 N.am      1 <0>        -0.7162
     34 C26        -5.3495   -3.1771    1.1601 C.3       1 <0>         0.1358
     35 N4         -0.3067   -2.7008   -1.0216 N.4       1 <0>        -0.5252
     36 C27         0.0145   -4.1336   -0.9773 C.3       1 <0>        -0.0497
     37 O3         -0.3340   -0.2979   -2.5607 O.3       1 <0>        -0.3614
     38 C28         0.3101   -0.0933   -3.8198 C.3       1 <0>         0.0162
     39 H4          0.8261    2.0094    0.0240 H         1 <0>         0.0984
     40 H5         -0.3202    1.8814   -1.3317 H         1 <0>         0.1036
     41 H6         -0.9255    1.9818    0.3392 H         1 <0>         0.0921
     42 H7          2.1370   -3.1081    0.0458 H         1 <0>         0.1233
     43 H8          2.7835   -1.4869   -0.3048 H         1 <0>         0.1455
     44 H9          2.6036   -3.5149    2.8368 H         1 <0>         0.1365
     45 H10         2.5026   -5.5304    4.2610 H         1 <0>         0.1359
     46 H11         0.4045   -6.6780    4.6980 H         1 <0>         0.1352
     47 H12        -1.7278   -5.8736    3.7323 H         1 <0>         0.1600
     48 H13        -1.7792    1.9122   -1.7624 H         1 <0>         0.1440
     49 H14        -4.0153    2.5500   -2.5970 H         1 <0>         0.1336
     50 H15        -5.9967    1.2527   -2.0488 H         1 <0>         0.1332
     51 H16        -5.8575   -0.7687   -0.6249 H         1 <0>         0.1415
     52 H17        -6.1628   -4.9065    2.2103 H         1 <0>         0.4348
     53 H18        -5.9671   -2.3994    1.6094 H         1 <0>         0.1115
     54 H19        -5.7060   -3.4063    0.1559 H         1 <0>         0.1103
     55 H20        -0.6958   -2.4158   -0.1353 H         1 <0>         0.4186
     56 H21         0.4349   -4.4415   -1.9347 H         1 <0>         0.1256
     57 H22         0.7403   -4.3189   -0.1854 H         1 <0>         0.1191
     58 H23        -0.8932   -4.7035   -0.7789 H         1 <0>         0.1256
     59 H24         0.9168    0.8112   -3.7748 H         1 <0>         0.0633
     60 H25         0.9482   -0.9479   -4.0446 H         1 <0>         0.0514
     61 H26        -0.4433    0.0130   -4.6003 H         1 <0>         0.1100
     62 H27        -0.9785   -2.5293   -1.7546 H         1 <0>         0.4274
@<TRIPOS>BOND
     1    1    2 1
     2    1   39 1
     3    1   40 1
     4    1   41 1
     5    2   10 1
     6    2   21 1
     7    2    3 1
     8    3    4 1
     9    3    5 1
    10    3   37 1
    11    5    6 1
    12    5    7 1
    13    5   35 1
    14    7    8 1
    15    7   42 1
    16    7   43 1
    17    8    9 1
    18    8   10 1
    19    8   11 1
    20   11   19 1
    21   11   12 1
    22   12   17 ar
    23   12   13 ar
    24   13   14 ar
    25   13   44 1
    26   14   15 ar
    27   14   45 1
    28   15   16 ar
    29   15   46 1
    30   16   17 ar
    31   16   47 1
    32   17   18 1
    33   18   30 ar
    34   18   19 ar
    35   19   20 ar
    36   20   28 ar
    37   20   21 1
    38   21   22 1
    39   22   27 ar
    40   22   23 ar
    41   23   24 ar
    42   23   48 1
    43   24   25 ar
    44   24   49 1
    45   25   26 ar
    46   25   50 1
    47   26   27 ar
    48   26   51 1
    49   27   28 1
    50   28   29 ar
    51   29   34 1
    52   29   30 ar
    53   30   31 1
    54   31   32 2
    55   31   33 am
    56   33   34 1
    57   33   52 1
    58   34   53 1
    59   34   54 1
    60   35   36 1
    61   35   55 1
    62   35   62 1
    63   36   56 1
    64   36   57 1
    65   36   58 1
    66   37   38 1
    67   38   59 1
    68   38   60 1
    69   38   61 1
@<TRIPOS>MOLECULE
ZINC12504479
   39    42     0     0     0
SMALL
USER_CHARGES
tert-butyl-fluoro-BLAHone
@<TRIPOS>ATOM
      1 C1          0.0306    7.5665   -1.3573 C.3       1 <0>        -0.1435
      2 C2         -0.0131    6.9316    0.0341 C.3       1 <0>         0.0141
      3 C3         -1.4663    6.6486    0.4201 C.3       1 <0>        -0.1303
      4 C4          0.6075    7.8907    1.0520 C.3       1 <0>        -0.1484
      5 C5          0.7640    5.6405    0.0218 C.2       1 <0>         0.2640
      6 N1          2.1200    5.5432    0.0086 N.pl3     1 <0>        -0.5660
      7 H1          2.7692    6.3038    0.0059 H         1 <0>         0.4300
      8 C6          2.4322    4.2055   -0.0004 C.ar      1 <0>         0.0707
      9 C7          3.6945    3.4726   -0.0160 C.ar      1 <0>        -0.0387
     10 C8          4.9179    4.1553   -0.0241 C.ar      1 <0>        -0.0830
     11 C9          6.0889    3.4567   -0.0382 C.ar      1 <0>        -0.1479
     12 C10         6.0877    2.0644   -0.0451 C.ar      1 <0>         0.1067
     13 C11         4.9015    1.3651   -0.0371 C.ar      1 <0>        -0.1434
     14 C12         3.6874    2.0596   -0.0226 C.ar      1 <0>         0.0348
     15 C13         2.4115    1.3424   -0.0138 C.ar      1 <0>        -0.1820
     16 C14         1.2049    2.0599    0.0016 C.ar      1 <0>         0.1180
     17 C15         1.2195    3.5214    0.0080 C.ar      1 <0>         0.0317
     18 N2          0.2386    4.4495    0.0214 N.2       1 <0>        -0.4565
     19 C16        -0.0162    1.3425    0.0094 C.2       1 <0>        -0.2034
     20 C17         0.0021   -0.0041    0.0020 C.2       1 <0>         0.1350
     21 N3          1.1742   -0.7011   -0.0125 N.am      1 <0>        -0.6142
     22 H2          1.1491   -1.6708   -0.0168 H         1 <0>         0.4195
     23 C18         2.3662   -0.0731   -0.0205 C.2       1 <0>         0.5428
     24 O1          3.3998   -0.7196   -0.0338 O.2       1 <0>        -0.5363
     25 F1          7.2604    1.3938   -0.0600 F         1 <0>        -0.1343
     26 H3         -0.4115    6.8833   -2.0824 H         1 <0>         0.0650
     27 H4         -0.5315    8.5004   -1.3483 H         1 <0>         0.0730
     28 H5          1.0659    7.7682   -1.6323 H         1 <0>         0.0547
     29 H6         -1.4974    6.1963    1.4114 H         1 <0>         0.0620
     30 H7         -2.0283    7.5824    0.4291 H         1 <0>         0.0642
     31 H8         -1.9084    5.9653   -0.3050 H         1 <0>         0.0701
     32 H9          1.6428    8.0923    0.7770 H         1 <0>         0.0535
     33 H10         0.0454    8.8245    1.0609 H         1 <0>         0.0757
     34 H11         0.5764    7.4384    2.0432 H         1 <0>         0.0638
     35 H12         4.9335    5.2351   -0.0195 H         1 <0>         0.1298
     36 H13         7.0282    3.9897   -0.0443 H         1 <0>         0.1393
     37 H14         4.9085    0.2852   -0.0418 H         1 <0>         0.1812
     38 H15        -0.9571    1.8725    0.0168 H         1 <0>         0.1577
     39 H16        -0.9330   -0.5444    0.0080 H         1 <0>         0.1706
@<TRIPOS>BOND
     1    1    2 1
     2    1   26 1
     3    1   27 1
     4    1   28 1
     5    2    3 1
     6    2    4 1
     7    2    5 1
     8    3   29 1
     9    3   30 1
    10    3   31 1
    11    4   32 1
    12    4   33 1
    13    4   34 1
    14    5   18 2
    15    5    6 1
    16    6    7 1
    17    6    8 1
    18    8   17 ar
    19    8    9 ar
    20    9   14 ar
    21    9   10 ar
    22   10   11 ar
    23   10   35 1
    24   11   12 ar
    25   11   36 1
    26   12   13 ar
    27   12   25 1
    28   13   14 ar
    29   13   37 1
    30   14   15 ar
    31   15   23 1
    32   15   16 ar
    33   16   17 ar
    34   16   19 1
    35   17   18 1
    36   19   20 2
    37   19   38 1
    38   20   21 1
    39   20   39 1
    40   21   22 1
    41   21   23 am
    42   23   24 2
@<TRIPOS>MOLECULE
ZINC24811973
   71    76     0     0     0
SMALL
USER_CHARGES
N-(5-chloro-1,3-benzodioxol-4-yl)-7-[2-(4-methylpiperazin-1-yl)ethoxy]-5-tetrahydropyran-4-yloxy-quinazolin-4-amine
@<TRIPOS>ATOM
      1 C1          7.5655    6.2744    4.3229 C.3       1 <0>        -0.0453
      2 N1          6.9185    4.9776    4.0827 N.4       1 <0>        -0.4025
      3 C2          5.4989    5.0194    4.4603 C.3       1 <0>         0.0006
      4 C3          4.8821    3.6316    4.2705 C.3       1 <0>         0.0191
      5 N2          5.0395    3.2159    2.8697 N.3       1 <0>        -0.5340
      6 C4          6.4591    3.1741    2.4921 C.3       1 <0>         0.0256
      7 C5          7.0759    4.5619    2.6820 C.3       1 <0>         0.0003
      8 C6          4.3925    1.9191    2.6296 C.3       1 <0>         0.0546
      9 C7          2.8759    2.1102    2.5640 C.3       1 <0>         0.0573
     10 O1          2.5474    2.9314    1.4415 O.3       1 <0>        -0.2956
     11 C8          1.2320    3.2001    1.2382 C.ar      1 <0>         0.2139
     12 C9          0.2891    2.6820    2.1028 C.ar      1 <0>        -0.2556
     13 C10        -1.0666    2.9521    1.8929 C.ar      1 <0>         0.2617
     14 C11        -1.4550    3.7658    0.7994 C.ar      1 <0>        -0.2443
     15 C12        -0.4786    4.2833   -0.0680 C.ar      1 <0>         0.2316
     16 C13         0.8507    3.9969    0.1584 C.ar      1 <0>        -0.2679
     17 O2         -0.8412    5.0596   -1.1206 O.3       1 <0>        -0.3196
     18 C14         0.2045    5.5149   -1.9816 C.3       1 <0>         0.0868
     19 C15         0.8408    6.7773   -1.3918 C.3       1 <0>        -0.1819
     20 C16         1.9040    7.3033   -2.3597 C.3       1 <0>         0.0642
     21 O3          1.3058    7.5588   -3.6321 O.3       1 <0>        -0.3754
     22 C17         0.7375    6.4035   -4.2522 C.3       1 <0>         0.0639
     23 C18        -0.3741    5.8427   -3.3615 C.3       1 <0>        -0.1585
     24 C19        -2.8318    4.0257    0.6163 C.ar      1 <0>         0.5015
     25 N3         -3.6910    3.4986    1.4806 N.ar      1 <0>        -0.5890
     26 C20        -3.2828    2.7482    2.4909 C.ar      1 <0>         0.3723
     27 N4         -2.0187    2.4733    2.7099 N.ar      1 <0>        -0.5672
     28 N5         -3.2714    4.8066   -0.4322 N.pl3     1 <0>        -0.6413
     29 C21        -4.6269    5.1462   -0.5324 C.ar      1 <0>         0.1713
     30 C22        -5.5908    4.1480   -0.6043 C.ar      1 <0>        -0.0138
     31 C23        -6.9287    4.4835   -0.6963 C.ar      1 <0>        -0.0868
     32 C24        -7.3118    5.8118   -0.7302 C.ar      1 <0>        -0.0893
     33 C25        -6.3565    6.8144   -0.6652 C.ar      1 <0>         0.0501
     34 C26        -5.0093    6.4829   -0.5658 C.ar      1 <0>         0.0316
     35 O4         -4.2778    7.6354   -0.5173 O.3       1 <0>        -0.3024
     36 C27        -5.1574    8.6689   -0.9986 C.3       1 <0>         0.2077
     37 O5         -6.4715    8.1749   -0.6789 O.3       1 <0>        -0.2967
     38 Cl1        -5.1153    2.4788   -0.5700 Cl        1 <0>        -0.0325
     39 H1          7.4326    6.5608    5.3766 H         1 <0>         0.1247
     40 H2          7.1092    7.0374    3.6751 H         1 <0>         0.1198
     41 H3          8.6392    6.1959    4.0968 H         1 <0>         0.1251
     42 H4          5.4086    5.3208    5.5143 H         1 <0>         0.1365
     43 H5          4.9716    5.7461    3.8247 H         1 <0>         0.1349
     44 H6          5.3914    2.9111    4.9273 H         1 <0>         0.0633
     45 H7          3.8126    3.6677    4.5254 H         1 <0>         0.1226
     46 H8          6.9863    2.4474    3.1277 H         1 <0>         0.0617
     47 H9          6.5495    2.8728    1.4380 H         1 <0>         0.1248
     48 H10         6.5668    5.2834    2.0260 H         1 <0>         0.1350
     49 H11         8.1456    4.5267    2.4279 H         1 <0>         0.1366
     50 H12         4.7510    1.5012    1.6773 H         1 <0>         0.1011
     51 H13         4.6399    1.2285    3.4493 H         1 <0>         0.0750
     52 H14         2.3872    1.1305    2.4572 H         1 <0>         0.0821
     53 H15         2.5271    2.5951    3.4877 H         1 <0>         0.0690
     54 H16         0.5969    2.0668    2.9354 H         1 <0>         0.1422
     55 H17         1.6040    4.3933   -0.5062 H         1 <0>         0.1435
     56 H18         0.9260    4.6862   -2.0334 H         1 <0>         0.0874
     57 H19         0.0655    7.5433   -1.2427 H         1 <0>         0.0903
     58 H20         1.3079    6.5354   -0.4257 H         1 <0>         0.0834
     59 H21         2.3326    8.2352   -1.9624 H         1 <0>         0.1028
     60 H22         2.7001    6.5528   -2.4731 H         1 <0>         0.0539
     61 H23         0.3189    6.6811   -5.2308 H         1 <0>         0.1103
     62 H24         1.5176    5.6403   -4.3903 H         1 <0>         0.0577
     63 H25        -0.7839    4.9277   -3.8140 H         1 <0>         0.0906
     64 H26        -1.1747    6.5895   -3.2554 H         1 <0>         0.0897
     65 H27        -4.0231    2.3437    3.1652 H         1 <0>         0.1966
     66 H28        -2.5577    5.1627   -1.1897 H         1 <0>         0.4524
     67 H29        -7.6766    3.7060   -0.7472 H         1 <0>         0.1549
     68 H30        -8.3579    6.0688   -0.8071 H         1 <0>         0.1504
     69 H31        -4.9302    9.6134   -0.4826 H         1 <0>         0.1369
     70 H32        -5.0128    8.7986   -2.0813 H         1 <0>         0.0896
     71 H33         7.4170    4.2298    4.7170 H         1 <0>         0.4406
@<TRIPOS>BOND
     1    1    2 1
     2    1   39 1
     3    1   40 1
     4    1   41 1
     5    2    7 1
     6    2    3 1
     7    2   71 1
     8    3    4 1
     9    3   42 1
    10    3   43 1
    11    4    5 1
    12    4   44 1
    13    4   45 1
    14    5    6 1
    15    5    8 1
    16    6    7 1
    17    6   46 1
    18    6   47 1
    19    7   48 1
    20    7   49 1
    21    8    9 1
    22    8   50 1
    23    8   51 1
    24    9   10 1
    25    9   52 1
    26    9   53 1
    27   10   11 1
    28   11   16 ar
    29   11   12 ar
    30   12   13 ar
    31   12   54 1
    32   13   27 ar
    33   13   14 ar
    34   14   15 ar
    35   14   24 ar
    36   15   16 ar
    37   15   17 1
    38   16   55 1
    39   17   18 1
    40   18   23 1
    41   18   19 1
    42   18   56 1
    43   19   20 1
    44   19   57 1
    45   19   58 1
    46   20   21 1
    47   20   59 1
    48   20   60 1
    49   21   22 1
    50   22   23 1
    51   22   61 1
    52   22   62 1
    53   23   63 1
    54   23   64 1
    55   24   25 ar
    56   24   28 1
    57   25   26 ar
    58   26   27 ar
    59   26   65 1
    60   28   29 1
    61   28   66 1
    62   29   34 ar
    63   29   30 ar
    64   30   31 ar
    65   30   38 1
    66   31   32 ar
    67   31   67 1
    68   32   33 ar
    69   32   68 1
    70   33   37 1
    71   33   34 ar
    72   34   35 1
    73   35   36 1
    74   36   37 1
    75   36   69 1
    76   36   70 1
@<TRIPOS>MOLECULE
ZINC24811973
   71    76     0     0     0
SMALL
USER_CHARGES
N-(5-chloro-1,3-benzodioxol-4-yl)-7-[2-(4-methylpiperazin-1-yl)ethoxy]-5-tetrahydropyran-4-yloxy-quinazolin-4-amine
@<TRIPOS>ATOM
      1 C1          7.5655    6.2744    4.3229 C.3       1 <0>         0.0170
      2 N1          6.9185    4.9776    4.0827 N.3       1 <0>        -0.5430
      3 C2          5.4989    5.0194    4.4603 C.3       1 <0>         0.0239
      4 C3          4.8821    3.6316    4.2705 C.3       1 <0>        -0.0046
      5 N2          5.0395    3.2159    2.8697 N.4       1 <0>        -0.4045
      6 C4          6.4591    3.1741    2.4921 C.3       1 <0>         0.0008
      7 C5          7.0759    4.5619    2.6820 C.3       1 <0>         0.0231
      8 C6          4.3925    1.9191    2.6296 C.3       1 <0>         0.0022
      9 C7          2.8759    2.1102    2.5640 C.3       1 <0>         0.0216
     10 O1          2.5474    2.9314    1.4415 O.3       1 <0>        -0.3251
     11 C8          1.2320    3.2001    1.2382 C.ar      1 <0>         0.2059
     12 C9          0.2891    2.6820    2.1028 C.ar      1 <0>        -0.2460
     13 C10        -1.0666    2.9521    1.8929 C.ar      1 <0>         0.2625
     14 C11        -1.4550    3.7658    0.7994 C.ar      1 <0>        -0.2415
     15 C12        -0.4786    4.2833   -0.0680 C.ar      1 <0>         0.2396
     16 C13         0.8507    3.9969    0.1584 C.ar      1 <0>        -0.2718
     17 O2         -0.8412    5.0596   -1.1206 O.3       1 <0>        -0.3174
     18 C14         0.2045    5.5149   -1.9816 C.3       1 <0>         0.0868
     19 C15         0.8408    6.7773   -1.3918 C.3       1 <0>        -0.1825
     20 C16         1.9040    7.3033   -2.3597 C.3       1 <0>         0.0637
     21 O3          1.3058    7.5588   -3.6321 O.3       1 <0>        -0.3736
     22 C17         0.7375    6.4035   -4.2522 C.3       1 <0>         0.0637
     23 C18        -0.3741    5.8427   -3.3615 C.3       1 <0>        -0.1592
     24 C19        -2.8318    4.0257    0.6163 C.ar      1 <0>         0.5024
     25 N3         -3.6910    3.4986    1.4806 N.ar      1 <0>        -0.5847
     26 C20        -3.2828    2.7482    2.4909 C.ar      1 <0>         0.3779
     27 N4         -2.0187    2.4733    2.7099 N.ar      1 <0>        -0.5668
     28 N5         -3.2714    4.8066   -0.4322 N.pl3     1 <0>        -0.6379
     29 C21        -4.6269    5.1462   -0.5324 C.ar      1 <0>         0.1670
     30 C22        -5.5908    4.1480   -0.6043 C.ar      1 <0>        -0.0135
     31 C23        -6.9287    4.4835   -0.6963 C.ar      1 <0>        -0.0861
     32 C24        -7.3118    5.8118   -0.7302 C.ar      1 <0>        -0.0874
     33 C25        -6.3565    6.8144   -0.6652 C.ar      1 <0>         0.0512
     34 C26        -5.0093    6.4829   -0.5658 C.ar      1 <0>         0.0329
     35 O4         -4.2778    7.6354   -0.5173 O.3       1 <0>        -0.3029
     36 C27        -5.1574    8.6689   -0.9986 C.3       1 <0>         0.2078
     37 O5         -6.4715    8.1749   -0.6789 O.3       1 <0>        -0.2957
     38 Cl1        -5.1153    2.4788   -0.5700 Cl        1 <0>        -0.0332
     39 H1          7.4326    6.5608    5.3766 H         1 <0>         0.0847
     40 H2          7.1092    7.0374    3.6751 H         1 <0>         0.0397
     41 H3          8.6392    6.1959    4.0968 H         1 <0>         0.0853
     42 H4          5.4086    5.3208    5.5143 H         1 <0>         0.1247
     43 H5          4.9716    5.7461    3.8247 H         1 <0>         0.0605
     44 H6          5.3914    2.9111    4.9273 H         1 <0>         0.1387
     45 H7          3.8126    3.6677    4.5254 H         1 <0>         0.1343
     46 H8          6.9863    2.4474    3.1277 H         1 <0>         0.1371
     47 H9          6.5495    2.8728    1.4380 H         1 <0>         0.1373
     48 H10         6.5668    5.2834    2.0260 H         1 <0>         0.0606
     49 H11         8.1456    4.5267    2.4279 H         1 <0>         0.1249
     50 H12         4.7510    1.5012    1.6773 H         1 <0>         0.1442
     51 H13         4.6399    1.2285    3.4493 H         1 <0>         0.1512
     52 H14         2.3872    1.1305    2.4572 H         1 <0>         0.1174
     53 H15         2.5271    2.5951    3.4877 H         1 <0>         0.0921
     54 H16         0.5969    2.0668    2.9354 H         1 <0>         0.1449
     55 H17         1.6040    4.3933   -0.5062 H         1 <0>         0.1457
     56 H18         0.9260    4.6862   -2.0334 H         1 <0>         0.0870
     57 H19         0.0655    7.5433   -1.2427 H         1 <0>         0.0923
     58 H20         1.3079    6.5354   -0.4257 H         1 <0>         0.0820
     59 H21         2.3326    8.2352   -1.9624 H         1 <0>         0.1045
     60 H22         2.7001    6.5528   -2.4731 H         1 <0>         0.0533
     61 H23         0.3189    6.6811   -5.2308 H         1 <0>         0.1117
     62 H24         1.5176    5.6403   -4.3903 H         1 <0>         0.0578
     63 H25        -0.7839    4.9277   -3.8140 H         1 <0>         0.0914
     64 H26        -1.1747    6.5895   -3.2554 H         1 <0>         0.0911
     65 H27        -4.0231    2.3437    3.1652 H         1 <0>         0.1996
     66 H28        -2.5577    5.1627   -1.1897 H         1 <0>         0.4528
     67 H29        -7.6766    3.7060   -0.7472 H         1 <0>         0.1558
     68 H30        -8.3579    6.0688   -0.8071 H         1 <0>         0.1515
     69 H31        -4.9302    9.6134   -0.4826 H         1 <0>         0.1379
     70 H32        -5.0128    8.7986   -2.0813 H         1 <0>         0.0905
     71 H33         4.5411    3.9636    2.2353 H         1 <0>         0.4448
@<TRIPOS>BOND
     1    1    2 1
     2    1   39 1
     3    1   40 1
     4    1   41 1
     5    2    7 1
     6    2    3 1
     7    3    4 1
     8    3   42 1
     9    3   43 1
    10    4    5 1
    11    4   44 1
    12    4   45 1
    13    5    6 1
    14    5    8 1
    15    5   71 1
    16    6    7 1
    17    6   46 1
    18    6   47 1
    19    7   48 1
    20    7   49 1
    21    8    9 1
    22    8   50 1
    23    8   51 1
    24    9   10 1
    25    9   52 1
    26    9   53 1
    27   10   11 1
    28   11   16 ar
    29   11   12 ar
    30   12   13 ar
    31   12   54 1
    32   13   27 ar
    33   13   14 ar
    34   14   15 ar
    35   14   24 ar
    36   15   16 ar
    37   15   17 1
    38   16   55 1
    39   17   18 1
    40   18   23 1
    41   18   19 1
    42   18   56 1
    43   19   20 1
    44   19   57 1
    45   19   58 1
    46   20   21 1
    47   20   59 1
    48   20   60 1
    49   21   22 1
    50   22   23 1
    51   22   61 1
    52   22   62 1
    53   23   63 1
    54   23   64 1
    55   24   25 ar
    56   24   28 1
    57   25   26 ar
    58   26   27 ar
    59   26   65 1
    60   28   29 1
    61   28   66 1
    62   29   34 ar
    63   29   30 ar
    64   30   31 ar
    65   30   38 1
    66   31   32 ar
    67   31   67 1
    68   32   33 ar
    69   32   68 1
    70   33   37 1
    71   33   34 ar
    72   34   35 1
    73   35   36 1
    74   36   37 1
    75   36   69 1
    76   36   70 1
@<TRIPOS>MOLECULE
ZINC24811973
   70    75     0     0     0
SMALL
USER_CHARGES
N-(5-chloro-1,3-benzodioxol-4-yl)-7-[2-(4-methylpiperazin-1-yl)ethoxy]-5-tetrahydropyran-4-yloxy-quinazolin-4-amine
@<TRIPOS>ATOM
      1 C1          7.5655    6.2744    4.3229 C.3       1 <0>         0.0226
      2 N1          6.9185    4.9776    4.0827 N.3       1 <0>        -0.5457
      3 C2          5.4989    5.0194    4.4603 C.3       1 <0>         0.0556
      4 C3          4.8821    3.6316    4.2705 C.3       1 <0>         0.0522
      5 N2          5.0395    3.2159    2.8697 N.3       1 <0>        -0.5333
      6 C4          6.4591    3.1741    2.4921 C.3       1 <0>         0.0571
      7 C5          7.0759    4.5619    2.6820 C.3       1 <0>         0.0553
      8 C6          4.3925    1.9191    2.6296 C.3       1 <0>         0.0535
      9 C7          2.8759    2.1102    2.5640 C.3       1 <0>         0.0608
     10 O1          2.5474    2.9314    1.4415 O.3       1 <0>        -0.2892
     11 C8          1.2320    3.2001    1.2382 C.ar      1 <0>         0.2205
     12 C9          0.2891    2.6820    2.1028 C.ar      1 <0>        -0.2568
     13 C10        -1.0666    2.9521    1.8929 C.ar      1 <0>         0.2601
     14 C11        -1.4550    3.7658    0.7994 C.ar      1 <0>        -0.2438
     15 C12        -0.4786    4.2833   -0.0680 C.ar      1 <0>         0.2247
     16 C13         0.8507    3.9969    0.1584 C.ar      1 <0>        -0.2620
     17 O2         -0.8412    5.0596   -1.1206 O.3       1 <0>        -0.3213
     18 C14         0.2045    5.5149   -1.9816 C.3       1 <0>         0.0860
     19 C15         0.8408    6.7773   -1.3918 C.3       1 <0>        -0.1829
     20 C16         1.9040    7.3033   -2.3597 C.3       1 <0>         0.0632
     21 O3          1.3058    7.5588   -3.6321 O.3       1 <0>        -0.3771
     22 C17         0.7375    6.4035   -4.2522 C.3       1 <0>         0.0639
     23 C18        -0.3741    5.8427   -3.3615 C.3       1 <0>        -0.1562
     24 C19        -2.8318    4.0257    0.6163 C.ar      1 <0>         0.5004
     25 N3         -3.6910    3.4986    1.4806 N.ar      1 <0>        -0.5929
     26 C20        -3.2828    2.7482    2.4909 C.ar      1 <0>         0.3659
     27 N4         -2.0187    2.4733    2.7099 N.ar      1 <0>        -0.5638
     28 N5         -3.2714    4.8066   -0.4322 N.pl3     1 <0>        -0.6450
     29 C21        -4.6269    5.1462   -0.5324 C.ar      1 <0>         0.1769
     30 C22        -5.5908    4.1480   -0.6043 C.ar      1 <0>        -0.0142
     31 C23        -6.9287    4.4835   -0.6963 C.ar      1 <0>        -0.0884
     32 C24        -7.3118    5.8118   -0.7302 C.ar      1 <0>        -0.0924
     33 C25        -6.3565    6.8144   -0.6652 C.ar      1 <0>         0.0485
     34 C26        -5.0093    6.4829   -0.5658 C.ar      1 <0>         0.0310
     35 O4         -4.2778    7.6354   -0.5173 O.3       1 <0>        -0.3005
     36 C27        -5.1574    8.6689   -0.9986 C.3       1 <0>         0.2076
     37 O5         -6.4715    8.1749   -0.6789 O.3       1 <0>        -0.2984
     38 Cl1        -5.1153    2.4788   -0.5700 Cl        1 <0>        -0.0322
     39 H1          7.4326    6.5608    5.3766 H         1 <0>         0.0697
     40 H2          7.1092    7.0374    3.6751 H         1 <0>         0.0269
     41 H3          8.6392    6.1959    4.0968 H         1 <0>         0.0702
     42 H4          5.4086    5.3208    5.5143 H         1 <0>         0.0806
     43 H5          4.9716    5.7461    3.8247 H         1 <0>         0.0432
     44 H6          5.3914    2.9111    4.9273 H         1 <0>         0.0453
     45 H7          3.8126    3.6677    4.5254 H         1 <0>         0.0800
     46 H8          6.9863    2.4474    3.1277 H         1 <0>         0.0439
     47 H9          6.5495    2.8728    1.4380 H         1 <0>         0.0822
     48 H10         6.5668    5.2834    2.0260 H         1 <0>         0.0435
     49 H11         8.1456    4.5267    2.4279 H         1 <0>         0.0809
     50 H12         4.7510    1.5012    1.6773 H         1 <0>         0.0884
     51 H13         4.6399    1.2285    3.4493 H         1 <0>         0.0645
     52 H14         2.3872    1.1305    2.4572 H         1 <0>         0.0740
     53 H15         2.5271    2.5951    3.4877 H         1 <0>         0.0694
     54 H16         0.5969    2.0668    2.9354 H         1 <0>         0.1439
     55 H17         1.6040    4.3933   -0.5062 H         1 <0>         0.1444
     56 H18         0.9260    4.6862   -2.0334 H         1 <0>         0.0882
     57 H19         0.0655    7.5433   -1.2427 H         1 <0>         0.0888
     58 H20         1.3079    6.5354   -0.4257 H         1 <0>         0.0870
     59 H21         2.3326    8.2352   -1.9624 H         1 <0>         0.1042
     60 H22         2.7001    6.5528   -2.4731 H         1 <0>         0.0567
     61 H23         0.3189    6.6811   -5.2308 H         1 <0>         0.1074
     62 H24         1.5176    5.6403   -4.3903 H         1 <0>         0.0576
     63 H25        -0.7839    4.9277   -3.8140 H         1 <0>         0.0886
     64 H26        -1.1747    6.5895   -3.2554 H         1 <0>         0.0878
     65 H27        -4.0231    2.3437    3.1652 H         1 <0>         0.1941
     66 H28        -2.5577    5.1627   -1.1897 H         1 <0>         0.4526
     67 H29        -7.6766    3.7060   -0.7472 H         1 <0>         0.1532
     68 H30        -8.3579    6.0688   -0.8071 H         1 <0>         0.1483
     69 H31        -4.9302    9.6134   -0.4826 H         1 <0>         0.1363
     70 H32        -5.0128    8.7986   -2.0813 H         1 <0>         0.0886
@<TRIPOS>BOND
     1    1    2 1
     2    1   39 1
     3    1   40 1
     4    1   41 1
     5    2    7 1
     6    2    3 1
     7    3    4 1
     8    3   42 1
     9    3   43 1
    10    4    5 1
    11    4   44 1
    12    4   45 1
    13    5    6 1
    14    5    8 1
    15    6    7 1
    16    6   46 1
    17    6   47 1
    18    7   48 1
    19    7   49 1
    20    8    9 1
    21    8   50 1
    22    8   51 1
    23    9   10 1
    24    9   52 1
    25    9   53 1
    26   10   11 1
    27   11   16 ar
    28   11   12 ar
    29   12   13 ar
    30   12   54 1
    31   13   27 ar
    32   13   14 ar
    33   14   15 ar
    34   14   24 ar
    35   15   16 ar
    36   15   17 1
    37   16   55 1
    38   17   18 1
    39   18   23 1
    40   18   19 1
    41   18   56 1
    42   19   20 1
    43   19   57 1
    44   19   58 1
    45   20   21 1
    46   20   59 1
    47   20   60 1
    48   21   22 1
    49   22   23 1
    50   22   61 1
    51   22   62 1
    52   23   63 1
    53   23   64 1
    54   24   25 ar
    55   24   28 1
    56   25   26 ar
    57   26   27 ar
    58   26   65 1
    59   28   29 1
    60   28   66 1
    61   29   34 ar
    62   29   30 ar
    63   30   31 ar
    64   30   38 1
    65   31   32 ar
    66   31   67 1
    67   32   33 ar
    68   32   68 1
    69   33   37 1
    70   33   34 ar
    71   34   35 1
    72   35   36 1
    73   36   37 1
    74   36   69 1
    75   36   70 1
@<TRIPOS>MOLECULE
ZINC03834198
   55    58     0     0     0
SMALL
USER_CHARGES

@<TRIPOS>ATOM
      1 C1          2.2102    1.3214   -1.5438 C.3       1 <0>        -0.0473
      2 N1          2.0302   -0.1310   -1.4177 N.4       1 <0>        -0.3861
      3 C2          2.8485   -0.8135   -2.4272 C.3       1 <0>        -0.0039
      4 C3          2.6029   -2.3220   -2.3537 C.3       1 <0>        -0.1426
      5 C4          2.9828   -2.8281   -0.9591 C.3       1 <0>        -0.0980
      6 C5          2.1768   -2.0570    0.0901 C.3       1 <0>        -0.1436
      7 C6          2.4382   -0.5583   -0.0740 C.3       1 <0>        -0.0065
      8 C7          2.6653   -4.3210   -0.8526 C.3       1 <0>         0.0553
      9 O1          3.1265   -4.8175    0.4056 O.3       1 <0>        -0.2959
     10 C8          2.9210   -6.1358    0.6612 C.ar      1 <0>         0.1621
     11 C9          2.2972   -6.9233   -0.2811 C.ar      1 <0>        -0.1791
     12 C10         2.0867   -8.2816   -0.0149 C.ar      1 <0>         0.2018
     13 C11         2.5192   -8.8246    1.2204 C.ar      1 <0>        -0.1784
     14 C12         3.1508   -8.0026    2.1612 C.ar      1 <0>        -0.1424
     15 C13         3.3512   -6.6812    1.8787 C.ar      1 <0>         0.1099
     16 O2          3.9702   -5.8850    2.7909 O.3       1 <0>        -0.3030
     17 C14         4.3854   -6.4992    4.0125 C.3       1 <0>         0.0198
     18 C15         2.2930  -10.2009    1.4605 C.ar      1 <0>         0.4667
     19 N2          1.6881  -10.9114    0.5174 N.ar      1 <0>        -0.5768
     20 C16         1.3012  -10.3606   -0.6222 C.ar      1 <0>         0.3478
     21 N3          1.4842   -9.0917   -0.8996 N.ar      1 <0>        -0.5414
     22 N4          2.6915  -10.7885    2.6441 N.pl3     1 <0>        -0.6296
     23 C17         2.5831  -12.1741    2.8088 C.ar      1 <0>         0.1376
     24 C18         2.4560  -12.9987    1.6992 C.ar      1 <0>        -0.1039
     25 C19         2.3491  -14.3660    1.8644 C.ar      1 <0>        -0.0732
     26 C20         2.3685  -14.9152    3.1341 C.ar      1 <0>        -0.0857
     27 C21         2.4949  -14.0974    4.2430 C.ar      1 <0>        -0.1007
     28 C22         2.6081  -12.7284    4.0841 C.ar      1 <0>         0.0686
     29 F1          2.7372  -11.9301    5.1664 F         1 <0>        -0.1332
     30 Br1         2.2212  -16.7875    3.3546 Br        1 <0>        -0.0295
     31 H1          3.2589    1.5727   -1.3848 H         1 <0>         0.1219
     32 H2          1.9075    1.6398   -2.5414 H         1 <0>         0.1242
     33 H3          1.5979    1.8295   -0.7989 H         1 <0>         0.1242
     34 H4          2.5792   -0.4499   -3.4189 H         1 <0>         0.1343
     35 H5          3.9024   -0.6078   -2.2397 H         1 <0>         0.1306
     36 H6          1.5493   -2.5288   -2.5414 H         1 <0>         0.0934
     37 H7          3.2127   -2.8271   -3.1028 H         1 <0>         0.1176
     38 H8          4.0478   -2.6678   -0.7908 H         1 <0>         0.1030
     39 H9          1.1143   -2.2583   -0.0469 H         1 <0>         0.0893
     40 H10         2.4820   -2.3726    1.0878 H         1 <0>         0.1210
     41 H11         3.5008   -0.3580    0.0634 H         1 <0>         0.1299
     42 H12         1.8660   -0.0063    0.6716 H         1 <0>         0.1325
     43 H13         1.5883   -4.4698   -0.9292 H         1 <0>         0.0742
     44 H14         3.1645   -4.8571   -1.6597 H         1 <0>         0.0787
     45 H15         1.9724   -6.4960   -1.2182 H         1 <0>         0.1540
     46 H16         3.4818   -8.4122    3.1042 H         1 <0>         0.1414
     47 H17         4.8638   -5.7549    4.6491 H         1 <0>         0.1093
     48 H18         3.5165   -6.9116    4.5254 H         1 <0>         0.0597
     49 H19         5.0925   -7.2996    3.7947 H         1 <0>         0.0600
     50 H20         0.8133  -10.9840   -1.3569 H         1 <0>         0.2036
     51 H21         3.0467  -10.2411    3.3618 H         1 <0>         0.4241
     52 H22         2.4404  -12.5714    0.7074 H         1 <0>         0.1818
     53 H23         2.2499  -15.0072    1.0010 H         1 <0>         0.1463
     54 H24         2.5094  -14.5289    5.2329 H         1 <0>         0.1515
     55 H25         1.0589   -0.3624   -1.5626 H         1 <0>         0.4246
@<TRIPOS>BOND
     1    1    2 1
     2    1   31 1
     3    1   32 1
     4    1   33 1
     5    2    7 1
     6    2    3 1
     7    2   55 1
     8    3    4 1
     9    3   34 1
    10    3   35 1
    11    4    5 1
    12    4   36 1
    13    4   37 1
    14    5    6 1
    15    5    8 1
    16    5   38 1
    17    6    7 1
    18    6   39 1
    19    6   40 1
    20    7   41 1
    21    7   42 1
    22    8    9 1
    23    8   43 1
    24    8   44 1
    25    9   10 1
    26   10   15 ar
    27   10   11 ar
    28   11   12 ar
    29   11   45 1
    30   12   21 ar
    31   12   13 ar
    32   13   14 ar
    33   13   18 ar
    34   14   15 ar
    35   14   46 1
    36   15   16 1
    37   16   17 1
    38   17   47 1
    39   17   48 1
    40   17   49 1
    41   18   19 ar
    42   18   22 1
    43   19   20 ar
    44   20   21 ar
    45   20   50 1
    46   22   23 1
    47   22   51 1
    48   23   28 ar
    49   23   24 ar
    50   24   25 ar
    51   24   52 1
    52   25   26 ar
    53   25   53 1
    54   26   27 ar
    55   26   30 1
    56   27   28 ar
    57   27   54 1
    58   28   29 1
@<TRIPOS>MOLECULE
ZINC28950516
   42    44     0     0     0
SMALL
USER_CHARGES
3-[[4-(5-hydroxy-2-methyl-anilino)pyrimidin-2-yl]amino]benzamide
@<TRIPOS>ATOM
      1 C1          3.6524   -0.4211   -1.5409 C.3       1 <0>        -0.1074
      2 C2          3.0901    0.7261   -0.7416 C.ar      1 <0>        -0.1228
      3 C3          2.4361    0.4819    0.4506 C.ar      1 <0>        -0.0695
      4 C4          1.9244    1.5320    1.1887 C.ar      1 <0>        -0.1528
      5 C5          2.0567    2.8352    0.7292 C.ar      1 <0>         0.1617
      6 C6          2.7120    3.0845   -0.4660 C.ar      1 <0>        -0.2087
      7 C7          3.2302    2.0287   -1.2038 C.ar      1 <0>         0.1818
      8 N1          3.8915    2.2760   -2.4102 N.pl3     1 <0>        -0.6774
      9 C8          3.2239    2.1086   -3.6137 C.ar      1 <0>         0.4855
     10 C9          1.8844    1.7129   -3.6319 C.ar      1 <0>        -0.3312
     11 C10         1.2584    1.5627   -4.8538 C.ar      1 <0>         0.2109
     12 N2          1.9439    1.7874   -5.9653 N.ar      1 <0>        -0.5937
     13 C11         3.2151    2.1574   -5.9184 C.ar      1 <0>         0.5994
     14 N3          3.8505    2.3170   -4.7671 N.ar      1 <0>        -0.6176
     15 N4          3.8970    2.3826   -7.1029 N.pl3     1 <0>        -0.6526
     16 C12         3.2808    2.1073   -8.3277 C.ar      1 <0>         0.1706
     17 C13         2.4061    1.0327   -8.4397 C.ar      1 <0>        -0.0892
     18 C14         1.7909    0.7594   -9.6468 C.ar      1 <0>        -0.1066
     19 C15         2.0490    1.5452  -10.7518 C.ar      1 <0>        -0.1075
     20 C16         2.9297    2.6233  -10.6512 C.ar      1 <0>        -0.1168
     21 C17         3.5466    2.9025   -9.4317 C.ar      1 <0>        -0.0935
     22 C18         3.2083    3.4663  -11.8335 C.2       1 <0>         0.5644
     23 O1          3.9760    4.4045  -11.7438 O.2       1 <0>        -0.5491
     24 N5          2.6110    3.1946  -13.0108 N.am      1 <0>        -0.8731
     25 O2          1.5488    3.8665    1.4540 O.3       1 <0>        -0.5082
     26 H1          3.4452   -1.3674   -1.0197 H         1 <0>         0.0667
     27 H2          4.7394   -0.2934   -1.6508 H         1 <0>         0.0669
     28 H3          3.1829   -0.4399   -2.5355 H         1 <0>         0.0652
     29 H4          2.3281   -0.5314    0.8084 H         1 <0>         0.1347
     30 H5          1.4172    1.3382    2.1223 H         1 <0>         0.1327
     31 H6          2.8198    4.0981   -0.8228 H         1 <0>         0.1300
     32 H7          4.9416    2.6034   -2.4047 H         1 <0>         0.4392
     33 H8          1.3494    1.5317   -2.7114 H         1 <0>         0.1382
     34 H9          0.2225    1.2614   -4.9030 H         1 <0>         0.1668
     35 H10         4.9232    2.7780   -7.0801 H         1 <0>         0.4501
     36 H11         2.2034    0.4118   -7.5796 H         1 <0>         0.1381
     37 H12         1.1093   -0.0746   -9.7268 H         1 <0>         0.1313
     38 H13         1.5697    1.3256  -11.6943 H         1 <0>         0.1256
     39 H14         4.2293    3.7351   -9.3479 H         1 <0>         0.1369
     40 H15         2.8183    3.8218  -13.8904 H         1 <0>         0.4265
     41 H16         1.9162    2.3457  -13.0921 H         1 <0>         0.4189
     42 H17         1.6538    4.8991    1.0896 H         1 <0>         0.4358
@<TRIPOS>BOND
     1    1    2 1
     2    1   26 1
     3    1   27 1
     4    1   28 1
     5    2    7 ar
     6    2    3 ar
     7    3    4 ar
     8    3   29 1
     9    4    5 ar
    10    4   30 1
    11    5    6 ar
    12    5   25 1
    13    6    7 ar
    14    6   31 1
    15    7    8 1
    16    8    9 1
    17    8   32 1
    18    9   14 ar
    19    9   10 ar
    20   10   11 ar
    21   10   33 1
    22   11   12 ar
    23   11   34 1
    24   12   13 ar
    25   13   14 ar
    26   13   15 1
    27   15   16 1
    28   15   35 1
    29   16   21 ar
    30   16   17 ar
    31   17   18 ar
    32   17   36 1
    33   18   19 ar
    34   18   37 1
    35   19   20 ar
    36   19   38 1
    37   20   21 ar
    38   20   22 1
    39   21   39 1
    40   22   23 2
    41   22   24 am
    42   24   40 1
    43   24   41 1
    44   25   42 1
@<TRIPOS>MOLECULE
ZINC18825334
   48    52     0     0     0
SMALL
USER_CHARGES
4-[[9-chloro-7-(2,6-difluorophenyl)-5H-pyrimido[5,4-d][2]benzazepin-2-yl]amino]benzoic acid
@<TRIPOS>ATOM
      1 C1          2.2776    0.3903   -0.5698 C.ar      1 <0>        -0.0509
      2 C2          1.1421    1.1799   -0.5633 C.ar      1 <0>        -0.1622
      3 C3         -0.1043    0.6031   -0.4066 C.ar      1 <0>         0.1578
      4 C4         -0.2153   -0.7818   -0.2549 C.ar      1 <0>        -0.1229
      5 C5          0.9369   -1.5728   -0.2630 C.ar      1 <0>         0.1499
      6 C6          2.1761   -0.9809   -0.4208 C.ar      1 <0>        -0.1633
      7 F1          0.8397   -2.9124   -0.1175 F         1 <0>        -0.1231
      8 C7         -1.5453   -1.4071   -0.0861 C.2       1 <0>         0.2536
      9 N1         -2.1650   -1.7678   -1.1512 N.2       1 <0>        -0.4634
     10 C8         -3.4819   -2.3942   -1.1195 C.3       1 <0>         0.0964
     11 C9         -4.4898   -1.4068   -0.6038 C.ar      1 <0>        -0.2574
     12 C10        -5.5098   -0.9746   -1.4374 C.ar      1 <0>         0.2162
     13 N2         -6.3794   -0.0861   -0.9844 N.ar      1 <0>        -0.5366
     14 C11        -6.2835    0.3896    0.2490 C.ar      1 <0>         0.5701
     15 N3         -5.3286   -0.0031    1.0745 N.ar      1 <0>        -0.5552
     16 C12        -4.4183   -0.9022    0.6848 C.ar      1 <0>         0.2552
     17 C13        -3.3769   -1.3202    1.6484 C.ar      1 <0>        -0.0142
     18 C14        -2.0497   -1.5581    1.2881 C.ar      1 <0>        -0.0587
     19 C15        -1.1358   -1.9616    2.2712 C.ar      1 <0>        -0.0846
     20 C16        -1.5377   -2.1181    3.5805 C.ar      1 <0>        -0.0213
     21 C17        -2.8549   -1.8776    3.9370 C.ar      1 <0>        -0.0981
     22 C18        -3.7670   -1.4826    2.9833 C.ar      1 <0>        -0.0636
     23 Cl1        -0.3917   -2.6181    4.7848 Cl        1 <0>        -0.0577
     24 N4         -7.2095    1.3241    0.6851 N.pl3     1 <0>        -0.6261
     25 C19        -8.1519    1.8366   -0.2021 C.ar      1 <0>         0.1418
     26 C20        -9.4292    2.1564    0.2498 C.ar      1 <0>        -0.1598
     27 C21       -10.3616    2.6678   -0.6235 C.ar      1 <0>        -0.0590
     28 C22       -10.0281    2.8564   -1.9684 C.ar      1 <0>        -0.1232
     29 C23        -8.7457    2.5290   -2.4200 C.ar      1 <0>        -0.0681
     30 C24        -7.8166    2.0227   -1.5403 C.ar      1 <0>        -0.1261
     31 C25       -11.0259    3.3995   -2.9077 C.2       1 <0>         0.4893
     32 O1        -10.7345    3.5633   -4.0760 O.co2     1 <0>        -0.6323
     33 F2         -1.2128    1.3755   -0.4056 F         1 <0>        -0.1209
     34 H1          3.2486    0.8468   -0.6927 H         1 <0>         0.1483
     35 H2          1.2295    2.2500   -0.6806 H         1 <0>         0.1486
     36 H3          3.0673   -1.5909   -0.4273 H         1 <0>         0.1485
     37 H4         -3.4574   -3.2644   -0.4636 H         1 <0>         0.0791
     38 H5         -3.7607   -2.7058   -2.1261 H         1 <0>         0.1121
     39 H6         -5.5938   -1.3585   -2.4434 H         1 <0>         0.1778
     40 H7         -0.1076   -2.1514    2.0006 H         1 <0>         0.1393
     41 H8         -3.1667   -1.9996    4.9638 H         1 <0>         0.1452
     42 H9         -4.7921   -1.2962    3.2678 H         1 <0>         0.1468
     43 H10        -7.2009    1.6210    1.6085 H         1 <0>         0.4210
     44 H11        -9.6873    2.0066    1.2877 H         1 <0>         0.1185
     45 H12       -11.3510    2.9199   -0.2713 H         1 <0>         0.1349
     46 H13        -8.4848    2.6738   -3.4580 H         1 <0>         0.1294
     47 H14        -6.8261    1.7696   -1.8885 H         1 <0>         0.1253
     48 O2        -12.2611    3.7145   -2.4709 O.co2     1 <0>        -0.7564
@<TRIPOS>BOND
     1    1    6 ar
     2    1    2 ar
     3    1   34 1
     4    2    3 ar
     5    2   35 1
     6    3    4 ar
     7    3   33 1
     8    4    5 ar
     9    4    8 1
    10    5    6 ar
    11    5    7 1
    12    6   36 1
    13    8   18 1
    14    8    9 2
    15    9   10 1
    16   10   11 1
    17   10   37 1
    18   10   38 1
    19   11   16 ar
    20   11   12 ar
    21   12   13 ar
    22   12   39 1
    23   13   14 ar
    24   14   15 ar
    25   14   24 1
    26   15   16 ar
    27   16   17 1
    28   17   22 ar
    29   17   18 ar
    30   18   19 ar
    31   19   20 ar
    32   19   40 1
    33   20   21 ar
    34   20   23 1
    35   21   22 ar
    36   21   41 1
    37   22   42 1
    38   24   25 1
    39   24   43 1
    40   25   30 ar
    41   25   26 ar
    42   26   27 ar
    43   26   44 1
    44   27   28 ar
    45   27   45 1
    46   28   29 ar
    47   28   31 1
    48   29   30 ar
    49   29   46 1
    50   30   47 1
    51   31   32 2
    52   31   48 1
@<TRIPOS>MOLECULE
ZINC02576349
   43    46     0     0     0
SMALL
USER_CHARGES
7-(1-naphthyl)-9-tert-butyl-2,4,8,9-tetrazabicyclo[4.3.0]nona-1,3,5,7-tetraen-5-amine
@<TRIPOS>ATOM
      1 C1         -2.2648    1.4156   -1.1798 C.3       1 <0>        -0.1444
      2 C2         -1.0921    2.2875   -0.7266 C.3       1 <0>         0.1895
      3 C3         -1.4339    2.9467    0.6111 C.3       1 <0>        -0.1619
      4 C4         -0.8260    3.3695   -1.7751 C.3       1 <0>        -0.1623
      5 N1          0.1032    1.4552   -0.5696 N.pl3     1 <0>        -0.3674
      6 C5          1.3308    1.9052   -0.1828 C.ar      1 <0>         0.3804
      7 C6          2.1889    0.7898   -0.1661 C.ar      1 <0>        -0.3265
      8 C7          1.3808   -0.3606   -0.5722 C.2       1 <0>         0.1648
      9 N2          0.1635    0.0765   -0.7990 N.2       1 <0>        -0.2277
     10 C8          1.8488   -1.7584   -0.7026 C.ar      1 <0>        -0.0125
     11 C9          2.9319   -2.0612   -1.5103 C.ar      1 <0>        -0.0976
     12 C10         3.3811   -3.3708   -1.6324 C.ar      1 <0>        -0.1175
     13 C11         2.7643   -4.3918   -0.9743 C.ar      1 <0>        -0.0881
     14 C12         1.6574   -4.1307   -0.1487 C.ar      1 <0>        -0.0497
     15 C13         1.1904   -2.8012   -0.0075 C.ar      1 <0>        -0.0279
     16 C14         0.0864   -2.5419    0.8173 C.ar      1 <0>        -0.1006
     17 C15        -0.5230   -3.5696    1.4714 C.ar      1 <0>        -0.1104
     18 C16        -0.0653   -4.8782    1.3334 C.ar      1 <0>        -0.1109
     19 C17         1.0037   -5.1664    0.5416 C.ar      1 <0>        -0.1058
     20 C18         3.5302    0.9803    0.2031 C.ar      1 <0>         0.5194
     21 N3          3.9291    2.2083    0.5206 N.ar      1 <0>        -0.6077
     22 C19         3.0891    3.2274    0.4913 C.ar      1 <0>         0.3852
     23 N4          1.8252    3.0965    0.1525 N.ar      1 <0>        -0.5722
     24 N5          4.4132   -0.0817    0.2360 N.pl3     1 <0>        -0.8244
     25 H1         -2.4544    0.6447   -0.4329 H         1 <0>         0.0672
     26 H2         -3.1541    2.0348   -1.2967 H         1 <0>         0.0758
     27 H3         -2.0213    0.9459   -2.1329 H         1 <0>         0.0677
     28 H4         -0.5984    3.5679    0.9340 H         1 <0>         0.0772
     29 H5         -2.3232    3.5660    0.4943 H         1 <0>         0.0800
     30 H6         -1.6235    2.1759    1.3581 H         1 <0>         0.0594
     31 H7         -0.5825    2.8999   -2.7281 H         1 <0>         0.0596
     32 H8         -1.7154    3.9888   -1.8919 H         1 <0>         0.0799
     33 H9          0.0094    3.9907   -1.4522 H         1 <0>         0.0773
     34 H10         3.4359   -1.2709   -2.0469 H         1 <0>         0.1296
     35 H11         4.2309   -3.5835   -2.2641 H         1 <0>         0.1329
     36 H12         3.1262   -5.4030   -1.0874 H         1 <0>         0.1333
     37 H13        -0.2792   -1.5323    0.9330 H         1 <0>         0.1262
     38 H14        -1.3729   -3.3671    2.1063 H         1 <0>         0.1247
     39 H15        -0.5658   -5.6756    1.8626 H         1 <0>         0.1263
     40 H16         1.3482   -6.1854    0.4444 H         1 <0>         0.1313
     41 H17         3.4552    4.2081    0.7568 H         1 <0>         0.2041
     42 H18         4.0875   -0.9872    0.1138 H         1 <0>         0.4127
     43 H19         5.3589    0.0781    0.3813 H         1 <0>         0.4111
@<TRIPOS>BOND
     1    1    2 1
     2    1   25 1
     3    1   26 1
     4    1   27 1
     5    2    3 1
     6    2    4 1
     7    2    5 1
     8    3   28 1
     9    3   29 1
    10    3   30 1
    11    4   31 1
    12    4   32 1
    13    4   33 1
    14    5    9 1
    15    5    6 1
    16    6   23 ar
    17    6    7 ar
    18    7    8 1
    19    7   20 ar
    20    8    9 2
    21    8   10 1
    22   10   15 ar
    23   10   11 ar
    24   11   12 ar
    25   11   34 1
    26   12   13 ar
    27   12   35 1
    28   13   14 ar
    29   13   36 1
    30   14   19 ar
    31   14   15 ar
    32   15   16 ar
    33   16   17 ar
    34   16   37 1
    35   17   18 ar
    36   17   38 1
    37   18   19 ar
    38   18   39 1
    39   19   40 1
    40   20   21 ar
    41   20   24 1
    42   21   22 ar
    43   22   23 ar
    44   22   41 1
    45   24   42 1
    46   24   43 1
@<TRIPOS>MOLECULE
ZINC22448983
   66    69     0     0     0
SMALL
USER_CHARGES
4-[(2,4-dichloro-5-methoxy-phenyl)amino]-6-methoxy-7-[3-(4-methylpiperazin-1-yl)propoxy]quinoline-3-carbonitrile
@<TRIPOS>ATOM
      1 C1        -10.0137   -6.5102   -1.8158 C.3       1 <0>        -0.0453
      2 N1         -8.6540   -6.0169   -1.5593 N.4       1 <0>        -0.4030
      3 C2         -7.7903   -6.2205   -2.7307 C.3       1 <0>        -0.0001
      4 C3         -6.3670   -5.7678   -2.3965 C.3       1 <0>         0.0245
      5 N2         -6.3862   -4.3530   -1.9994 N.3       1 <0>        -0.5385
      6 C4         -7.2499   -4.1494   -0.8281 C.3       1 <0>         0.0179
      7 C5         -8.6733   -4.6021   -1.1623 C.3       1 <0>         0.0000
      8 C6         -5.0265   -3.8597   -1.7430 C.3       1 <0>         0.0567
      9 C7         -5.0583   -2.3389   -1.5783 C.3       1 <0>        -0.1184
     10 C8         -3.6421   -1.8251   -1.3112 C.3       1 <0>         0.0518
     11 O1         -3.6719   -0.4047   -1.1574 O.3       1 <0>        -0.2957
     12 C9         -2.4875    0.2141   -0.9129 C.ar      1 <0>         0.1552
     13 C10        -1.3345   -0.5326   -0.8253 C.ar      1 <0>        -0.1775
     14 C11        -0.1099    0.1042   -0.5728 C.ar      1 <0>         0.1880
     15 C12        -0.0839    1.5107   -0.4123 C.ar      1 <0>        -0.1309
     16 C13        -1.2740    2.2476   -0.5007 C.ar      1 <0>        -0.1492
     17 C14        -2.4527    1.6062   -0.7522 C.ar      1 <0>         0.1113
     18 O2         -3.6043    2.3237   -0.8425 O.3       1 <0>        -0.3022
     19 C15        -3.5023    3.7385   -0.6693 C.3       1 <0>         0.0181
     20 C16         1.1518    2.1498   -0.1579 C.ar      1 <0>         0.3245
     21 C17         2.2996    1.3468   -0.0768 C.ar      1 <0>        -0.1668
     22 C18         2.1804   -0.0418   -0.2488 C.ar      1 <0>         0.2178
     23 N3          1.0238   -0.6069   -0.4836 N.ar      1 <0>        -0.5049
     24 C19         3.5791    1.9370    0.1785 C.1       1 <0>         0.2512
     25 N4          4.5940    2.4052    0.3811 N.1       1 <0>        -0.4037
     26 N5          1.2264    3.5186    0.0048 N.pl3     1 <0>        -0.6798
     27 C20         2.4372    4.1835   -0.2122 C.ar      1 <0>         0.1811
     28 C21         3.1043    4.7773    0.8508 C.ar      1 <0>        -0.1911
     29 C22         4.3041    5.4350    0.6325 C.ar      1 <0>         0.1715
     30 C23         4.8372    5.4992   -0.6482 C.ar      1 <0>        -0.0467
     31 C24         4.1721    4.9075   -1.7063 C.ar      1 <0>        -0.0516
     32 C25         2.9774    4.2459   -1.4914 C.ar      1 <0>        -0.0699
     33 Cl1         2.1481    3.4984   -2.8208 Cl        1 <0>        -0.0422
     34 Cl2         6.3403    6.3238   -0.9213 Cl        1 <0>        -0.0317
     35 O3          4.9590    6.0176    1.6716 O.3       1 <0>        -0.2942
     36 C26         4.4145    5.8149    2.9772 C.3       1 <0>         0.0202
     37 H1         -9.9701   -7.5691   -2.1104 H         1 <0>         0.1247
     38 H2        -10.4701   -5.9227   -2.6260 H         1 <0>         0.1201
     39 H3        -10.6190   -6.4082   -0.9030 H         1 <0>         0.1247
     40 H4         -7.7832   -7.2870   -3.0001 H         1 <0>         0.1368
     41 H5         -8.1745   -5.6313   -3.5764 H         1 <0>         0.1352
     42 H6         -5.9734   -6.3765   -1.5691 H         1 <0>         0.0623
     43 H7         -5.7253   -5.8927   -3.2811 H         1 <0>         0.1248
     44 H8         -6.8657   -4.7386    0.0176 H         1 <0>         0.0625
     45 H9         -7.2570   -3.0829   -0.5587 H         1 <0>         0.1270
     46 H10        -9.0676   -3.9944   -1.9901 H         1 <0>         0.1353
     47 H11        -9.3157   -4.4781   -0.2780 H         1 <0>         0.1365
     48 H12        -4.6368   -4.3201   -0.8231 H         1 <0>         0.0524
     49 H13        -4.3751   -4.1233   -2.5893 H         1 <0>         0.0947
     50 H14        -5.4480   -1.8786   -2.4982 H         1 <0>         0.0902
     51 H15        -5.7097   -2.0753   -0.7320 H         1 <0>         0.0766
     52 H16        -3.2525   -2.2855   -0.3913 H         1 <0>         0.0692
     53 H17        -2.9907   -2.0887   -2.1575 H         1 <0>         0.0725
     54 H18        -1.3723   -1.6047   -0.9499 H         1 <0>         0.1520
     55 H19        -1.2569    3.3205   -0.3782 H         1 <0>         0.1400
     56 H20        -4.4995    4.1926   -0.7662 H         1 <0>         0.1079
     57 H21        -2.8337    4.1546   -1.4373 H         1 <0>         0.0600
     58 H22        -3.0952    3.9573    0.3289 H         1 <0>         0.0585
     59 H23         3.0649   -0.6582   -0.1860 H         1 <0>         0.1683
     60 H24         0.3333    4.0863    0.3052 H         1 <0>         0.4433
     61 H25         2.6888    4.7264    1.8464 H         1 <0>         0.1497
     62 H26         4.5888    4.9585   -2.7013 H         1 <0>         0.1559
     63 H27         5.0369    6.3367    3.7191 H         1 <0>         0.1117
     64 H28         4.3977    4.7388    3.2044 H         1 <0>         0.0607
     65 H29         3.3898    6.2132    3.0130 H         1 <0>         0.0594
     66 H30        -8.2365   -6.5985   -0.7241 H         1 <0>         0.4406
@<TRIPOS>BOND
     1    1    2 1
     2    1   37 1
     3    1   38 1
     4    1   39 1
     5    2    7 1
     6    2    3 1
     7    2   66 1
     8    3    4 1
     9    3   40 1
    10    3   41 1
    11    4    5 1
    12    4   42 1
    13    4   43 1
    14    5    6 1
    15    5    8 1
    16    6    7 1
    17    6   44 1
    18    6   45 1
    19    7   46 1
    20    7   47 1
    21    8    9 1
    22    8   48 1
    23    8   49 1
    24    9   10 1
    25    9   50 1
    26    9   51 1
    27   10   11 1
    28   10   52 1
    29   10   53 1
    30   11   12 1
    31   12   17 ar
    32   12   13 ar
    33   13   14 ar
    34   13   54 1
    35   14   23 ar
    36   14   15 ar
    37   15   16 ar
    38   15   20 ar
    39   16   17 ar
    40   16   55 1
    41   17   18 1
    42   18   19 1
    43   19   56 1
    44   19   57 1
    45   19   58 1
    46   20   21 ar
    47   20   26 1
    48   21   22 ar
    49   21   24 1
    50   22   23 ar
    51   22   59 1
    52   24   25 3
    53   26   27 1
    54   26   60 1
    55   27   32 ar
    56   27   28 ar
    57   28   29 ar
    58   28   61 1
    59   29   30 ar
    60   29   35 1
    61   30   31 ar
    62   30   34 1
    63   31   32 ar
    64   31   62 1
    65   32   33 1
    66   35   36 1
    67   36   63 1
    68   36   64 1
    69   36   65 1
@<TRIPOS>MOLECULE
ZINC22448983
   66    69     0     0     0
SMALL
USER_CHARGES
4-[(2,4-dichloro-5-methoxy-phenyl)amino]-6-methoxy-7-[3-(4-methylpiperazin-1-yl)propoxy]quinoline-3-carbonitrile
@<TRIPOS>ATOM
      1 C1        -10.0137   -6.5102   -1.8158 C.3       1 <0>         0.0169
      2 N1         -8.6540   -6.0169   -1.5593 N.3       1 <0>        -0.5441
      3 C2         -7.7903   -6.2205   -2.7307 C.3       1 <0>         0.0228
      4 C3         -6.3670   -5.7678   -2.3965 C.3       1 <0>         0.0009
      5 N2         -6.3862   -4.3530   -1.9994 N.4       1 <0>        -0.3998
      6 C4         -7.2499   -4.1494   -0.8281 C.3       1 <0>        -0.0049
      7 C5         -8.6733   -4.6021   -1.1623 C.3       1 <0>         0.0237
      8 C6         -5.0265   -3.8597   -1.7430 C.3       1 <0>        -0.0032
      9 C7         -5.0583   -2.3389   -1.5783 C.3       1 <0>        -0.1498
     10 C8         -3.6421   -1.8251   -1.3112 C.3       1 <0>         0.0546
     11 O1         -3.6719   -0.4047   -1.1574 O.3       1 <0>        -0.2954
     12 C9         -2.4875    0.2141   -0.9129 C.ar      1 <0>         0.1508
     13 C10        -1.3345   -0.5326   -0.8253 C.ar      1 <0>        -0.1739
     14 C11        -0.1099    0.1042   -0.5728 C.ar      1 <0>         0.1865
     15 C12        -0.0839    1.5107   -0.4123 C.ar      1 <0>        -0.1289
     16 C13        -1.2740    2.2476   -0.5007 C.ar      1 <0>        -0.1461
     17 C14        -2.4527    1.6062   -0.7522 C.ar      1 <0>         0.1109
     18 O2         -3.6043    2.3237   -0.8425 O.3       1 <0>        -0.3036
     19 C15        -3.5023    3.7385   -0.6693 C.3       1 <0>         0.0176
     20 C16         1.1518    2.1498   -0.1579 C.ar      1 <0>         0.3244
     21 C17         2.2996    1.3468   -0.0768 C.ar      1 <0>        -0.1637
     22 C18         2.1804   -0.0418   -0.2488 C.ar      1 <0>         0.2201
     23 N3          1.0238   -0.6069   -0.4836 N.ar      1 <0>        -0.5059
     24 C19         3.5791    1.9370    0.1785 C.1       1 <0>         0.2491
     25 N4          4.5940    2.4052    0.3811 N.1       1 <0>        -0.4000
     26 N5          1.2264    3.5186    0.0048 N.pl3     1 <0>        -0.6785
     27 C20         2.4372    4.1835   -0.2122 C.ar      1 <0>         0.1791
     28 C21         3.1043    4.7773    0.8508 C.ar      1 <0>        -0.1908
     29 C22         4.3041    5.4350    0.6325 C.ar      1 <0>         0.1720
     30 C23         4.8372    5.4992   -0.6482 C.ar      1 <0>        -0.0462
     31 C24         4.1721    4.9075   -1.7063 C.ar      1 <0>        -0.0515
     32 C25         2.9774    4.2459   -1.4914 C.ar      1 <0>        -0.0696
     33 Cl1         2.1481    3.4984   -2.8208 Cl        1 <0>        -0.0433
     34 Cl2         6.3403    6.3238   -0.9213 Cl        1 <0>        -0.0302
     35 O3          4.9590    6.0176    1.6716 O.3       1 <0>        -0.2936
     36 C26         4.4145    5.8149    2.9772 C.3       1 <0>         0.0200
     37 H1         -9.9701   -7.5691   -2.1104 H         1 <0>         0.0846
     38 H2        -10.4701   -5.9227   -2.6260 H         1 <0>         0.0401
     39 H3        -10.6190   -6.4082   -0.9030 H         1 <0>         0.0850
     40 H4         -7.7832   -7.2870   -3.0001 H         1 <0>         0.1245
     41 H5         -8.1745   -5.6313   -3.5764 H         1 <0>         0.0612
     42 H6         -5.9734   -6.3765   -1.5691 H         1 <0>         0.1366
     43 H7         -5.7253   -5.8927   -3.2811 H         1 <0>         0.1378
     44 H8         -6.8657   -4.7386    0.0176 H         1 <0>         0.1367
     45 H9         -7.2570   -3.0829   -0.5587 H         1 <0>         0.1381
     46 H10        -9.0676   -3.9944   -1.9901 H         1 <0>         0.0613
     47 H11        -9.3157   -4.4781   -0.2780 H         1 <0>         0.1241
     48 H12        -4.6368   -4.3201   -0.8231 H         1 <0>         0.1339
     49 H13        -4.3751   -4.1233   -2.5893 H         1 <0>         0.1372
     50 H14        -5.4480   -1.8786   -2.4982 H         1 <0>         0.1006
     51 H15        -5.7097   -2.0753   -0.7320 H         1 <0>         0.0999
     52 H16        -3.2525   -2.2855   -0.3913 H         1 <0>         0.0789
     53 H17        -2.9907   -2.0887   -2.1575 H         1 <0>         0.0790
     54 H18        -1.3723   -1.6047   -0.9499 H         1 <0>         0.1517
     55 H19        -1.2569    3.3205   -0.3782 H         1 <0>         0.1413
     56 H20        -4.4995    4.1926   -0.7662 H         1 <0>         0.1090
     57 H21        -2.8337    4.1546   -1.4373 H         1 <0>         0.0608
     58 H22        -3.0952    3.9573    0.3289 H         1 <0>         0.0597
     59 H23         3.0649   -0.6582   -0.1860 H         1 <0>         0.1696
     60 H24         0.3333    4.0863    0.3052 H         1 <0>         0.4436
     61 H25         2.6888    4.7264    1.8464 H         1 <0>         0.1501
     62 H26         4.5888    4.9585   -2.7013 H         1 <0>         0.1563
     63 H27         5.0369    6.3367    3.7191 H         1 <0>         0.1123
     64 H28         4.3977    4.7388    3.2044 H         1 <0>         0.0608
     65 H29         3.3898    6.2132    3.0130 H         1 <0>         0.0596
     66 H30        -6.8037   -3.7713   -2.8345 H         1 <0>         0.4393
@<TRIPOS>BOND
     1    1    2 1
     2    1   37 1
     3    1   38 1
     4    1   39 1
     5    2    7 1
     6    2    3 1
     7    3    4 1
     8    3   40 1
     9    3   41 1
    10    4    5 1
    11    4   42 1
    12    4   43 1
    13    5    6 1
    14    5    8 1
    15    5   66 1
    16    6    7 1
    17    6   44 1
    18    6   45 1
    19    7   46 1
    20    7   47 1
    21    8    9 1
    22    8   48 1
    23    8   49 1
    24    9   10 1
    25    9   50 1
    26    9   51 1
    27   10   11 1
    28   10   52 1
    29   10   53 1
    30   11   12 1
    31   12   17 ar
    32   12   13 ar
    33   13   14 ar
    34   13   54 1
    35   14   23 ar
    36   14   15 ar
    37   15   16 ar
    38   15   20 ar
    39   16   17 ar
    40   16   55 1
    41   17   18 1
    42   18   19 1
    43   19   56 1
    44   19   57 1
    45   19   58 1
    46   20   21 ar
    47   20   26 1
    48   21   22 ar
    49   21   24 1
    50   22   23 ar
    51   22   59 1
    52   24   25 3
    53   26   27 1
    54   26   60 1
    55   27   32 ar
    56   27   28 ar
    57   28   29 ar
    58   28   61 1
    59   29   30 ar
    60   29   35 1
    61   30   31 ar
    62   30   34 1
    63   31   32 ar
    64   31   62 1
    65   32   33 1
    66   35   36 1
    67   36   63 1
    68   36   64 1
    69   36   65 1
@<TRIPOS>MOLECULE
ZINC02047275
   40    42     0     0     0
SMALL
USER_CHARGES

@<TRIPOS>ATOM
      1 C1          0.7504    1.4813   -0.5243 C.3       1 <0>        -0.1202
      2 C2          0.6799   -0.0230   -0.4691 C.ar      1 <0>        -0.0709
      3 C3         -0.5065   -0.6686   -0.7679 C.ar      1 <0>        -0.1163
      4 C4         -0.5769   -2.0460   -0.7194 C.ar      1 <0>        -0.0803
      5 C5          0.5506   -2.7869   -0.3684 C.ar      1 <0>        -0.0302
      6 C6          1.7435   -2.1308   -0.0684 C.ar      1 <0>        -0.1049
      7 C7          1.8034   -0.7533   -0.1253 C.ar      1 <0>        -0.1170
      8 C8          0.4813   -4.2668   -0.3141 C.2       1 <0>         0.1646
      9 C9          1.0233   -5.1212    0.7421 C.ar      1 <0>        -0.3256
     10 C10         1.7203   -4.8974    1.9412 C.ar      1 <0>         0.5179
     11 N1          2.0660   -5.9499    2.6758 N.ar      1 <0>        -0.6060
     12 C11         1.7644   -7.1781    2.2929 C.ar      1 <0>         0.3830
     13 N2          1.1143   -7.4354    1.1795 N.ar      1 <0>        -0.5706
     14 C12         0.7242   -6.4464    0.3753 C.ar      1 <0>         0.3781
     15 N3          0.0542   -6.3875   -0.8104 N.pl3     1 <0>        -0.3674
     16 N4         -0.0827   -5.0514   -1.2016 N.2       1 <0>        -0.2318
     17 C13        -0.4483   -7.5436   -1.5568 C.3       1 <0>         0.1893
     18 C14        -1.4481   -8.3137   -0.6918 C.3       1 <0>        -0.1621
     19 C15        -1.1417   -7.0641   -2.8336 C.3       1 <0>        -0.1441
     20 C16         0.7202   -8.4603   -1.9245 C.3       1 <0>        -0.1621
     21 N5          2.0388   -3.6157    2.3464 N.pl3     1 <0>        -0.8296
     22 H1          1.0385    1.7949   -1.5277 H         1 <0>         0.0748
     23 H2         -0.2256    1.9000   -0.2789 H         1 <0>         0.0696
     24 H3          1.4893    1.8370    0.1937 H         1 <0>         0.0697
     25 H4         -1.3795   -0.0936   -1.0393 H         1 <0>         0.1298
     26 H5         -1.5038   -2.5489   -0.9525 H         1 <0>         0.1288
     27 H6          2.6201   -2.6997    0.2042 H         1 <0>         0.1308
     28 H7          2.7281   -0.2441    0.1030 H         1 <0>         0.1308
     29 H8          2.0645   -8.0045    2.9201 H         1 <0>         0.2039
     30 H9         -2.2806   -7.6606   -0.4299 H         1 <0>         0.0595
     31 H10        -1.8220   -9.1739   -1.2472 H         1 <0>         0.0799
     32 H11        -0.9541   -8.6553    0.2178 H         1 <0>         0.0770
     33 H12        -0.4294   -6.5155   -3.4498 H         1 <0>         0.0676
     34 H13        -1.5156   -7.9243   -3.3889 H         1 <0>         0.0757
     35 H14        -1.9742   -6.4110   -2.5716 H         1 <0>         0.0673
     36 H15         1.2142   -8.8019   -1.0149 H         1 <0>         0.0770
     37 H16         0.3463   -9.3205   -2.4798 H         1 <0>         0.0799
     38 H17         1.4325   -7.9117   -2.5407 H         1 <0>         0.0596
     39 H18         1.5920   -2.8546    1.9438 H         1 <0>         0.4138
     40 H19         2.7091   -3.4768    3.0336 H         1 <0>         0.4102
@<TRIPOS>BOND
     1    1    2 1
     2    1   22 1
     3    1   23 1
     4    1   24 1
     5    2    7 ar
     6    2    3 ar
     7    3    4 ar
     8    3   25 1
     9    4    5 ar
    10    4   26 1
    11    5    6 ar
    12    5    8 1
    13    6    7 ar
    14    6   27 1
    15    7   28 1
    16    8   16 2
    17    8    9 1
    18    9   14 ar
    19    9   10 ar
    20   10   11 ar
    21   10   21 1
    22   11   12 ar
    23   12   13 ar
    24   12   29 1
    25   13   14 ar
    26   14   15 1
    27   15   16 1
    28   15   17 1
    29   17   18 1
    30   17   19 1
    31   17   20 1
    32   18   30 1
    33   18   31 1
    34   18   32 1
    35   19   33 1
    36   19   34 1
    37   19   35 1
    38   20   36 1
    39   20   37 1
    40   20   38 1
    41   21   39 1
    42   21   40 1
@<TRIPOS>MOLECULE
ZINC27439698
   59    62     0     0     0
SMALL
USER_CHARGES

@<TRIPOS>ATOM
      1 C1         -0.2063    1.0844    0.8125 C.2       1 <0>        -0.0780
      2 C2         -0.0916   -0.1284    0.2785 C.2       1 <0>        -0.2217
      3 C3          1.1892   -0.8472    0.3546 C.2       1 <0>         0.5464
      4 O1          2.1435   -0.3327    0.9059 O.2       1 <0>        -0.5301
      5 N1          1.3054   -2.0761   -0.1864 N.am      1 <0>        -0.6549
      6 C4          2.5517   -2.7129   -0.2160 C.ar      1 <0>         0.1200
      7 C5          3.7048   -1.9595   -0.1827 C.ar      1 <0>        -0.0579
      8 C6          4.9490   -2.5997   -0.2120 C.ar      1 <0>        -0.1974
      9 C7          5.0154   -4.0138   -0.2753 C.ar      1 <0>         0.2129
     10 C8          3.8313   -4.7603   -0.3083 C.ar      1 <0>        -0.1947
     11 C9          2.6164   -4.1137   -0.2734 C.ar      1 <0>         0.1622
     12 O2          1.4681   -4.8389   -0.3002 O.3       1 <0>        -0.3093
     13 C10         1.5999   -6.2606   -0.3586 C.3       1 <0>         0.0588
     14 C11         0.2106   -6.9010   -0.3813 C.3       1 <0>        -0.1156
     15 C12         0.3517   -8.4232   -0.4438 C.3       1 <0>         0.0578
     16 N2         -0.9822   -9.0382   -0.4657 N.3       1 <0>        -0.5360
     17 C13        -1.6880   -8.8108    0.8038 C.3       1 <0>         0.0125
     18 C14        -3.0921   -9.4148    0.7161 C.3       1 <0>         0.0626
     19 O3         -2.9885  -10.8047    0.3955 O.3       1 <0>        -0.3850
     20 C15        -2.3071  -11.0626   -0.8351 C.3       1 <0>         0.0628
     21 C16        -0.8951  -10.4753   -0.7631 C.3       1 <0>         0.0171
     22 N3          6.2221   -4.6015   -0.3018 N.ar      1 <0>        -0.5452
     23 C17         7.3156   -3.8777   -0.2694 C.ar      1 <0>         0.3493
     24 N4          7.3023   -2.5556   -0.2097 N.ar      1 <0>        -0.5859
     25 C18         6.1642   -1.8746   -0.1796 C.ar      1 <0>         0.4714
     26 N5          6.1650   -0.4957   -0.1182 N.pl3     1 <0>        -0.6328
     27 C19         7.3694    0.2084   -0.2227 C.ar      1 <0>         0.1581
     28 C20         7.5013    1.4536    0.3785 C.ar      1 <0>        -0.1169
     29 C21         8.6911    2.1472    0.2750 C.ar      1 <0>        -0.1176
     30 C22         9.7524    1.6027   -0.4280 C.ar      1 <0>         0.0901
     31 C23         9.6235    0.3609   -1.0292 C.ar      1 <0>        -0.0524
     32 C24         8.4363   -0.3392   -0.9225 C.ar      1 <0>        -0.0856
     33 Cl1        10.9555   -0.3188   -1.9109 Cl        1 <0>        -0.0424
     34 F1         10.9152    2.2833   -0.5284 F         1 <0>        -0.1264
     35 H1          0.6411    1.5413    1.3020 H         1 <0>         0.1166
     36 H2         -1.1456    1.6141    0.7527 H         1 <0>         0.1209
     37 H3         -0.9390   -0.5853   -0.2110 H         1 <0>         0.1323
     38 H4          0.5255   -2.5194   -0.5554 H         1 <0>         0.4201
     39 H5          3.6489   -0.8820   -0.1348 H         1 <0>         0.1596
     40 H6          3.8708   -5.8385   -0.3565 H         1 <0>         0.1517
     41 H7          2.1429   -6.5383   -1.2620 H         1 <0>         0.0720
     42 H8          2.1473   -6.6110    0.5165 H         1 <0>         0.0691
     43 H9         -0.3323   -6.6233    0.5221 H         1 <0>         0.0760
     44 H10        -0.3367   -6.5506   -1.2564 H         1 <0>         0.0860
     45 H11         0.8947   -8.7010   -1.3473 H         1 <0>         0.0821
     46 H12         0.8990   -8.7736    0.4312 H         1 <0>         0.0409
     47 H13        -1.1377   -9.2854    1.6162 H         1 <0>         0.0448
     48 H14        -1.7636   -7.7398    0.9914 H         1 <0>         0.0895
     49 H15        -3.5986   -9.2990    1.6743 H         1 <0>         0.0993
     50 H16        -3.6604   -8.9035   -0.0609 H         1 <0>         0.0609
     51 H17        -2.2459  -12.1385   -0.9988 H         1 <0>         0.1001
     52 H18        -2.8525  -10.5991   -1.6572 H         1 <0>         0.0612
     53 H19        -0.3918  -10.6192   -1.7193 H         1 <0>         0.0886
     54 H20        -0.3321  -10.9764    0.0243 H         1 <0>         0.0452
     55 H21         8.2696   -4.3834   -0.2921 H         1 <0>         0.1993
     56 H22         5.3306   -0.0149   -0.0027 H         1 <0>         0.4275
     57 H23         6.6738    1.8794    0.9265 H         1 <0>         0.1431
     58 H24         8.7936    3.1154    0.7424 H         1 <0>         0.1506
     59 H25         8.3373   -1.3092   -1.3869 H         1 <0>         0.1663
@<TRIPOS>BOND
     1    1    2 2
     2    1   35 1
     3    1   36 1
     4    2    3 1
     5    2   37 1
     6    3    4 2
     7    3    5 am
     8    5    6 1
     9    5   38 1
    10    6   11 ar
    11    6    7 ar
    12    7    8 ar
    13    7   39 1
    14    8   25 ar
    15    8    9 ar
    16    9   10 ar
    17    9   22 ar
    18   10   11 ar
    19   10   40 1
    20   11   12 1
    21   12   13 1
    22   13   14 1
    23   13   41 1
    24   13   42 1
    25   14   15 1
    26   14   43 1
    27   14   44 1
    28   15   16 1
    29   15   45 1
    30   15   46 1
    31   16   21 1
    32   16   17 1
    33   17   18 1
    34   17   47 1
    35   17   48 1
    36   18   19 1
    37   18   49 1
    38   18   50 1
    39   19   20 1
    40   20   21 1
    41   20   51 1
    42   20   52 1
    43   21   53 1
    44   21   54 1
    45   22   23 ar
    46   23   24 ar
    47   23   55 1
    48   24   25 ar
    49   25   26 1
    50   26   27 1
    51   26   56 1
    52   27   32 ar
    53   27   28 ar
    54   28   29 ar
    55   28   57 1
    56   29   30 ar
    57   29   58 1
    58   30   31 ar
    59   30   34 1
    60   31   32 ar
    61   31   33 1
    62   32   59 1
@<TRIPOS>MOLECULE
ZINC22795012
   71    76     0     0     0
SMALL
USER_CHARGES
7-[4-(4-methylpiperazin-1-yl)cyclohexyl]-5-(4-phenoxyphenyl)pyrrolo[3,2-e]pyrimidin-4-amine
@<TRIPOS>ATOM
      1 C1         11.9282   -2.9568   -1.0794 C.3       1 <0>        -0.0454
      2 N1         10.4870   -2.6854   -0.9941 N.4       1 <0>        -0.4025
      3 C2          9.7051   -3.8943   -1.2889 C.3       1 <0>         0.0002
      4 C3          8.2136   -3.5516   -1.2679 C.3       1 <0>         0.0205
      5 N2          7.8575   -3.0057    0.0492 N.3       1 <0>        -0.5326
      6 C4          8.6394   -1.7968    0.3440 C.3       1 <0>         0.0122
      7 C5         10.1309   -2.1395    0.3230 C.3       1 <0>         0.0000
      8 C6          6.4163   -2.7343    0.1345 C.3       1 <0>         0.0853
      9 C7          6.0648   -2.2867    1.5547 C.3       1 <0>        -0.1083
     10 C8          4.5638   -2.0041    1.6435 C.3       1 <0>        -0.1294
     11 C9          4.1937   -0.8975    0.6538 C.3       1 <0>         0.1406
     12 C10         4.5452   -1.3451   -0.7664 C.3       1 <0>        -0.1249
     13 C11         6.0463   -1.6278   -0.8552 C.3       1 <0>        -0.1492
     14 N3          2.7565   -0.6269    0.7388 N.pl3     1 <0>        -0.4546
     15 C12         1.7715   -1.5456    0.4947 C.2       1 <0>         0.0467
     16 C13         0.5572   -0.9666    0.6617 C.2       1 <0>        -0.0873
     17 C14         0.8090    0.4293    1.0415 C.ar      1 <0>        -0.2602
     18 C15         2.2063    0.5810    1.0730 C.ar      1 <0>         0.3479
     19 N4          2.7096    1.7718    1.3954 N.ar      1 <0>        -0.5823
     20 C16         1.9162    2.7825    1.6777 C.ar      1 <0>         0.3666
     21 N5          0.5995    2.6824    1.6598 N.ar      1 <0>        -0.6061
     22 C17         0.0041    1.5327    1.3542 C.ar      1 <0>         0.5013
     23 N6         -1.3754    1.4299    1.3426 N.pl3     1 <0>        -0.8531
     24 C18        -0.7654   -1.6154    0.4938 C.ar      1 <0>        -0.0451
     25 C19        -1.7307   -1.5028    1.4935 C.ar      1 <0>        -0.0920
     26 C20        -2.9619   -2.1030    1.3319 C.ar      1 <0>        -0.1839
     27 C21        -3.2368   -2.8275    0.1800 C.ar      1 <0>         0.1268
     28 C22        -2.2757   -2.9463   -0.8149 C.ar      1 <0>        -0.1355
     29 C23        -1.0445   -2.3440   -0.6617 C.ar      1 <0>        -0.0705
     30 O1         -4.4491   -3.4221    0.0260 O.3       1 <0>        -0.2568
     31 C24        -5.3648   -3.2701    1.0184 C.ar      1 <0>         0.0763
     32 C25        -5.4198   -4.1857    2.0596 C.ar      1 <0>        -0.1250
     33 C26        -6.3485   -4.0262    3.0696 C.ar      1 <0>        -0.1055
     34 C27        -7.2297   -2.9612    3.0383 C.ar      1 <0>        -0.1135
     35 C28        -7.1805   -2.0503    1.9992 C.ar      1 <0>        -0.1052
     36 C29        -6.2503   -2.2022    0.9894 C.ar      1 <0>        -0.1253
     37 H1         12.1665   -3.3636   -2.0732 H         1 <0>         0.1244
     38 H2         12.2101   -3.6874   -0.3069 H         1 <0>         0.1200
     39 H3         12.4872   -2.0226   -0.9220 H         1 <0>         0.1247
     40 H4          9.9807   -4.2758   -2.2831 H         1 <0>         0.1356
     41 H5          9.9167   -4.6620   -0.5300 H         1 <0>         0.1347
     42 H6          7.9981   -2.8045   -2.0460 H         1 <0>         0.0638
     43 H7          7.6256   -4.4612   -1.4600 H         1 <0>         0.1232
     44 H8          8.4278   -1.0292   -0.4149 H         1 <0>         0.0654
     45 H9          8.3638   -1.4152    1.3382 H         1 <0>         0.1269
     46 H10        10.3473   -2.8870    1.1004 H         1 <0>         0.1345
     47 H11        10.7197   -1.2303    0.5145 H         1 <0>         0.1356
     48 H12         5.8923   -3.6682   -0.1168 H         1 <0>         0.0993
     49 H13         6.3309   -3.0822    2.2663 H         1 <0>         0.0850
     50 H14         6.6252   -1.3726    1.8003 H         1 <0>         0.0697
     51 H15         4.0034   -2.9182    1.3978 H         1 <0>         0.0769
     52 H16         4.3110   -1.6824    2.6646 H         1 <0>         0.0803
     53 H17         4.7151    0.0378    0.9055 H         1 <0>         0.1074
     54 H18         3.9848   -2.2592   -1.0120 H         1 <0>         0.0766
     55 H19         4.2792   -0.5496   -1.4780 H         1 <0>         0.0767
     56 H20         6.6067   -0.7137   -0.6095 H         1 <0>         0.0721
     57 H21         6.2991   -1.9496   -1.8763 H         1 <0>         0.0721
     58 H22         1.9366   -2.5748    0.2118 H         1 <0>         0.1743
     59 H23         2.3599    3.7329    1.9351 H         1 <0>         0.1972
     60 H24        -1.9942    2.3049    1.5903 H         1 <0>         0.4289
     61 H25        -1.8535    0.4731    1.0856 H         1 <0>         0.4303
     62 H26        -1.5160   -0.9428    2.3917 H         1 <0>         0.1309
     63 H27        -3.7115   -2.0128    2.1042 H         1 <0>         0.1336
     64 H28        -2.4926   -3.5105   -1.7099 H         1 <0>         0.1374
     65 H29        -0.2971   -2.4371   -1.4358 H         1 <0>         0.1329
     66 H30        -4.7346   -5.0202    2.0822 H         1 <0>         0.1311
     67 H31        -6.3890   -4.7363    3.8824 H         1 <0>         0.1325
     68 H32        -7.9580   -2.8407    3.8267 H         1 <0>         0.1308
     69 H33        -7.8698   -1.2191    1.9773 H         1 <0>         0.1329
     70 H34        -6.2126   -1.4906    0.1778 H         1 <0>         0.1317
     71 H35        10.2413   -1.9283   -1.7533 H         1 <0>         0.4400
@<TRIPOS>BOND
     1    1    2 1
     2    1   37 1
     3    1   38 1
     4    1   39 1
     5    2    7 1
     6    2    3 1
     7    2   71 1
     8    3    4 1
     9    3   40 1
    10    3   41 1
    11    4    5 1
    12    4   42 1
    13    4   43 1
    14    5    6 1
    15    5    8 1
    16    6    7 1
    17    6   44 1
    18    6   45 1
    19    7   46 1
    20    7   47 1
    21    8   13 1
    22    8    9 1
    23    8   48 1
    24    9   10 1
    25    9   49 1
    26    9   50 1
    27   10   11 1
    28   10   51 1
    29   10   52 1
    30   11   12 1
    31   11   14 1
    32   11   53 1
    33   12   13 1
    34   12   54 1
    35   12   55 1
    36   13   56 1
    37   13   57 1
    38   14   18 1
    39   14   15 1
    40   15   16 2
    41   15   58 1
    42   16   17 1
    43   16   24 1
    44   17   22 ar
    45   17   18 ar
    46   18   19 ar
    47   19   20 ar
    48   20   21 ar
    49   20   59 1
    50   21   22 ar
    51   22   23 1
    52   23   60 1
    53   23   61 1
    54   24   29 ar
    55   24   25 ar
    56   25   26 ar
    57   25   62 1
    58   26   27 ar
    59   26   63 1
    60   27   28 ar
    61   27   30 1
    62   28   29 ar
    63   28   64 1
    64   29   65 1
    65   30   31 1
    66   31   36 ar
    67   31   32 ar
    68   32   33 ar
    69   32   66 1
    70   33   34 ar
    71   33   67 1
    72   34   35 ar
    73   34   68 1
    74   35   36 ar
    75   35   69 1
    76   36   70 1
@<TRIPOS>MOLECULE
ZINC22795012
   71    76     0     0     0
SMALL
USER_CHARGES
7-[4-(4-methylpiperazin-1-yl)cyclohexyl]-5-(4-phenoxyphenyl)pyrrolo[3,2-e]pyrimidin-4-amine
@<TRIPOS>ATOM
      1 C1         11.9282   -2.9568   -1.0794 C.3       1 <0>         0.0171
      2 N1         10.4870   -2.6854   -0.9941 N.3       1 <0>        -0.5434
      3 C2          9.7051   -3.8943   -1.2889 C.3       1 <0>         0.0244
      4 C3          8.2136   -3.5516   -1.2679 C.3       1 <0>        -0.0024
      5 N2          7.8575   -3.0057    0.0492 N.4       1 <0>        -0.3993
      6 C4          8.6394   -1.7968    0.3440 C.3       1 <0>        -0.0100
      7 C5         10.1309   -2.1395    0.3230 C.3       1 <0>         0.0252
      8 C6          6.4163   -2.7343    0.1345 C.3       1 <0>         0.0319
      9 C7          6.0648   -2.2867    1.5547 C.3       1 <0>        -0.1365
     10 C8          4.5638   -2.0041    1.6435 C.3       1 <0>        -0.1269
     11 C9          4.1937   -0.8975    0.6538 C.3       1 <0>         0.1370
     12 C10         4.5452   -1.3451   -0.7664 C.3       1 <0>        -0.1273
     13 C11         6.0463   -1.6278   -0.8552 C.3       1 <0>        -0.1361
     14 N3          2.7565   -0.6269    0.7388 N.pl3     1 <0>        -0.4573
     15 C12         1.7715   -1.5456    0.4947 C.2       1 <0>         0.0385
     16 C13         0.5572   -0.9666    0.6617 C.2       1 <0>        -0.0782
     17 C14         0.8090    0.4293    1.0415 C.ar      1 <0>        -0.2614
     18 C15         2.2063    0.5810    1.0730 C.ar      1 <0>         0.3501
     19 N4          2.7096    1.7718    1.3954 N.ar      1 <0>        -0.5839
     20 C16         1.9162    2.7825    1.6777 C.ar      1 <0>         0.3705
     21 N5          0.5995    2.6824    1.6598 N.ar      1 <0>        -0.6044
     22 C17         0.0041    1.5327    1.3542 C.ar      1 <0>         0.5026
     23 N6         -1.3754    1.4299    1.3426 N.pl3     1 <0>        -0.8517
     24 C18        -0.7654   -1.6154    0.4938 C.ar      1 <0>        -0.0499
     25 C19        -1.7307   -1.5028    1.4935 C.ar      1 <0>        -0.0912
     26 C20        -2.9619   -2.1030    1.3319 C.ar      1 <0>        -0.1840
     27 C21        -3.2368   -2.8275    0.1800 C.ar      1 <0>         0.1292
     28 C22        -2.2757   -2.9463   -0.8149 C.ar      1 <0>        -0.1358
     29 C23        -1.0445   -2.3440   -0.6617 C.ar      1 <0>        -0.0696
     30 O1         -4.4491   -3.4221    0.0260 O.3       1 <0>        -0.2560
     31 C24        -5.3648   -3.2701    1.0184 C.ar      1 <0>         0.0751
     32 C25        -5.4198   -4.1857    2.0596 C.ar      1 <0>        -0.1249
     33 C26        -6.3485   -4.0262    3.0696 C.ar      1 <0>        -0.1055
     34 C27        -7.2297   -2.9612    3.0383 C.ar      1 <0>        -0.1127
     35 C28        -7.1805   -2.0503    1.9992 C.ar      1 <0>        -0.1049
     36 C29        -6.2503   -2.2022    0.9894 C.ar      1 <0>        -0.1250
     37 H1         12.1665   -3.3636   -2.0732 H         1 <0>         0.0843
     38 H2         12.2101   -3.6874   -0.3069 H         1 <0>         0.0398
     39 H3         12.4872   -2.0226   -0.9220 H         1 <0>         0.0850
     40 H4          9.9807   -4.2758   -2.2831 H         1 <0>         0.1236
     41 H5          9.9167   -4.6620   -0.5300 H         1 <0>         0.0605
     42 H6          7.9981   -2.8045   -2.0460 H         1 <0>         0.1364
     43 H7          7.6256   -4.4612   -1.4600 H         1 <0>         0.1360
     44 H8          8.4278   -1.0292   -0.4149 H         1 <0>         0.1376
     45 H9          8.3638   -1.4152    1.3382 H         1 <0>         0.1376
     46 H10        10.3473   -2.8870    1.1004 H         1 <0>         0.0605
     47 H11        10.7197   -1.2303    0.5145 H         1 <0>         0.1235
     48 H12         5.8923   -3.6682   -0.1168 H         1 <0>         0.1381
     49 H13         6.3309   -3.0822    2.2663 H         1 <0>         0.0957
     50 H14         6.6252   -1.3726    1.8003 H         1 <0>         0.0932
     51 H15         4.0034   -2.9182    1.3978 H         1 <0>         0.0842
     52 H16         4.3110   -1.6824    2.6646 H         1 <0>         0.0937
     53 H17         4.7151    0.0378    0.9055 H         1 <0>         0.1139
     54 H18         3.9848   -2.2592   -1.0120 H         1 <0>         0.0836
     55 H19         4.2792   -0.5496   -1.4780 H         1 <0>         0.0932
     56 H20         6.6067   -0.7137   -0.6095 H         1 <0>         0.0929
     57 H21         6.2991   -1.9496   -1.8763 H         1 <0>         0.0947
     58 H22         1.9366   -2.5748    0.2118 H         1 <0>         0.1745
     59 H23         2.3599    3.7329    1.9351 H         1 <0>         0.1987
     60 H24        -1.9942    2.3049    1.5903 H         1 <0>         0.4305
     61 H25        -1.8535    0.4731    1.0856 H         1 <0>         0.4308
     62 H26        -1.5160   -0.9428    2.3917 H         1 <0>         0.1309
     63 H27        -3.7115   -2.0128    2.1042 H         1 <0>         0.1342
     64 H28        -2.4926   -3.5105   -1.7099 H         1 <0>         0.1380
     65 H29        -0.2971   -2.4371   -1.4358 H         1 <0>         0.1328
     66 H30        -4.7346   -5.0202    2.0822 H         1 <0>         0.1310
     67 H31        -6.3890   -4.7363    3.8824 H         1 <0>         0.1327
     68 H32        -7.9580   -2.8407    3.8267 H         1 <0>         0.1312
     69 H33        -7.8698   -1.2191    1.9773 H         1 <0>         0.1333
     70 H34        -6.2126   -1.4906    0.1778 H         1 <0>         0.1319
     71 H35         8.1032   -3.7628    0.8084 H         1 <0>         0.4381
@<TRIPOS>BOND
     1    1    2 1
     2    1   37 1
     3    1   38 1
     4    1   39 1
     5    2    7 1
     6    2    3 1
     7    3    4 1
     8    3   40 1
     9    3   41 1
    10    4    5 1
    11    4   42 1
    12    4   43 1
    13    5    6 1
    14    5    8 1
    15    5   71 1
    16    6    7 1
    17    6   44 1
    18    6   45 1
    19    7   46 1
    20    7   47 1
    21    8   13 1
    22    8    9 1
    23    8   48 1
    24    9   10 1
    25    9   49 1
    26    9   50 1
    27   10   11 1
    28   10   51 1
    29   10   52 1
    30   11   12 1
    31   11   14 1
    32   11   53 1
    33   12   13 1
    34   12   54 1
    35   12   55 1
    36   13   56 1
    37   13   57 1
    38   14   18 1
    39   14   15 1
    40   15   16 2
    41   15   58 1
    42   16   17 1
    43   16   24 1
    44   17   22 ar
    45   17   18 ar
    46   18   19 ar
    47   19   20 ar
    48   20   21 ar
    49   20   59 1
    50   21   22 ar
    51   22   23 1
    52   23   60 1
    53   23   61 1
    54   24   29 ar
    55   24   25 ar
    56   25   26 ar
    57   25   62 1
    58   26   27 ar
    59   26   63 1
    60   27   28 ar
    61   27   30 1
    62   28   29 ar
    63   28   64 1
    64   29   65 1
    65   30   31 1
    66   31   36 ar
    67   31   32 ar
    68   32   33 ar
    69   32   66 1
    70   33   34 ar
    71   33   67 1
    72   34   35 ar
    73   34   68 1
    74   35   36 ar
    75   35   69 1
    76   36   70 1
@<TRIPOS>MOLECULE
ZINC02541690
   50    54     0     0     0
SMALL
USER_CHARGES

@<TRIPOS>ATOM
      1 C1          3.3370    1.3633    3.5653 C.ar      1 <0>        -0.1527
      2 C2          3.4192   -0.0168    3.5450 C.ar      1 <0>        -0.0823
      3 C3          3.5025   -0.6873    2.3401 C.ar      1 <0>        -0.1944
      4 C4          3.5032    0.0255    1.1495 C.ar      1 <0>         0.1211
      5 C5          3.4202    1.4104    1.1728 C.ar      1 <0>        -0.1464
      6 C6          3.3375    2.0760    2.3804 C.ar      1 <0>        -0.0823
      7 O1          3.5855   -0.6316   -0.0370 O.3       1 <0>        -0.2596
      8 C7          3.6573   -1.9885   -0.0113 C.ar      1 <0>         0.0806
      9 C8          2.4934   -2.7445   -0.0465 C.ar      1 <0>        -0.1152
     10 C9          2.5628   -4.1217   -0.0205 C.ar      1 <0>        -0.0956
     11 C10         3.8037   -4.7546    0.0407 C.ar      1 <0>        -0.0013
     12 C11         4.9707   -3.9925    0.0755 C.ar      1 <0>        -0.1142
     13 C12         4.8946   -2.6157    0.0443 C.ar      1 <0>        -0.1163
     14 C13         3.8820   -6.2349    0.0693 C.2       1 <0>        -0.1093
     15 C14         3.1900   -7.0680    0.8846 C.2       1 <0>         0.0680
     16 N1          3.5310   -8.3656    0.6127 N.pl3     1 <0>        -0.4461
     17 C15         4.4590   -8.4116   -0.3923 C.ar      1 <0>         0.3477
     18 C16         4.7196   -7.0869   -0.7844 C.ar      1 <0>        -0.2532
     19 C17         5.6424   -6.8580   -1.8136 C.ar      1 <0>         0.4929
     20 N2          6.2315   -7.9083   -2.3789 N.ar      1 <0>        -0.6011
     21 C18         5.9559   -9.1375   -1.9825 C.ar      1 <0>         0.3628
     22 N3          5.1023   -9.3977   -1.0159 N.ar      1 <0>        -0.5701
     23 N4          5.9333   -5.5718   -2.2318 N.pl3     1 <0>        -0.8318
     24 C19         2.9816   -9.5372    1.2994 C.3       1 <0>         0.1310
     25 C20         1.4444   -9.5530    1.1702 C.3       1 <0>        -0.1342
     26 C21         0.9538  -10.0912    2.5372 C.3       1 <0>        -0.1235
     27 C22         1.9381   -9.4341    3.5364 C.3       1 <0>        -0.1246
     28 C23         3.2955   -9.4617    2.8039 C.3       1 <0>        -0.1367
     29 H1          3.2678    1.8854    4.5083 H         1 <0>         0.1255
     30 H2          3.4186   -0.5710    4.4719 H         1 <0>         0.1257
     31 H3          3.5673   -1.7652    2.3248 H         1 <0>         0.1277
     32 H4          3.4209    1.9675    0.2475 H         1 <0>         0.1325
     33 H5          3.2732    3.1539    2.3991 H         1 <0>         0.1316
     34 H6          1.5325   -2.2536   -0.0939 H         1 <0>         0.1350
     35 H7          1.6570   -4.7092   -0.0472 H         1 <0>         0.1340
     36 H8          5.9333   -4.4797    0.1229 H         1 <0>         0.1335
     37 H9          5.7983   -2.0248    0.0675 H         1 <0>         0.1354
     38 H10         2.4781   -6.7556    1.6344 H         1 <0>         0.1773
     39 H11         6.4563   -9.9625   -2.4676 H         1 <0>         0.1997
     40 H12         5.4964   -4.8146   -1.8115 H         1 <0>         0.4109
     41 H13         6.5741   -5.4271   -2.9455 H         1 <0>         0.4078
     42 H14         3.4020  -10.4492    0.8756 H         1 <0>         0.1116
     43 H15         1.0657   -8.5454    0.9987 H         1 <0>         0.0765
     44 H16         1.1361  -10.2196    0.3648 H         1 <0>         0.0773
     45 H17        -0.0689   -9.7697    2.7344 H         1 <0>         0.0747
     46 H18         1.0325  -11.1777    2.5753 H         1 <0>         0.0737
     47 H19         1.6391   -8.4073    3.7471 H         1 <0>         0.0685
     48 H20         1.9900  -10.0140    4.4579 H         1 <0>         0.0731
     49 H21         3.8675  -10.3374    3.1104 H         1 <0>         0.0798
     50 H22         3.8565   -8.5532    3.0231 H         1 <0>         0.0749
@<TRIPOS>BOND
     1    1    6 ar
     2    1    2 ar
     3    1   29 1
     4    2    3 ar
     5    2   30 1
     6    3    4 ar
     7    3   31 1
     8    4    5 ar
     9    4    7 1
    10    5    6 ar
    11    5   32 1
    12    6   33 1
    13    7    8 1
    14    8   13 ar
    15    8    9 ar
    16    9   10 ar
    17    9   34 1
    18   10   11 ar
    19   10   35 1
    20   11   12 ar
    21   11   14 1
    22   12   13 ar
    23   12   36 1
    24   13   37 1
    25   14   18 1
    26   14   15 2
    27   15   16 1
    28   15   38 1
    29   16   17 1
    30   16   24 1
    31   17   22 ar
    32   17   18 ar
    33   18   19 ar
    34   19   20 ar
    35   19   23 1
    36   20   21 ar
    37   21   22 ar
    38   21   39 1
    39   23   40 1
    40   23   41 1
    41   24   28 1
    42   24   25 1
    43   24   42 1
    44   25   26 1
    45   25   43 1
    46   25   44 1
    47   26   27 1
    48   26   45 1
    49   26   46 1
    50   27   28 1
    51   27   47 1
    52   27   48 1
    53   28   49 1
    54   28   50 1
@<TRIPOS>MOLECULE
ZINC03820040
   62    66     0     0     0
SMALL
USER_CHARGES
N-[4-[4-(4-methylpiperazin-1-yl)-6-[(5-methyl-2H-pyrazol-3-yl)amino]pyrimidin-2-yl]sulfanylphenyl]cyclopropanecarboxamide
@<TRIPOS>ATOM
      1 C1          1.8035   -7.6837    0.5070 C.3       1 <0>        -0.0779
      2 C2          2.3685   -6.3674    0.0389 C.2       1 <0>         0.0949
      3 C3          1.9325   -5.1020    0.4407 C.2       1 <0>        -0.2905
      4 C4          2.6904   -4.1743   -0.2066 C.2       1 <0>         0.3252
      5 N1          3.5799   -4.8447   -0.9836 N.pl3     1 <0>        -0.4853
      6 H1          4.2729   -4.4328   -1.5753 H         1 <0>         0.4473
      7 N2          3.3537   -6.2159   -0.8085 N.2       1 <0>        -0.2711
      8 N3          2.5778   -2.7905   -0.0888 N.pl3     1 <0>        -0.6296
      9 C5          1.3376   -2.2123    0.1391 C.ar      1 <0>         0.4706
     10 C6          0.1755   -2.9717    0.0343 C.ar      1 <0>        -0.2983
     11 C7         -1.0466   -2.3490    0.2714 C.ar      1 <0>         0.3791
     12 N4         -1.0643   -1.0564    0.5886 N.ar      1 <0>        -0.5664
     13 C8          0.0620   -0.3646    0.6795 C.ar      1 <0>         0.3511
     14 N5          1.2425   -0.9231    0.4557 N.ar      1 <0>        -0.5606
     15 S1         -0.0125    1.3444    1.1018 S.3       1 <0>         0.1303
     16 C9          1.7078    1.7032    1.2298 C.ar      1 <0>        -0.1638
     17 C10         2.3806    1.4637    2.4214 C.ar      1 <0>        -0.0284
     18 C11         3.7293    1.7409    2.5200 C.ar      1 <0>        -0.1315
     19 C12         4.4114    2.2681    1.4313 C.ar      1 <0>         0.1902
     20 C13         3.7379    2.5125    0.2417 C.ar      1 <0>        -0.1573
     21 C14         2.3903    2.2311    0.1410 C.ar      1 <0>        -0.0288
     22 N6          5.7793    2.5539    1.5333 N.am      1 <0>        -0.6744
     23 C15         6.5739    1.7808    2.2997 C.2       1 <0>         0.5466
     24 O1          6.1269    0.7811    2.8213 O.2       1 <0>        -0.5140
     25 C16         8.0178    2.1584    2.5086 C.3       1 <0>        -0.2022
     26 C17         9.0818    1.2604    1.8742 C.3       1 <0>        -0.1494
     27 C18         8.8679    1.2402    3.3890 C.3       1 <0>        -0.1425
     28 N7         -2.2296   -3.0657    0.1789 N.pl3     1 <0>        -0.4710
     29 C19        -2.3617   -3.6957   -1.1422 C.3       1 <0>         0.0277
     30 C20        -3.6379   -4.5399   -1.1765 C.3       1 <0>         0.0040
     31 C21        -4.6643   -3.0537    0.4349 C.3       1 <0>        -0.0004
     32 C22        -3.3881   -2.2095    0.4692 C.3       1 <0>         0.0347
     33 C23        -6.0501   -4.4431   -0.9842 C.3       1 <0>        -0.0407
     34 H2          2.3381   -8.0122    1.3982 H         1 <0>         0.0831
     35 H3          0.7460   -7.5623    0.7417 H         1 <0>         0.0784
     36 H4          1.9177   -8.4287   -0.2805 H         1 <0>         0.0774
     37 H5          1.1347   -4.8964    1.1389 H         1 <0>         0.1550
     38 H6          3.3667   -2.2314   -0.1662 H         1 <0>         0.4241
     39 H7          0.2211   -4.0192   -0.2246 H         1 <0>         0.1631
     40 H8          1.8494    1.0573    3.2693 H         1 <0>         0.1319
     41 H9          4.2533    1.5509    3.4451 H         1 <0>         0.1405
     42 H10         4.2686    2.9225   -0.6049 H         1 <0>         0.1339
     43 H11         1.8666    2.4209   -0.7843 H         1 <0>         0.1341
     44 H12         6.1543    3.3081    1.0523 H         1 <0>         0.4168
     45 H13         8.2224    3.2282    2.5520 H         1 <0>         0.1306
     46 H14         8.7374    0.3965    1.3057 H         1 <0>         0.0995
     47 H15         9.9866    1.7393    1.5000 H         1 <0>         0.1100
     48 H16         9.6320    1.7059    4.0114 H         1 <0>         0.1092
     49 H17         8.3827    0.3633    3.8175 H         1 <0>         0.1093
     50 H18        -2.4158   -2.9234   -1.9095 H         1 <0>         0.0737
     51 H19        -1.4982   -4.3342   -1.3286 H         1 <0>         0.1318
     52 H20        -3.5722   -5.3290   -0.4274 H         1 <0>         0.1439
     53 H21        -3.7533   -4.9852   -2.1646 H         1 <0>         0.1412
     54 H22        -4.6102   -3.8259    1.2022 H         1 <0>         0.1407
     55 H23        -5.5278   -2.4152    0.6217 H         1 <0>         0.1407
     56 H24        -3.2729   -1.7645    1.4575 H         1 <0>         0.1357
     57 H25        -3.4537   -1.4201   -0.2796 H         1 <0>         0.0793
     58 H26        -6.8948   -3.7714   -0.8313 H         1 <0>         0.1238
     59 H27        -6.1225   -4.8989   -1.9717 H         1 <0>         0.1230
     60 H28        -6.0632   -5.2226   -0.2224 H         1 <0>         0.1251
     61 N8         -4.7966   -3.6630   -0.9051 N.4       1 <0>        -0.4014
     62 H29        -4.8229   -2.9169   -1.6099 H         1 <0>         0.4281
@<TRIPOS>BOND
     1    1    2 1
     2    1   34 1
     3    1   35 1
     4    1   36 1
     5    2    7 2
     6    2    3 1
     7    3    4 2
     8    3   37 1
     9    4    5 1
    10    4    8 1
    11    5    6 1
    12    5    7 1
    13    8    9 1
    14    8   38 1
    15    9   14 ar
    16    9   10 ar
    17   10   11 ar
    18   10   39 1
    19   11   12 ar
    20   11   28 1
    21   12   13 ar
    22   13   14 ar
    23   13   15 1
    24   15   16 1
    25   16   21 ar
    26   16   17 ar
    27   17   18 ar
    28   17   40 1
    29   18   19 ar
    30   18   41 1
    31   19   20 ar
    32   19   22 1
    33   20   21 ar
    34   20   42 1
    35   21   43 1
    36   22   23 am
    37   22   44 1
    38   23   24 2
    39   23   25 1
    40   25   27 1
    41   25   26 1
    42   25   45 1
    43   26   27 1
    44   26   46 1
    45   26   47 1
    46   27   48 1
    47   27   49 1
    48   28   32 1
    49   28   29 1
    50   29   30 1
    51   29   50 1
    52   29   51 1
    53   30   52 1
    54   30   53 1
    55   30   61 1
    56   31   32 1
    57   31   54 1
    58   31   55 1
    59   31   61 1
    60   32   56 1
    61   32   57 1
    62   33   58 1
    63   33   59 1
    64   33   60 1
    65   33   61 1
    66   61   62 1
@<TRIPOS>MOLECULE
ZINC13132888
   46    49     0     0     0
SMALL
USER_CHARGES

@<TRIPOS>ATOM
      1 C1         -0.4024    1.4640   -0.2596 C.3       1 <0>        -0.1435
      2 C2         -0.2022   -0.0486   -0.1459 C.3       1 <0>         0.1912
      3 C3          0.5317   -0.3694    1.1577 C.3       1 <0>        -0.1615
      4 C4         -1.5645   -0.7450   -0.1490 C.3       1 <0>        -0.1622
      5 N1          0.5913   -0.5229   -1.2824 N.pl3     1 <0>        -0.3634
      6 C5          0.9612   -1.8141   -1.5150 C.ar      1 <0>         0.3746
      7 C6          1.7077   -1.8088   -2.7096 C.ar      1 <0>        -0.3278
      8 C7          1.7573   -0.4719   -3.1602 C.2       1 <0>         0.1297
      9 N2          1.0952    0.2715   -2.3201 N.2       1 <0>        -0.2391
     10 C8          2.4532    0.0125   -4.4060 C.3       1 <0>        -0.0064
     11 C9          1.4787    0.0187   -5.5556 C.ar      1 <0>        -0.0714
     12 C10         1.4067   -1.0488   -6.3972 C.ar      1 <0>        -0.1084
     13 C11         0.5121   -1.0612   -7.4653 C.ar      1 <0>        -0.1155
     14 C12        -0.3156   -0.0059   -7.6985 C.ar      1 <0>        -0.1014
     15 C13        -0.2700    1.1138   -6.8511 C.ar      1 <0>        -0.0506
     16 C14         0.6357    1.1238   -5.7608 C.ar      1 <0>        -0.0393
     17 C15         0.6771    2.2415   -4.9097 C.ar      1 <0>        -0.0979
     18 C16        -0.1547    3.2939   -5.1394 C.ar      1 <0>        -0.1148
     19 C17        -1.0498    3.2813   -6.2077 C.ar      1 <0>        -0.1134
     20 C18        -1.1085    2.2222   -7.0604 C.ar      1 <0>        -0.1091
     21 C19         2.2169   -3.0332   -3.1834 C.ar      1 <0>         0.5199
     22 N3          1.9692   -4.1339   -2.4817 N.ar      1 <0>        -0.6092
     23 C20         1.2632   -4.0896   -1.3658 C.ar      1 <0>         0.3850
     24 N4          0.7670   -2.9710   -0.8841 N.ar      1 <0>        -0.5722
     25 N5          2.9554   -3.0885   -4.3491 N.pl3     1 <0>        -0.8266
     26 H1          0.5681    1.9601   -0.2574 H         1 <0>         0.0677
     27 H2         -0.9252    1.6925   -1.1883 H         1 <0>         0.0677
     28 H3         -0.9928    1.8169    0.5860 H         1 <0>         0.0748
     29 H4         -0.0587   -0.0165    2.0033 H         1 <0>         0.0794
     30 H5          0.6743   -1.4470    1.2387 H         1 <0>         0.0761
     31 H6          1.5022    0.1268    1.1599 H         1 <0>         0.0599
     32 H7         -2.0873   -0.5165   -1.0777 H         1 <0>         0.0592
     33 H8         -1.4218   -1.8226   -0.0681 H         1 <0>         0.0763
     34 H9         -2.1548   -0.3922    0.6966 H         1 <0>         0.0794
     35 H10         2.8290    1.0226   -4.2429 H         1 <0>         0.1038
     36 H11         3.2855   -0.6517   -4.6388 H         1 <0>         0.0893
     37 H12         2.0530   -1.8987   -6.2348 H         1 <0>         0.1192
     38 H13         0.4751   -1.9207   -8.1182 H         1 <0>         0.1252
     39 H14        -1.0035   -0.0292   -8.5308 H         1 <0>         0.1280
     40 H15         1.3650    2.2650   -4.0775 H         1 <0>         0.1310
     41 H16        -0.1208    4.1515   -4.4839 H         1 <0>         0.1230
     42 H17        -1.6992    4.1294   -6.3675 H         1 <0>         0.1230
     43 H18        -1.8067    2.2268   -7.8844 H         1 <0>         0.1269
     44 H19         1.0860   -5.0091   -0.8278 H         1 <0>         0.2029
     45 H20         3.2072   -2.2692   -4.8032 H         1 <0>         0.4085
     46 H21         3.2222   -3.9468   -4.7139 H         1 <0>         0.4119
@<TRIPOS>BOND
     1    1    2 1
     2    1   26 1
     3    1   27 1
     4    1   28 1
     5    2    3 1
     6    2    4 1
     7    2    5 1
     8    3   29 1
     9    3   30 1
    10    3   31 1
    11    4   32 1
    12    4   33 1
    13    4   34 1
    14    5    9 1
    15    5    6 1
    16    6   24 ar
    17    6    7 ar
    18    7    8 1
    19    7   21 ar
    20    8    9 2
    21    8   10 1
    22   10   11 1
    23   10   35 1
    24   10   36 1
    25   11   16 ar
    26   11   12 ar
    27   12   13 ar
    28   12   37 1
    29   13   14 ar
    30   13   38 1
    31   14   15 ar
    32   14   39 1
    33   15   20 ar
    34   15   16 ar
    35   16   17 ar
    36   17   18 ar
    37   17   40 1
    38   18   19 ar
    39   18   41 1
    40   19   20 ar
    41   19   42 1
    42   20   43 1
    43   21   22 ar
    44   21   25 1
    45   22   23 ar
    46   23   24 ar
    47   23   44 1
    48   25   45 1
    49   25   46 1
@<TRIPOS>MOLECULE
ZINC23247639
   69    72     0     0     0
SMALL
USER_CHARGES
1-[4-[(4-ethylpiperazin-1-yl)methyl]-3-(trifluoromethyl)phenyl]-3-[4-(6-methylaminopyrimidin-4-yl)oxyphenyl]urea
@<TRIPOS>ATOM
      1 C1          8.9417    3.3719    8.2172 C.3       1 <0>        -0.1901
      2 C2         10.1498    2.9102    7.3997 C.3       1 <0>        -0.0070
      3 N1          9.9972    3.3533    6.0075 N.4       1 <0>        -0.4011
      4 C3         11.2367    3.1387    5.2477 C.3       1 <0>         0.0016
      5 C4         11.0629    3.6845    3.8284 C.3       1 <0>         0.0271
      6 N2          9.9288    3.0094    3.1822 N.3       1 <0>        -0.5300
      7 C5          8.6893    3.2240    3.9420 C.3       1 <0>         0.0232
      8 C6          8.8631    2.6781    5.3612 C.3       1 <0>        -0.0016
      9 C7          9.7762    3.4524    1.7899 C.3       1 <0>         0.0786
     10 C8          8.7879    2.5601    1.0842 C.ar      1 <0>        -0.0666
     11 C9          7.5022    3.0092    0.8434 C.ar      1 <0>        -0.0932
     12 C10         6.5958    2.1959    0.1923 C.ar      1 <0>        -0.0888
     13 C11         6.9731    0.9214   -0.2106 C.ar      1 <0>         0.1880
     14 C12         8.2646    0.4735    0.0326 C.ar      1 <0>        -0.1043
     15 C13         9.1683    1.2940    0.6793 C.ar      1 <0>        -0.1369
     16 C14        10.5702    0.8086    0.9441 C.3       1 <0>         0.5111
     17 F1         10.7250   -0.4786    0.4184 F         1 <0>        -0.1776
     18 F2         11.4860    1.6739    0.3362 F         1 <0>        -0.1774
     19 F3         10.8008    0.7797    2.3237 F         1 <0>        -0.1628
     20 N3          6.0552    0.0926   -0.8655 N.am      1 <0>        -0.6979
     21 C15         4.7513    0.1311   -0.5266 C.2       1 <0>         0.7117
     22 O1          4.3858    0.8194    0.4067 O.2       1 <0>        -0.5623
     23 N4          3.8526   -0.5934   -1.2222 N.am      1 <0>        -0.6900
     24 C16         2.4863   -0.4790   -0.9335 C.ar      1 <0>         0.1635
     25 C17         1.5516   -0.5518   -1.9576 C.ar      1 <0>        -0.1265
     26 C18         0.2052   -0.4394   -1.6724 C.ar      1 <0>        -0.0923
     27 C19        -0.2137   -0.2543   -0.3628 C.ar      1 <0>         0.0841
     28 C20         0.7198   -0.1815    0.6609 C.ar      1 <0>        -0.0957
     29 C21         2.0665   -0.2932    0.3769 C.ar      1 <0>        -0.1058
     30 O2         -1.5393   -0.1385   -0.0833 O.3       1 <0>        -0.2424
     31 C22        -2.3129   -1.2454   -0.1983 C.ar      1 <0>         0.3836
     32 C23        -3.6894   -1.1637   -0.0277 C.ar      1 <0>        -0.3134
     33 C24        -4.4409   -2.3284   -0.1601 C.ar      1 <0>         0.4631
     34 N5         -3.8165   -3.4721   -0.4341 N.ar      1 <0>        -0.5936
     35 C25        -2.5082   -3.5081   -0.5840 C.ar      1 <0>         0.3760
     36 N6         -1.7644   -2.4263   -0.4707 N.ar      1 <0>        -0.6039
     37 N7         -5.8178   -2.2988   -0.0034 N.pl3     1 <0>        -0.7218
     38 C26        -6.4937   -1.0344    0.2979 C.3       1 <0>         0.0891
     39 H1          9.0560    3.0401    9.2597 H         1 <0>         0.1066
     40 H2          8.0243    2.9380    7.7928 H         1 <0>         0.0798
     41 H3          8.8763    4.4695    8.1868 H         1 <0>         0.0803
     42 H4         11.0672    3.3441    7.8241 H         1 <0>         0.1306
     43 H5         10.2153    1.8126    7.4301 H         1 <0>         0.1269
     44 H6         12.0665    3.6630    5.7442 H         1 <0>         0.1361
     45 H7         11.4577    2.0621    5.2031 H         1 <0>         0.1357
     46 H8         10.8699    4.7665    3.8728 H         1 <0>         0.0625
     47 H9         11.9796    3.4990    3.2494 H         1 <0>         0.1239
     48 H10         8.4684    4.3007    3.9867 H         1 <0>         0.0621
     49 H11         7.8594    2.6998    3.4455 H         1 <0>         0.1239
     50 H12         9.0569    1.5962    5.3178 H         1 <0>         0.1351
     51 H13         7.9470    2.8635    5.9412 H         1 <0>         0.1359
     52 H14         9.4106    4.4897    1.7732 H         1 <0>         0.0663
     53 H15        10.7489    3.3982    1.2791 H         1 <0>         0.1073
     54 H16         7.2082    3.9988    1.1607 H         1 <0>         0.1358
     55 H17         5.5933    2.5489    0.0003 H         1 <0>         0.1466
     56 H18         8.5625   -0.5152   -0.2838 H         1 <0>         0.1447
     57 H19         6.3979   -0.5903   -1.6569 H         1 <0>         0.4387
     58 H20         4.1917   -1.2745   -2.0166 H         1 <0>         0.4355
     59 H21         1.8775   -0.6959   -2.9771 H         1 <0>         0.1334
     60 H22        -0.5220   -0.4960   -2.4689 H         1 <0>         0.1303
     61 H23         0.3932   -0.0371    1.6801 H         1 <0>         0.1327
     62 H24         2.7931   -0.2369    1.1740 H         1 <0>         0.1442
     63 H25        -4.1646   -0.2205    0.1982 H         1 <0>         0.1466
     64 H26        -2.0315   -4.4515   -0.8058 H         1 <0>         0.2000
     65 H27        -6.4030   -3.2246   -0.1053 H         1 <0>         0.4376
     66 H28        -7.5762   -1.2091    0.3856 H         1 <0>         0.0864
     67 H29        -6.3028   -0.3146   -0.5117 H         1 <0>         0.0603
     68 H30        -6.1096   -0.6302    1.2461 H         1 <0>         0.0599
     69 H31         9.7882    4.4332    6.0188 H         1 <0>         0.4364
@<TRIPOS>BOND
     1    1    2 1
     2    1   39 1
     3    1   40 1
     4    1   41 1
     5    2    3 1
     6    2   42 1
     7    2   43 1
     8    3    8 1
     9    3    4 1
    10    3   69 1
    11    4    5 1
    12    4   44 1
    13    4   45 1
    14    5    6 1
    15    5   46 1
    16    5   47 1
    17    6    7 1
    18    6    9 1
    19    7    8 1
    20    7   48 1
    21    7   49 1
    22    8   50 1
    23    8   51 1
    24    9   10 1
    25    9   52 1
    26    9   53 1
    27   10   15 ar
    28   10   11 ar
    29   11   12 ar
    30   11   54 1
    31   12   13 ar
    32   12   55 1
    33   13   14 ar
    34   13   20 1
    35   14   15 ar
    36   14   56 1
    37   15   16 1
    38   16   17 1
    39   16   18 1
    40   16   19 1
    41   20   21 am
    42   20   57 1
    43   21   22 2
    44   21   23 am
    45   23   24 1
    46   23   58 1
    47   24   29 ar
    48   24   25 ar
    49   25   26 ar
    50   25   59 1
    51   26   27 ar
    52   26   60 1
    53   27   28 ar
    54   27   30 1
    55   28   29 ar
    56   28   61 1
    57   29   62 1
    58   30   31 1
    59   31   36 ar
    60   31   32 ar
    61   32   33 ar
    62   32   63 1
    63   33   34 ar
    64   33   37 1
    65   34   35 ar
    66   35   36 ar
    67   35   64 1
    68   37   38 1
    69   37   65 1
    70   38   66 1
    71   38   67 1
    72   38   68 1
@<TRIPOS>MOLECULE
ZINC23247639
   69    72     0     0     0
SMALL
USER_CHARGES
1-[4-[(4-ethylpiperazin-1-yl)methyl]-3-(trifluoromethyl)phenyl]-3-[4-(6-methylaminopyrimidin-4-yl)oxyphenyl]urea
@<TRIPOS>ATOM
      1 C1          8.9417    3.3719    8.2172 C.3       1 <0>        -0.1569
      2 C2         10.1498    2.9102    7.3997 C.3       1 <0>         0.0486
      3 N1          9.9972    3.3533    6.0075 N.3       1 <0>        -0.5379
      4 C3         11.2367    3.1387    5.2477 C.3       1 <0>         0.0250
      5 C4         11.0629    3.6845    3.8284 C.3       1 <0>         0.0004
      6 N2          9.9288    3.0094    3.1822 N.4       1 <0>        -0.4202
      7 C5          8.6893    3.2240    3.9420 C.3       1 <0>        -0.0009
      8 C6          8.8631    2.6781    5.3612 C.3       1 <0>         0.0222
      9 C7          9.7762    3.4524    1.7899 C.3       1 <0>         0.0266
     10 C8          8.7879    2.5601    1.0842 C.ar      1 <0>        -0.1272
     11 C9          7.5022    3.0092    0.8434 C.ar      1 <0>        -0.0630
     12 C10         6.5958    2.1959    0.1923 C.ar      1 <0>        -0.0846
     13 C11         6.9731    0.9214   -0.2106 C.ar      1 <0>         0.2154
     14 C12         8.2646    0.4735    0.0326 C.ar      1 <0>        -0.0955
     15 C13         9.1683    1.2940    0.6793 C.ar      1 <0>        -0.1507
     16 C14        10.5702    0.8086    0.9441 C.3       1 <0>         0.5109
     17 F1         10.7250   -0.4786    0.4184 F         1 <0>        -0.1491
     18 F2         11.4860    1.6739    0.3362 F         1 <0>        -0.1584
     19 F3         10.8008    0.7797    2.3237 F         1 <0>        -0.1724
     20 N3          6.0552    0.0926   -0.8655 N.am      1 <0>        -0.6988
     21 C15         4.7513    0.1311   -0.5266 C.2       1 <0>         0.7114
     22 O1          4.3858    0.8194    0.4067 O.2       1 <0>        -0.5584
     23 N4          3.8526   -0.5934   -1.2222 N.am      1 <0>        -0.6858
     24 C16         2.4863   -0.4790   -0.9335 C.ar      1 <0>         0.1577
     25 C17         1.5516   -0.5518   -1.9576 C.ar      1 <0>        -0.1240
     26 C18         0.2052   -0.4394   -1.6724 C.ar      1 <0>        -0.0926
     27 C19        -0.2137   -0.2543   -0.3628 C.ar      1 <0>         0.0883
     28 C20         0.7198   -0.1815    0.6609 C.ar      1 <0>        -0.0957
     29 C21         2.0665   -0.2932    0.3769 C.ar      1 <0>        -0.1046
     30 O2         -1.5393   -0.1385   -0.0833 O.3       1 <0>        -0.2426
     31 C22        -2.3129   -1.2454   -0.1983 C.ar      1 <0>         0.3832
     32 C23        -3.6894   -1.1637   -0.0277 C.ar      1 <0>        -0.3126
     33 C24        -4.4409   -2.3284   -0.1601 C.ar      1 <0>         0.4635
     34 N5         -3.8165   -3.4721   -0.4341 N.ar      1 <0>        -0.5931
     35 C25        -2.5082   -3.5081   -0.5840 C.ar      1 <0>         0.3762
     36 N6         -1.7644   -2.4263   -0.4707 N.ar      1 <0>        -0.6049
     37 N7         -5.8178   -2.2988   -0.0034 N.pl3     1 <0>        -0.7212
     38 C26        -6.4937   -1.0344    0.2979 C.3       1 <0>         0.0887
     39 H1          9.0560    3.0401    9.2597 H         1 <0>         0.0714
     40 H2          8.0243    2.9380    7.7928 H         1 <0>         0.0562
     41 H3          8.8763    4.4695    8.1868 H         1 <0>         0.0696
     42 H4         11.0672    3.3441    7.8241 H         1 <0>         0.0895
     43 H5         10.2153    1.8126    7.4301 H         1 <0>         0.0455
     44 H6         12.0665    3.6630    5.7442 H         1 <0>         0.1253
     45 H7         11.4577    2.0621    5.2031 H         1 <0>         0.0582
     46 H8         10.8699    4.7665    3.8728 H         1 <0>         0.1369
     47 H9         11.9796    3.4990    3.2494 H         1 <0>         0.1329
     48 H10         8.4684    4.3007    3.9867 H         1 <0>         0.1355
     49 H11         7.8594    2.6998    3.4455 H         1 <0>         0.1312
     50 H12         9.0569    1.5962    5.3178 H         1 <0>         0.0572
     51 H13         7.9470    2.8635    5.9412 H         1 <0>         0.1266
     52 H14         9.4106    4.4897    1.7732 H         1 <0>         0.1472
     53 H15        10.7489    3.3982    1.2791 H         1 <0>         0.1420
     54 H16         7.2082    3.9988    1.1607 H         1 <0>         0.1512
     55 H17         5.5933    2.5489    0.0003 H         1 <0>         0.1583
     56 H18         8.5625   -0.5152   -0.2838 H         1 <0>         0.1556
     57 H19         6.3979   -0.5903   -1.6569 H         1 <0>         0.4440
     58 H20         4.1917   -1.2745   -2.0166 H         1 <0>         0.4371
     59 H21         1.8775   -0.6959   -2.9771 H         1 <0>         0.1338
     60 H22        -0.5220   -0.4960   -2.4689 H         1 <0>         0.1313
     61 H23         0.3932   -0.0371    1.6801 H         1 <0>         0.1341
     62 H24         2.7931   -0.2369    1.1740 H         1 <0>         0.1440
     63 H25        -4.1646   -0.2205    0.1982 H         1 <0>         0.1470
     64 H26        -2.0315   -4.4515   -0.8058 H         1 <0>         0.2001
     65 H27        -6.4030   -3.2246   -0.1053 H         1 <0>         0.4380
     66 H28        -7.5762   -1.2091    0.3856 H         1 <0>         0.0868
     67 H29        -6.3028   -0.3146   -0.5117 H         1 <0>         0.0604
     68 H30        -6.1096   -0.6302    1.2461 H         1 <0>         0.0603
     69 H31        10.1379    1.9295    3.1711 H         1 <0>         0.4253
@<TRIPOS>BOND
     1    1    2 1
     2    1   39 1
     3    1   40 1
     4    1   41 1
     5    2    3 1
     6    2   42 1
     7    2   43 1
     8    3    8 1
     9    3    4 1
    10    4    5 1
    11    4   44 1
    12    4   45 1
    13    5    6 1
    14    5   46 1
    15    5   47 1
    16    6    7 1
    17    6    9 1
    18    6   69 1
    19    7    8 1
    20    7   48 1
    21    7   49 1
    22    8   50 1
    23    8   51 1
    24    9   10 1
    25    9   52 1
    26    9   53 1
    27   10   15 ar
    28   10   11 ar
    29   11   12 ar
    30   11   54 1
    31   12   13 ar
    32   12   55 1
    33   13   14 ar
    34   13   20 1
    35   14   15 ar
    36   14   56 1
    37   15   16 1
    38   16   17 1
    39   16   18 1
    40   16   19 1
    41   20   21 am
    42   20   57 1
    43   21   22 2
    44   21   23 am
    45   23   24 1
    46   23   58 1
    47   24   29 ar
    48   24   25 ar
    49   25   26 ar
    50   25   59 1
    51   26   27 ar
    52   26   60 1
    53   27   28 ar
    54   27   30 1
    55   28   29 ar
    56   28   61 1
    57   29   62 1
    58   30   31 1
    59   31   36 ar
    60   31   32 ar
    61   32   33 ar
    62   32   63 1
    63   33   34 ar
    64   33   37 1
    65   34   35 ar
    66   35   36 ar
    67   35   64 1
    68   37   38 1
    69   37   65 1
    70   38   66 1
    71   38   67 1
    72   38   68 1
@<TRIPOS>MOLECULE
ZINC23247639
   68    71     0     0     0
SMALL
USER_CHARGES
1-[4-[(4-ethylpiperazin-1-yl)methyl]-3-(trifluoromethyl)phenyl]-3-[4-(6-methylaminopyrimidin-4-yl)oxyphenyl]urea
@<TRIPOS>ATOM
      1 C1          8.9417    3.3719    8.2172 C.3       1 <0>        -0.1510
      2 C2         10.1498    2.9102    7.3997 C.3       1 <0>         0.0499
      3 N1          9.9972    3.3533    6.0075 N.3       1 <0>        -0.5402
      4 C3         11.2367    3.1387    5.2477 C.3       1 <0>         0.0569
      5 C4         11.0629    3.6845    3.8284 C.3       1 <0>         0.0590
      6 N2          9.9288    3.0094    3.1822 N.3       1 <0>        -0.5268
      7 C5          8.6893    3.2240    3.9420 C.3       1 <0>         0.0561
      8 C6          8.8631    2.6781    5.3612 C.3       1 <0>         0.0550
      9 C7          9.7762    3.4524    1.7899 C.3       1 <0>         0.0729
     10 C8          8.7879    2.5601    1.0842 C.ar      1 <0>        -0.0447
     11 C9          7.5022    3.0092    0.8434 C.ar      1 <0>        -0.0942
     12 C10         6.5958    2.1959    0.1923 C.ar      1 <0>        -0.0884
     13 C11         6.9731    0.9214   -0.2106 C.ar      1 <0>         0.1720
     14 C12         8.2646    0.4735    0.0326 C.ar      1 <0>        -0.1038
     15 C13         9.1683    1.2940    0.6793 C.ar      1 <0>        -0.1404
     16 C14        10.5702    0.8086    0.9441 C.3       1 <0>         0.5095
     17 F1         10.7250   -0.4786    0.4184 F         1 <0>        -0.1841
     18 F2         11.4860    1.6739    0.3362 F         1 <0>        -0.1795
     19 F3         10.8008    0.7797    2.3237 F         1 <0>        -0.1519
     20 N3          6.0552    0.0926   -0.8655 N.am      1 <0>        -0.6948
     21 C15         4.7513    0.1311   -0.5266 C.2       1 <0>         0.7096
     22 O1          4.3858    0.8194    0.4067 O.2       1 <0>        -0.5587
     23 N4          3.8526   -0.5934   -1.2222 N.am      1 <0>        -0.6930
     24 C16         2.4863   -0.4790   -0.9335 C.ar      1 <0>         0.1697
     25 C17         1.5516   -0.5518   -1.9576 C.ar      1 <0>        -0.1297
     26 C18         0.2052   -0.4394   -1.6724 C.ar      1 <0>        -0.0930
     27 C19        -0.2137   -0.2543   -0.3628 C.ar      1 <0>         0.0783
     28 C20         0.7198   -0.1815    0.6609 C.ar      1 <0>        -0.0936
     29 C21         2.0665   -0.2932    0.3769 C.ar      1 <0>        -0.1059
     30 O2         -1.5393   -0.1385   -0.0833 O.3       1 <0>        -0.2412
     31 C22        -2.3129   -1.2454   -0.1983 C.ar      1 <0>         0.3851
     32 C23        -3.6894   -1.1637   -0.0277 C.ar      1 <0>        -0.3141
     33 C24        -4.4409   -2.3284   -0.1601 C.ar      1 <0>         0.4620
     34 N5         -3.8165   -3.4721   -0.4341 N.ar      1 <0>        -0.5954
     35 C25        -2.5082   -3.5081   -0.5840 C.ar      1 <0>         0.3753
     36 N6         -1.7644   -2.4263   -0.4707 N.ar      1 <0>        -0.6017
     37 N7         -5.8178   -2.2988   -0.0034 N.pl3     1 <0>        -0.7231
     38 C26        -6.4937   -1.0344    0.2979 C.3       1 <0>         0.0898
     39 H1          9.0560    3.0401    9.2597 H         1 <0>         0.0595
     40 H2          8.0243    2.9380    7.7928 H         1 <0>         0.0547
     41 H3          8.8763    4.4695    8.1868 H         1 <0>         0.0631
     42 H4         11.0672    3.3441    7.8241 H         1 <0>         0.0746
     43 H5         10.2153    1.8126    7.4301 H         1 <0>         0.0335
     44 H6         12.0665    3.6630    5.7442 H         1 <0>         0.0800
     45 H7         11.4577    2.0621    5.2031 H         1 <0>         0.0441
     46 H8         10.8699    4.7665    3.8728 H         1 <0>         0.0445
     47 H9         11.9796    3.4990    3.2494 H         1 <0>         0.0809
     48 H10         8.4684    4.3007    3.9867 H         1 <0>         0.0435
     49 H11         7.8594    2.6998    3.4455 H         1 <0>         0.0808
     50 H12         9.0569    1.5962    5.3178 H         1 <0>         0.0425
     51 H13         7.9470    2.8635    5.9412 H         1 <0>         0.0819
     52 H14         9.4106    4.4897    1.7732 H         1 <0>         0.0550
     53 H15        10.7489    3.3982    1.2791 H         1 <0>         0.0962
     54 H16         7.2082    3.9988    1.1607 H         1 <0>         0.1355
     55 H17         5.5933    2.5489    0.0003 H         1 <0>         0.1427
     56 H18         8.5625   -0.5152   -0.2838 H         1 <0>         0.1409
     57 H19         6.3979   -0.5903   -1.6569 H         1 <0>         0.4343
     58 H20         4.1917   -1.2745   -2.0166 H         1 <0>         0.4332
     59 H21         1.8775   -0.6959   -2.9771 H         1 <0>         0.1323
     60 H22        -0.5220   -0.4960   -2.4689 H         1 <0>         0.1282
     61 H23         0.3932   -0.0371    1.6801 H         1 <0>         0.1328
     62 H24         2.7931   -0.2369    1.1740 H         1 <0>         0.1466
     63 H25        -4.1646   -0.2205    0.1982 H         1 <0>         0.1463
     64 H26        -2.0315   -4.4515   -0.8058 H         1 <0>         0.1996
     65 H27        -6.4030   -3.2246   -0.1053 H         1 <0>         0.4362
     66 H28        -7.5762   -1.2091    0.3856 H         1 <0>         0.0851
     67 H29        -6.3028   -0.3146   -0.5117 H         1 <0>         0.0598
     68 H30        -6.1096   -0.6302    1.2461 H         1 <0>         0.0599
@<TRIPOS>BOND
     1    1    2 1
     2    1   39 1
     3    1   40 1
     4    1   41 1
     5    2    3 1
     6    2   42 1
     7    2   43 1
     8    3    8 1
     9    3    4 1
    10    4    5 1
    11    4   44 1
    12    4   45 1
    13    5    6 1
    14    5   46 1
    15    5   47 1
    16    6    7 1
    17    6    9 1
    18    7    8 1
    19    7   48 1
    20    7   49 1
    21    8   50 1
    22    8   51 1
    23    9   10 1
    24    9   52 1
    25    9   53 1
    26   10   15 ar
    27   10   11 ar
    28   11   12 ar
    29   11   54 1
    30   12   13 ar
    31   12   55 1
    32   13   14 ar
    33   13   20 1
    34   14   15 ar
    35   14   56 1
    36   15   16 1
    37   16   17 1
    38   16   18 1
    39   16   19 1
    40   20   21 am
    41   20   57 1
    42   21   22 2
    43   21   23 am
    44   23   24 1
    45   23   58 1
    46   24   29 ar
    47   24   25 ar
    48   25   26 ar
    49   25   59 1
    50   26   27 ar
    51   26   60 1
    52   27   28 ar
    53   27   30 1
    54   28   29 ar
    55   28   61 1
    56   29   62 1
    57   30   31 1
    58   31   36 ar
    59   31   32 ar
    60   32   33 ar
    61   32   63 1
    62   33   34 ar
    63   33   37 1
    64   34   35 ar
    65   35   36 ar
    66   35   64 1
    67   37   38 1
    68   37   65 1
    69   38   66 1
    70   38   67 1
    71   38   68 1
@<TRIPOS>MOLECULE
ZINC00602803
   57    59     0     0     0
SMALL
USER_CHARGES

@<TRIPOS>ATOM
      1 C1         -1.3402   -4.8618    1.2145 C.3       1 <0>        -0.1534
      2 C2         -0.8181   -3.6495    0.4408 C.3       1 <0>         0.0511
      3 O1         -0.7742   -2.5142    1.3074 O.3       1 <0>        -0.3148
      4 C3         -0.3304   -1.3470    0.7727 C.ar      1 <0>         0.1525
      5 C4          0.0498   -1.3049   -0.5488 C.ar      1 <0>        -0.1831
      6 C5          0.5092   -0.1023   -1.1071 C.ar      1 <0>         0.1876
      7 C6          0.5748    1.0570   -0.2965 C.ar      1 <0>        -0.1304
      8 C7          0.1883    0.9932    1.0499 C.ar      1 <0>        -0.0592
      9 C8         -0.2650   -0.1967    1.5740 C.ar      1 <0>         0.1185
     10 N1         -0.6575   -0.2608    2.9161 N.am      1 <0>        -0.6449
     11 C9         -0.1566    0.6173    3.8075 C.2       1 <0>         0.5328
     12 O2          0.7152    1.3957    3.4703 O.2       1 <0>        -0.5071
     13 C10        -0.6641    0.6344    5.1877 C.2       1 <0>        -0.1271
     14 C11        -0.1697    1.5011    6.0673 C.2       1 <0>        -0.1492
     15 C12        -0.6897    1.5186    7.4817 C.3       1 <0>         0.0302
     16 C13         1.3312    2.5206    8.3617 C.3       1 <0>        -0.0486
     17 C14        -0.0528    1.1357    9.7861 C.3       1 <0>        -0.0433
     18 C15         1.0386    2.2666   -0.8642 C.ar      1 <0>         0.2844
     19 C16         1.4144    2.2536   -2.2161 C.ar      1 <0>        -0.1029
     20 C17         1.3165    1.0573   -2.9447 C.ar      1 <0>         0.2010
     21 N2          0.8834   -0.0478   -2.3940 N.ar      1 <0>        -0.4743
     22 C18         1.8922    3.4476   -2.8459 C.1       1 <0>         0.2469
     23 N3          2.2712    4.3948   -3.3456 N.1       1 <0>        -0.3851
     24 N4          1.1194    3.4219   -0.1130 N.pl3     1 <0>        -0.6979
     25 C19         2.3677    3.9814    0.1773 C.ar      1 <0>         0.1846
     26 C20         3.4715    3.1592    0.3659 C.ar      1 <0>        -0.1231
     27 C21         4.7048    3.7137    0.6463 C.ar      1 <0>        -0.1069
     28 C22         4.8398    5.0877    0.7520 C.ar      1 <0>         0.0844
     29 C23         3.7394    5.9099    0.5700 C.ar      1 <0>        -0.0407
     30 C24         2.5044    5.3592    0.2831 C.ar      1 <0>        -0.1222
     31 Cl1         3.9119    7.6322    0.7020 Cl        1 <0>        -0.0373
     32 F1          6.0462    5.6274    1.0324 F         1 <0>        -0.1244
     33 H1         -2.3423   -4.6506    1.5877 H         1 <0>         0.0676
     34 H2         -1.3737   -5.7279    0.5535 H         1 <0>         0.0859
     35 H3         -0.6765   -5.0706    2.0536 H         1 <0>         0.0665
     36 H4         -1.4818   -3.4407   -0.3983 H         1 <0>         0.0727
     37 H5          0.1840   -3.8607    0.0676 H         1 <0>         0.0719
     38 H6         -0.0049   -2.1965   -1.1558 H         1 <0>         0.1557
     39 H7          0.2375    1.8756    1.6707 H         1 <0>         0.1646
     40 H8         -1.2900   -0.9373    3.2047 H         1 <0>         0.4221
     41 H9         -1.4381   -0.0567    5.4870 H         1 <0>         0.1454
     42 H10         0.6043    2.1922    5.7680 H         1 <0>         0.1533
     43 H11        -1.1915    2.4672    7.6726 H         1 <0>         0.1468
     44 H12        -1.3959    0.6999    7.6193 H         1 <0>         0.1366
     45 H13         0.7789    3.4221    8.6269 H         1 <0>         0.1257
     46 H14         2.1523    2.3777    9.0642 H         1 <0>         0.1250
     47 H15         1.7302    2.6227    7.3524 H         1 <0>         0.1232
     48 H16        -0.6601    0.2309    9.8124 H         1 <0>         0.1226
     49 H17         0.7976    1.0222   10.4584 H         1 <0>         0.1252
     50 H18        -0.6553    1.9870   10.1029 H         1 <0>         0.1250
     51 H19         1.6056    1.0492   -3.9853 H         1 <0>         0.1765
     52 H20         0.3102    3.8456    0.2136 H         1 <0>         0.4201
     53 H21         3.3660    2.0871    0.2888 H         1 <0>         0.1375
     54 H22         5.5639    3.0747    0.7881 H         1 <0>         0.1500
     55 H23         1.6466    6.0000    0.1416 H         1 <0>         0.1457
     56 N5          0.4465    1.3376    8.4096 N.4       1 <0>        -0.3970
     57 H24         0.9816    0.5092    8.1241 H         1 <0>         0.4334
@<TRIPOS>BOND
     1    1    2 1
     2    1   33 1
     3    1   34 1
     4    1   35 1
     5    2    3 1
     6    2   36 1
     7    2   37 1
     8    3    4 1
     9    4    9 ar
    10    4    5 ar
    11    5    6 ar
    12    5   38 1
    13    6   21 ar
    14    6    7 ar
    15    7    8 ar
    16    7   18 ar
    17    8    9 ar
    18    8   39 1
    19    9   10 1
    20   10   11 am
    21   10   40 1
    22   11   12 2
    23   11   13 1
    24   13   14 2
    25   13   41 1
    26   14   15 1
    27   14   42 1
    28   15   43 1
    29   15   44 1
    30   15   56 1
    31   16   45 1
    32   16   46 1
    33   16   47 1
    34   16   56 1
    35   17   48 1
    36   17   49 1
    37   17   50 1
    38   17   56 1
    39   18   19 ar
    40   18   24 1
    41   19   20 ar
    42   19   22 1
    43   20   21 ar
    44   20   51 1
    45   22   23 3
    46   24   25 1
    47   24   52 1
    48   25   30 ar
    49   25   26 ar
    50   26   27 ar
    51   26   53 1
    52   27   28 ar
    53   27   54 1
    54   28   29 ar
    55   28   32 1
    56   29   30 ar
    57   29   31 1
    58   30   55 1
    59   56   57 1
