@<TRIPOS>MOLECULE
ZINC02560264
   37    42     0     0     0
SMALL
USER_CHARGES

@<TRIPOS>ATOM
      1 C1         -0.0166    1.3740    0.0096 C.ar      1 <0>        -0.1440
      2 C2          1.1716    2.0886    0.0021 C.ar      1 <0>        -0.0817
      3 C3          2.3839    1.4333   -0.0130 C.ar      1 <0>        -0.1381
      4 C4          2.4234    0.0421   -0.0208 C.ar      1 <0>         0.1368
      5 C5          1.2204   -0.6789   -0.0132 C.ar      1 <0>        -0.0962
      6 C6          0.0021   -0.0041    0.0020 C.ar      1 <0>        -0.0609
      7 C7          1.5891   -2.1077   -0.0244 C.ar      1 <0>        -0.0649
      8 C8          0.8454   -3.2819   -0.0236 C.ar      1 <0>        -0.0450
      9 C9          1.4816   -4.5185   -0.0365 C.ar      1 <0>        -0.1358
     10 C10         2.8940   -4.5714   -0.0501 C.ar      1 <0>        -0.0059
     11 C11         3.8569   -5.6841   -0.0662 C.ar      1 <0>        -0.1090
     12 C12         3.7202   -7.0720   -0.0736 C.ar      1 <0>        -0.0448
     13 C13         4.8431   -7.8694   -0.0897 C.ar      1 <0>        -0.1554
     14 C14         6.1070   -7.2977   -0.0979 C.ar      1 <0>        -0.0739
     15 C15         6.2575   -5.9282   -0.0907 C.ar      1 <0>        -0.1504
     16 C16         5.1356   -5.1043   -0.0750 C.ar      1 <0>         0.1441
     17 N1          4.9880   -3.7311   -0.0653 N.pl3     1 <0>        -0.6105
     18 H1          5.7195   -3.0941   -0.0687 H         1 <0>         0.4165
     19 C17         3.6443   -3.3949   -0.0504 C.ar      1 <0>         0.1138
     20 C18         2.9910   -2.1538   -0.0381 C.ar      1 <0>         0.1603
     21 N2          3.4713   -0.8601   -0.0356 N.pl3     1 <0>        -0.6071
     22 H2          4.4105   -0.6179   -0.0435 H         1 <0>         0.4182
     23 C19         0.4534   -5.5701   -0.0322 C.2       1 <0>         0.5671
     24 O1          0.6821   -6.7645   -0.0405 O.2       1 <0>        -0.5235
     25 N3         -0.7748   -5.0244   -0.0172 N.am      1 <0>        -0.7239
     26 C20        -0.6370   -3.5635   -0.0107 C.3       1 <0>         0.1438
     27 H3         -0.9602    1.8992    0.0259 H         1 <0>         0.1299
     28 H4          1.1469    3.1683    0.0077 H         1 <0>         0.1312
     29 H5          3.3035    1.9995   -0.0190 H         1 <0>         0.1253
     30 H6         -0.9246   -0.5587    0.0075 H         1 <0>         0.1280
     31 H7          2.7375   -7.5198   -0.0665 H         1 <0>         0.1456
     32 H8          4.7391   -8.9443   -0.0955 H         1 <0>         0.1286
     33 H9          6.9811   -7.9319   -0.1098 H         1 <0>         0.1300
     34 H10         7.2462   -5.4938   -0.0972 H         1 <0>         0.1240
     35 H11        -1.6120   -5.5143   -0.0117 H         1 <0>         0.4271
     36 H12        -1.0897   -3.1483    0.8897 H         1 <0>         0.1004
     37 H13        -1.1071   -3.1386   -0.8976 H         1 <0>         0.1004
@<TRIPOS>BOND
     1    1    6 ar
     2    1    2 ar
     3    1   27 1
     4    2    3 ar
     5    2   28 1
     6    3    4 ar
     7    3   29 1
     8    4   21 1
     9    4    5 ar
    10    5    6 ar
    11    5    7 1
    12    6   30 1
    13    7   20 ar
    14    7    8 ar
    15    8   26 1
    16    8    9 ar
    17    9   10 ar
    18    9   23 1
    19   10   19 ar
    20   10   11 1
    21   11   16 ar
    22   11   12 ar
    23   12   13 ar
    24   12   31 1
    25   13   14 ar
    26   13   32 1
    27   14   15 ar
    28   14   33 1
    29   15   16 ar
    30   15   34 1
    31   16   17 1
    32   17   18 1
    33   17   19 1
    34   19   20 ar
    35   20   21 1
    36   21   22 1
    37   23   24 2
    38   23   25 am
    39   25   26 1
    40   25   35 1
    41   26   36 1
    42   26   37 1
