@<TRIPOS>MOLECULE
ZINC05751469
   34    36     0     0     0
SMALL
USER_CHARGES
1,3-bis(p-tolyl)-1,3-diazetidine-2,4-dione
@<TRIPOS>ATOM
      1 C1          6.6004    2.2531   -0.0495 C.3       1 <0>        -0.1162
      2 C2          5.0936    2.2326   -0.0352 C.ar      1 <0>        -0.0936
      3 C3          4.3874    3.4213   -0.0215 C.ar      1 <0>        -0.0889
      4 C4          3.0064    3.4057   -0.0084 C.ar      1 <0>        -0.1306
      5 C5          2.3272    2.1949   -0.0084 C.ar      1 <0>         0.1579
      6 C6          3.0390    1.0030   -0.0159 C.ar      1 <0>        -0.1306
      7 C7          4.4199    1.0250   -0.0352 C.ar      1 <0>        -0.0889
      8 N1          0.9256    2.1758    0.0049 N.am      1 <0>        -0.5632
      9 C8         -0.0144    1.2099    0.0087 C.2       1 <0>         0.7348
     10 O1          0.0021   -0.0041    0.0020 O.2       1 <0>        -0.4357
     11 N2         -0.9802    2.1499    0.0169 N.am      1 <0>        -0.5632
     12 C9         -0.0402    3.1157    0.0192 C.2       1 <0>         0.7348
     13 O2         -0.0567    4.3297    0.0259 O.2       1 <0>        -0.4357
     14 C10        -2.3820    2.1308    0.0213 C.ar      1 <0>         0.1579
     15 C11        -3.0611    0.9201    0.0112 C.ar      1 <0>        -0.1306
     16 C12        -4.4422    0.9045    0.0218 C.ar      1 <0>        -0.0889
     17 C13        -5.1484    2.0933    0.0306 C.ar      1 <0>        -0.0936
     18 C14        -4.4747    3.3008    0.0345 C.ar      1 <0>        -0.0889
     19 C15        -3.0937    3.3228    0.0301 C.ar      1 <0>        -0.1306
     20 C16        -6.6553    2.0728    0.0354 C.3       1 <0>        -0.1162
     21 H1          6.9735    2.2521    0.9746 H         1 <0>         0.0738
     22 H2          6.9708    1.3711   -0.5720 H         1 <0>         0.0693
     23 H3          6.9467    3.1509   -0.5615 H         1 <0>         0.0693
     24 H4          4.9163    4.3630   -0.0215 H         1 <0>         0.1350
     25 H5          2.4554    4.3345    0.0023 H         1 <0>         0.1364
     26 H6          2.5134    0.0595   -0.0114 H         1 <0>         0.1364
     27 H7          4.9741    0.0981   -0.0455 H         1 <0>         0.1350
     28 H8         -2.5101   -0.0087   -0.0002 H         1 <0>         0.1364
     29 H9         -4.9711   -0.0372    0.0184 H         1 <0>         0.1350
     30 H10        -5.0290    4.2277    0.0414 H         1 <0>         0.1350
     31 H11        -2.5681    4.2662    0.0332 H         1 <0>         0.1364
     32 H12        -7.0219    2.0731   -0.9911 H         1 <0>         0.0738
     33 H13        -7.0048    1.1754    0.5458 H         1 <0>         0.0693
     34 H14        -7.0290    2.9551    0.5549 H         1 <0>         0.0693
@<TRIPOS>BOND
     1    1    2 1
     2    1   21 1
     3    1   22 1
     4    1   23 1
     5    2    7 ar
     6    2    3 ar
     7    3    4 ar
     8    3   24 1
     9    4    5 ar
    10    4   25 1
    11    5    6 ar
    12    5    8 1
    13    6    7 ar
    14    6   26 1
    15    7   27 1
    16    8   12 am
    17    8    9 am
    18    9   10 2
    19    9   11 am
    20   11   12 am
    21   11   14 1
    22   12   13 2
    23   14   19 ar
    24   14   15 ar
    25   15   16 ar
    26   15   28 1
    27   16   17 ar
    28   16   29 1
    29   17   18 ar
    30   17   20 1
    31   18   19 ar
    32   18   30 1
    33   19   31 1
    34   20   32 1
    35   20   33 1
    36   20   34 1
@<TRIPOS>MOLECULE
ZINC29412147
   20    20     0     0     0
SMALL
USER_CHARGES
1,3-diethyl-1,3-diazetidine-2,4-dione
@<TRIPOS>ATOM
      1 C1         -1.3891   -1.4117   -1.4348 C.3       1 <0>        -0.1774
      2 C2         -1.0196   -1.0540    0.0061 C.3       1 <0>         0.1349
      3 N1          0.0021   -0.0041    0.0020 N.am      1 <0>        -0.6287
      4 C3         -0.0162    1.3436    0.0094 C.2       1 <0>         0.7311
      5 O1         -0.8863    2.1903    0.0184 O.2       1 <0>        -0.4628
      6 N2          1.3314    1.3619   -0.0033 N.am      1 <0>        -0.6286
      7 C4          1.3497    0.0143   -0.0108 C.2       1 <0>         0.7311
      8 O2          2.2197   -0.8325   -0.0233 O.2       1 <0>        -0.4628
      9 C5          2.3531    2.4118   -0.0078 C.3       1 <0>         0.1349
     10 C6          2.7225    2.7701    1.4330 C.3       1 <0>        -0.1774
     11 H1         -2.1563   -2.2000   -1.4317 H         1 <0>         0.0812
     12 H2         -0.4947   -1.7725   -1.9639 H         1 <0>         0.0630
     13 H3         -1.7820   -0.5197   -1.9448 H         1 <0>         0.0630
     14 H4         -1.9140   -0.6932    0.5352 H         1 <0>         0.0978
     15 H5         -0.6268   -1.9459    0.5161 H         1 <0>         0.0978
     16 H6          3.2475    2.0508   -0.5367 H         1 <0>         0.0979
     17 H7          1.9603    3.3035   -0.5182 H         1 <0>         0.0978
     18 H8          3.4897    3.5584    1.4296 H         1 <0>         0.0812
     19 H9          3.1153    1.8784    1.9434 H         1 <0>         0.0630
     20 H10         1.8281    3.1311    1.9619 H         1 <0>         0.0630
@<TRIPOS>BOND
     1    1    2 1
     2    1   11 1
     3    1   12 1
     4    1   13 1
     5    2    3 1
     6    2   14 1
     7    2   15 1
     8    3    7 am
     9    3    4 am
    10    4    5 2
    11    4    6 am
    12    6    7 am
    13    6    9 1
    14    7    8 2
    15    9   10 1
    16    9   16 1
    17    9   17 1
    18   10   18 1
    19   10   19 1
    20   10   20 1
@<TRIPOS>MOLECULE
ZINC02146508
   34    37     0     0     0
SMALL
USER_CHARGES
3,4-dichloro-N-[5-(5-chlorobenzothiazol-2-yl)sulfanyl-1,3,4-thiadiazol-2-yl]-benzamide
@<TRIPOS>ATOM
      1 C1        -10.4814    8.3217    0.0903 C.ar      1 <0>        -0.0692
      2 C2        -11.4133    9.3384    0.1051 C.ar      1 <0>        -0.1012
      3 C3        -11.0005   10.6601    0.1085 C.ar      1 <0>        -0.0023
      4 C4         -9.6491   10.9699    0.1033 C.ar      1 <0>        -0.0390
      5 C5         -8.7077    9.9612    0.0943 C.ar      1 <0>        -0.0314
      6 C6         -9.1190    8.6266    0.0904 C.ar      1 <0>        -0.1202
      7 C7         -8.1162    7.5417    0.0802 C.2       1 <0>         0.5610
      8 O1         -6.9304    7.8099    0.0752 O.2       1 <0>        -0.4482
      9 N1         -8.5160    6.2546    0.0764 N.am      1 <0>        -0.6067
     10 C8         -7.5717    5.2329    0.0668 C.2       1 <0>         0.2932
     11 N2         -6.2496    5.2964    0.0598 N.2       1 <0>        -0.2633
     12 N3         -5.5311    4.2598    0.0510 N.2       1 <0>        -0.2314
     13 C9         -6.0557    3.0435    0.0482 C.2       1 <0>        -0.0536
     14 S1         -7.7979    3.4568    0.0519 S.3       1 <0>         0.0923
     15 S2         -5.2651    1.4689    0.0366 S.3       1 <0>         0.3574
     16 C10        -3.5771    1.9741    0.0302 C.2       1 <0>         0.0511
     17 N4         -2.4939    1.2298    0.0210 N.2       1 <0>        -0.4684
     18 C11        -1.2511    1.7585    0.0176 C.ar      1 <0>         0.0885
     19 C12        -0.0126    1.0758    0.0080 C.ar      1 <0>        -0.0486
     20 C13         1.1701    1.7703    0.0004 C.ar      1 <0>        -0.0286
     21 C14         1.1955    3.1584    0.0067 C.ar      1 <0>        -0.0825
     22 C15         0.0022    3.8573    0.0214 C.ar      1 <0>        -0.0513
     23 C16        -1.1857    3.1703    0.0295 C.ar      1 <0>        -0.1711
     24 S3         -2.9021    3.6289    0.0480 S.3       1 <0>         0.1512
     25 Cl1         2.6687    0.8941   -0.0180 Cl        1 <0>        -0.0549
     26 Cl2        -9.1406   12.6298    0.1088 Cl        1 <0>        -0.0280
     27 Cl3       -12.1797   11.9341    0.1199 Cl        1 <0>        -0.0290
     28 H1        -10.8051    7.2913    0.0832 H         1 <0>         0.1434
     29 H2        -12.4673    9.1031    0.1096 H         1 <0>         0.1561
     30 H3         -7.6552   10.2032    0.0899 H         1 <0>         0.1615
     31 H4         -9.4621    6.0406    0.0804 H         1 <0>         0.4307
     32 H5          0.0021   -0.0041    0.0020 H         1 <0>         0.1456
     33 H6          2.1374    3.6869    0.0006 H         1 <0>         0.1511
     34 H7          0.0052    4.9373    0.0268 H         1 <0>         0.1459
@<TRIPOS>BOND
     1    1    6 ar
     2    1    2 ar
     3    1   28 1
     4    2    3 ar
     5    2   29 1
     6    3    4 ar
     7    3   27 1
     8    4    5 ar
     9    4   26 1
    10    5    6 ar
    11    5   30 1
    12    6    7 1
    13    7    8 2
    14    7    9 am
    15    9   10 1
    16    9   31 1
    17   10   14 1
    18   10   11 2
    19   11   12 1
    20   12   13 2
    21   13   14 1
    22   13   15 1
    23   15   16 1
    24   16   24 1
    25   16   17 2
    26   17   18 1
    27   18   23 ar
    28   18   19 ar
    29   19   20 ar
    30   19   32 1
    31   20   21 ar
    32   20   25 1
    33   21   22 ar
    34   21   33 1
    35   22   23 ar
    36   22   34 1
    37   23   24 1
