@<TRIPOS>MOLECULE
ZINC03815700
   43    46     0     0     0
SMALL
USER_CHARGES

@<TRIPOS>ATOM
      1 C1         -0.4417    2.5108    0.1274 C.3       1 <0>        -0.4980
      2 S1         -0.2285    0.7138    0.0013 S.o       1 <0>         1.3317
      3 O1          0.3381    0.2184    1.2066 O.2       1 <0>        -0.8500
      4 C2         -1.8753    0.0872    0.0153 C.ar      1 <0>        -0.4539
      5 C3         -2.4807   -0.2316    1.2179 C.ar      1 <0>        -0.0505
      6 C4         -3.7698   -0.7226    1.2359 C.ar      1 <0>        -0.0905
      7 C5         -4.4635   -0.8973    0.0374 C.ar      1 <0>         0.0183
      8 C6         -3.8471   -0.5733   -1.1722 C.ar      1 <0>        -0.1282
      9 C7         -2.5593   -0.0786   -1.1759 C.ar      1 <0>        -0.0372
     10 C8         -5.8450   -1.4235    0.0492 C.2       1 <0>         0.2539
     11 N1         -6.6187   -1.6414   -1.0552 N.pl3     1 <0>        -0.5494
     12 H1         -6.3641   -1.4808   -1.9773 H         1 <0>         0.4258
     13 C9         -7.8254   -2.1307   -0.6157 C.2       1 <0>         0.0559
     14 C10        -7.7421   -2.1946    0.7659 C.2       1 <0>         0.0600
     15 N2         -6.5217   -1.7612    1.1224 N.2       1 <0>        -0.4460
     16 C11        -8.8052   -2.6624    1.6841 C.ar      1 <0>         0.0397
     17 C12        -9.5683   -3.7960    1.3824 C.ar      1 <0>        -0.1547
     18 C13       -10.5481   -4.1969    2.2660 C.ar      1 <0>         0.1020
     19 N3        -10.7699   -3.5273    3.3814 N.ar      1 <0>        -0.4829
     20 C14       -10.0734   -2.4536    3.7038 C.ar      1 <0>         0.1009
     21 C15        -9.0708   -1.9865    2.8804 C.ar      1 <0>        -0.1469
     22 C16        -8.9814   -2.5126   -1.4503 C.ar      1 <0>        -0.0400
     23 C17       -10.2631   -2.0665   -1.1192 C.ar      1 <0>        -0.0563
     24 C18       -11.3392   -2.4265   -1.9026 C.ar      1 <0>        -0.1471
     25 C19       -11.1511   -3.2299   -3.0163 C.ar      1 <0>         0.1129
     26 C20        -9.8817   -3.6756   -3.3498 C.ar      1 <0>        -0.1491
     27 C21        -8.7972   -3.3169   -2.5775 C.ar      1 <0>        -0.0765
     28 F1        -12.2093   -3.5802   -3.7797 F         1 <0>        -0.1335
     29 H2          0.5355    2.9936    0.1264 H         1 <0>         0.1086
     30 H3         -1.0243    2.8681   -0.7218 H         1 <0>         0.1118
     31 H4         -0.9645    2.7506    1.0533 H         1 <0>         0.0820
     32 H5         -1.9427   -0.0960    2.1446 H         1 <0>         0.1340
     33 H6         -4.2409   -0.9717    2.1752 H         1 <0>         0.1409
     34 H7         -4.3783   -0.7065   -2.1030 H         1 <0>         0.1252
     35 H8         -2.0825    0.1760   -2.1109 H         1 <0>         0.1447
     36 H9         -9.3927   -4.3483    0.4711 H         1 <0>         0.1333
     37 H10       -11.1422   -5.0705    2.0420 H         1 <0>         0.1579
     38 H11       -10.2890   -1.9361    4.6268 H         1 <0>         0.1588
     39 H12        -8.5017   -1.1100    3.1527 H         1 <0>         0.1379
     40 H13       -10.4110   -1.4411   -0.2513 H         1 <0>         0.1357
     41 H14       -12.3306   -2.0822   -1.6477 H         1 <0>         0.1434
     42 H15        -9.7412   -4.3013   -4.2187 H         1 <0>         0.1424
     43 H16        -7.8079   -3.6609   -2.8410 H         1 <0>         0.1331
@<TRIPOS>BOND
     1    1    2 1
     2    1   29 1
     3    1   30 1
     4    1   31 1
     5    2    3 2
     6    2    4 1
     7    4    9 ar
     8    4    5 ar
     9    5    6 ar
    10    5   32 1
    11    6    7 ar
    12    6   33 1
    13    7    8 ar
    14    7   10 1
    15    8    9 ar
    16    8   34 1
    17    9   35 1
    18   10   15 2
    19   10   11 1
    20   11   12 1
    21   11   13 1
    22   13   14 2
    23   13   22 1
    24   14   15 1
    25   14   16 1
    26   16   21 ar
    27   16   17 ar
    28   17   18 ar
    29   17   36 1
    30   18   19 ar
    31   18   37 1
    32   19   20 ar
    33   20   21 ar
    34   20   38 1
    35   21   39 1
    36   22   27 ar
    37   22   23 ar
    38   23   24 ar
    39   23   40 1
    40   24   25 ar
    41   24   41 1
    42   25   26 ar
    43   25   28 1
    44   26   27 ar
    45   26   42 1
    46   27   43 1
@<TRIPOS>MOLECULE
ZINC18274812
   43    46     0     0     0
SMALL
USER_CHARGES

@<TRIPOS>ATOM
      1 C1          0.0458    2.4645   -0.3714 C.3       1 <0>        -0.4977
      2 S1          0.1034    0.6635   -0.1624 S.o       1 <0>         1.3328
      3 O1          0.9995    0.3374    0.8912 O.2       1 <0>        -0.8522
      4 C2          0.9248    0.0922   -1.6127 C.ar      1 <0>        -0.4531
      5 C3          0.1894   -0.2245   -2.7411 C.ar      1 <0>        -0.0385
      6 C4          0.8263   -0.6720   -3.8801 C.ar      1 <0>        -0.0921
      7 C5          2.2157   -0.8050   -3.8925 C.ar      1 <0>         0.0171
      8 C6          2.9515   -0.4838   -2.7508 C.ar      1 <0>        -0.1253
      9 C7          2.3027   -0.0324   -1.6200 C.ar      1 <0>        -0.0497
     10 C8          2.9049   -1.2844   -5.1094 C.2       1 <0>         0.2582
     11 N1          4.2515   -1.4590   -5.2384 N.pl3     1 <0>        -0.5486
     12 H1          4.9216   -1.2936   -4.5568 H         1 <0>         0.4252
     13 C9          4.4814   -1.9147   -6.5171 C.2       1 <0>         0.0337
     14 C10         3.2416   -2.0017   -7.1294 C.2       1 <0>         0.0807
     15 N2          2.3171   -1.6154   -6.2370 N.2       1 <0>        -0.4488
     16 C11         2.9826   -2.4473   -8.5186 C.ar      1 <0>        -0.0206
     17 C12         3.6496   -3.5590   -9.0325 C.ar      1 <0>        -0.0694
     18 C13         3.4051   -3.9700  -10.3265 C.ar      1 <0>        -0.1511
     19 C14         2.4988   -3.2799  -11.1154 C.ar      1 <0>         0.1060
     20 C15         1.8337   -2.1747  -10.6093 C.ar      1 <0>        -0.1526
     21 C16         2.0668   -1.7598   -9.3145 C.ar      1 <0>        -0.0599
     22 F1          2.2634   -3.6856  -12.3824 F         1 <0>        -0.1371
     23 C17         5.7881   -2.2443   -7.1163 C.ar      1 <0>         0.0226
     24 C18         6.1399   -1.7662   -8.3862 C.ar      1 <0>        -0.1423
     25 C19         7.3716   -2.0992   -8.9074 C.ar      1 <0>         0.1081
     26 N3          8.2131   -2.8565   -8.2286 N.ar      1 <0>        -0.4784
     27 C20         7.9224   -3.3278   -7.0303 C.ar      1 <0>         0.1071
     28 C21         6.7158   -3.0398   -6.4296 C.ar      1 <0>        -0.1652
     29 H2          1.0609    2.8540   -0.4489 H         1 <0>         0.0810
     30 H3         -0.5069    2.7075   -1.2790 H         1 <0>         0.1130
     31 H4         -0.4514    2.9143    0.4881 H         1 <0>         0.1088
     32 H5         -0.8856   -0.1215   -2.7301 H         1 <0>         0.1470
     33 H6          0.2512   -0.9192   -4.7602 H         1 <0>         0.1462
     34 H7          4.0268   -0.5845   -2.7539 H         1 <0>         0.1202
     35 H8          2.8713    0.2203   -0.7373 H         1 <0>         0.1322
     36 H9          4.3566   -4.0971   -8.4186 H         1 <0>         0.1287
     37 H10         3.9211   -4.8308  -10.7253 H         1 <0>         0.1387
     38 H11         1.1282   -1.6400  -11.2280 H         1 <0>         0.1401
     39 H12         1.5446   -0.9009   -8.9194 H         1 <0>         0.1377
     40 H13         5.4562   -1.1467   -8.9476 H         1 <0>         0.1400
     41 H14         7.6520   -1.7358   -9.8850 H         1 <0>         0.1626
     42 H15         8.6418   -3.9441   -6.5116 H         1 <0>         0.1610
     43 H16         6.4868   -3.4248   -5.4469 H         1 <0>         0.1340
@<TRIPOS>BOND
     1    1    2 1
     2    1   29 1
     3    1   30 1
     4    1   31 1
     5    2    3 2
     6    2    4 1
     7    4    9 ar
     8    4    5 ar
     9    5    6 ar
    10    5   32 1
    11    6    7 ar
    12    6   33 1
    13    7    8 ar
    14    7   10 1
    15    8    9 ar
    16    8   34 1
    17    9   35 1
    18   10   15 2
    19   10   11 1
    20   11   12 1
    21   11   13 1
    22   13   14 2
    23   13   23 1
    24   14   15 1
    25   14   16 1
    26   16   21 ar
    27   16   17 ar
    28   17   18 ar
    29   17   36 1
    30   18   19 ar
    31   18   37 1
    32   19   20 ar
    33   19   22 1
    34   20   21 ar
    35   20   38 1
    36   21   39 1
    37   23   28 ar
    38   23   24 ar
    39   24   25 ar
    40   24   40 1
    41   25   26 ar
    42   25   41 1
    43   26   27 ar
    44   27   28 ar
    45   27   42 1
    46   28   43 1
@<TRIPOS>MOLECULE
ZINC18274812
   43    46     0     0     0
SMALL
USER_CHARGES

@<TRIPOS>ATOM
      1 C1          0.0761    2.5207   -0.3946 C.3       1 <0>        -0.4977
      2 S1          0.1067    0.7194   -0.1829 S.o       1 <0>         1.3328
      3 O1          0.9925    0.3819    0.8757 O.2       1 <0>        -0.8523
      4 C2          0.9273    0.1342   -1.6283 C.ar      1 <0>        -0.4535
      5 C3          0.1933   -0.1734   -2.7600 C.ar      1 <0>        -0.0382
      6 C4          0.8295   -0.6320   -3.8950 C.ar      1 <0>        -0.0929
      7 C5          2.2169   -0.7850   -3.8999 C.ar      1 <0>         0.0183
      8 C6          2.9514   -0.4724   -2.7550 C.ar      1 <0>        -0.1257
      9 C7          2.3033   -0.0102   -1.6282 C.ar      1 <0>        -0.0496
     10 C8          2.9053   -1.2765   -5.1125 C.2       1 <0>         0.2536
     11 N1          4.2517   -1.4710   -5.2346 N.pl3     1 <0>        -0.5504
     12 H1          4.9205   -1.3136   -4.5499 H         1 <0>         0.4255
     13 C9          4.4817   -1.9314   -6.5089 C.2       1 <0>         0.0556
     14 C10         3.2446   -2.0022   -7.1288 C.2       1 <0>         0.0602
     15 N2          2.3192   -1.6008   -6.2417 N.2       1 <0>        -0.4443
     16 C11         2.9879   -2.4463   -8.5176 C.ar      1 <0>         0.0401
     17 C12         3.6482   -3.5593   -9.0502 C.ar      1 <0>        -0.1549
     18 C13         3.3789   -3.9386  -10.3482 C.ar      1 <0>         0.1021
     19 N3          2.5133   -3.2676  -11.0845 N.ar      1 <0>        -0.4831
     20 C14         1.8693   -2.2129  -10.6212 C.ar      1 <0>         0.1008
     21 C15         2.0741   -1.7682   -9.3321 C.ar      1 <0>        -0.1466
     22 C16         5.7882   -2.2812   -7.1001 C.ar      1 <0>        -0.0406
     23 C17         6.1350   -1.8042   -8.3665 C.ar      1 <0>        -0.0561
     24 C18         7.3568   -2.1344   -8.9137 C.ar      1 <0>        -0.1471
     25 C19         8.2399   -2.9383   -8.2101 C.ar      1 <0>         0.1131
     26 C20         7.9012   -3.4146   -6.9533 C.ar      1 <0>        -0.1492
     27 C21         6.6848   -3.0860   -6.3932 C.ar      1 <0>        -0.0767
     28 F1          9.4352   -3.2593   -8.7516 F         1 <0>        -0.1334
     29 H2          1.0971    2.8954   -0.4674 H         1 <0>         0.0810
     30 H3         -0.4683    2.7703   -1.3054 H         1 <0>         0.1130
     31 H4         -0.4189    2.9788    0.4616 H         1 <0>         0.1087
     32 H5         -0.8802   -0.0546   -2.7549 H         1 <0>         0.1468
     33 H6          0.2554   -0.8725   -4.7775 H         1 <0>         0.1457
     34 H7          4.0251   -0.5889   -2.7522 H         1 <0>         0.1204
     35 H8          2.8708    0.2356   -0.7429 H         1 <0>         0.1321
     36 H9          4.3583   -4.1127   -8.4536 H         1 <0>         0.1329
     37 H10         3.8834   -4.7962  -10.7681 H         1 <0>         0.1577
     38 H11         1.1696   -1.6933  -11.2591 H         1 <0>         0.1590
     39 H12         1.5402   -0.9072   -8.9580 H         1 <0>         0.1385
     40 H13         5.4474   -1.1783   -8.9159 H         1 <0>         0.1360
     41 H14         7.6261   -1.7662   -9.8926 H         1 <0>         0.1436
     42 H15         8.5933   -4.0406   -6.4097 H         1 <0>         0.1423
     43 H16         6.4240   -3.4537   -5.4118 H         1 <0>         0.1327
@<TRIPOS>BOND
     1    1    2 1
     2    1   29 1
     3    1   30 1
     4    1   31 1
     5    2    3 2
     6    2    4 1
     7    4    9 ar
     8    4    5 ar
     9    5    6 ar
    10    5   32 1
    11    6    7 ar
    12    6   33 1
    13    7    8 ar
    14    7   10 1
    15    8    9 ar
    16    8   34 1
    17    9   35 1
    18   10   15 2
    19   10   11 1
    20   11   12 1
    21   11   13 1
    22   13   14 2
    23   13   22 1
    24   14   15 1
    25   14   16 1
    26   16   21 ar
    27   16   17 ar
    28   17   18 ar
    29   17   36 1
    30   18   19 ar
    31   18   37 1
    32   19   20 ar
    33   20   21 ar
    34   20   38 1
    35   21   39 1
    36   22   27 ar
    37   22   23 ar
    38   23   24 ar
    39   23   40 1
    40   24   25 ar
    41   24   41 1
    42   25   26 ar
    43   25   28 1
    44   26   27 ar
    45   26   42 1
    46   27   43 1
@<TRIPOS>MOLECULE
ZINC00007460
   40    43     0     0     0
SMALL
USER_CHARGES

@<TRIPOS>ATOM
      1 C1          0.0099    1.3100   -0.6665 C.ar      1 <0>        -0.0873
      2 C2          1.1932    2.0449   -0.6736 C.ar      1 <0>        -0.1031
      3 C3          2.3989    1.4389   -0.4755 C.ar      1 <0>        -0.0878
      4 C4          2.4464    0.0575   -0.2619 C.ar      1 <0>        -0.1050
      5 C5          1.2413   -0.6922   -0.2545 C.ar      1 <0>        -0.0366
      6 C6          0.0201   -0.0377   -0.4614 C.ar      1 <0>        -0.1000
      7 C7          1.3338   -2.0791   -0.0357 C.ar      1 <0>         0.0670
      8 N1          2.5164   -2.6188    0.1508 N.ar      1 <0>        -0.2122
      9 N2          3.6082   -1.9490    0.1455 N.ar      1 <0>        -0.3148
     10 C8          3.6557   -0.6424   -0.0488 C.ar      1 <0>         0.3624
     11 N3          4.8682    0.0284   -0.0441 N.pl3     1 <0>        -0.6425
     12 C9          6.0641   -0.6900    0.0467 C.ar      1 <0>         0.1605
     13 C10         6.1747   -1.9364   -0.5565 C.ar      1 <0>        -0.1016
     14 C11         7.3572   -2.6438   -0.4652 C.ar      1 <0>        -0.0857
     15 C12         8.4313   -2.1122    0.2268 C.ar      1 <0>        -0.0509
     16 C13         8.3240   -0.8708    0.8288 C.ar      1 <0>        -0.0880
     17 C14         7.1459   -0.1562    0.7354 C.ar      1 <0>        -0.1365
     18 Cl1         9.9160   -3.0048    0.3406 Cl        1 <0>        -0.0690
     19 C15         0.0926   -2.9335   -0.0150 C.3       1 <0>        -0.0232
     20 C16        -0.1981   -3.4309   -1.4076 C.ar      1 <0>        -0.0363
     21 C17        -0.9979   -2.6976   -2.2706 C.ar      1 <0>        -0.1703
     22 C18        -1.2425   -3.1855   -3.5404 C.ar      1 <0>         0.0995
     23 N4         -0.7257   -4.3333   -3.9331 N.ar      1 <0>        -0.4856
     24 C19         0.0392   -5.0571   -3.1393 C.ar      1 <0>         0.1005
     25 C20         0.3326   -4.6300   -1.8581 C.ar      1 <0>        -0.1573
     26 H1         -0.9311    1.8168   -0.8216 H         1 <0>         0.1364
     27 H2          1.1553    3.1115   -0.8389 H         1 <0>         0.1355
     28 H3          3.3089    2.0205   -0.4838 H         1 <0>         0.1315
     29 H4         -0.9047   -0.5955   -0.4580 H         1 <0>         0.1411
     30 H5          4.8872    0.9963   -0.1038 H         1 <0>         0.4199
     31 H6          5.3365   -2.3519   -1.0962 H         1 <0>         0.1422
     32 H7          7.4438   -3.6128   -0.9340 H         1 <0>         0.1376
     33 H8          9.1638   -0.4583    1.3683 H         1 <0>         0.1380
     34 H9          7.0641    0.8146    1.2016 H         1 <0>         0.1341
     35 H10         0.2476   -3.7836    0.6494 H         1 <0>         0.1044
     36 H11        -0.7500   -2.3417    0.3426 H         1 <0>         0.0975
     37 H12        -1.4246   -1.7571   -1.9546 H         1 <0>         0.1331
     38 H13        -1.8645   -2.6203   -4.2187 H         1 <0>         0.1558
     39 H14         0.4444   -5.9925   -3.4961 H         1 <0>         0.1573
     40 H15         0.9637   -5.2248   -1.2145 H         1 <0>         0.1397
@<TRIPOS>BOND
     1    1    6 ar
     2    1    2 ar
     3    1   26 1
     4    2    3 ar
     5    2   27 1
     6    3    4 ar
     7    3   28 1
     8    4   10 ar
     9    4    5 ar
    10    5    6 ar
    11    5    7 ar
    12    6   29 1
    13    7    8 ar
    14    7   19 1
    15    8    9 ar
    16    9   10 ar
    17   10   11 1
    18   11   12 1
    19   11   30 1
    20   12   17 ar
    21   12   13 ar
    22   13   14 ar
    23   13   31 1
    24   14   15 ar
    25   14   32 1
    26   15   16 ar
    27   15   18 1
    28   16   17 ar
    29   16   33 1
    30   17   34 1
    31   19   20 1
    32   19   35 1
    33   19   36 1
    34   20   25 ar
    35   20   21 ar
    36   21   22 ar
    37   21   37 1
    38   22   23 ar
    39   22   38 1
    40   23   24 ar
    41   24   25 ar
    42   24   39 1
    43   25   40 1
@<TRIPOS>MOLECULE
ZINC24044436
   76    80     0     0     0
SMALL
USER_CHARGES
1-[5-tert-butyl-2-(p-tolyl)pyrazol-3-yl]-3-[4-(2-morpholinoethoxy)-1-naphthyl]urea
@<TRIPOS>ATOM
      1 C1          3.3307    9.5387   -0.3298 C.3       1 <0>        -0.1193
      2 C2          2.0898    8.6848   -0.2813 C.ar      1 <0>        -0.0892
      3 C3          0.9612    9.0673   -0.9828 C.ar      1 <0>        -0.0934
      4 C4         -0.1775    8.2868   -0.9403 C.ar      1 <0>        -0.1062
      5 C5         -0.1884    7.1174   -0.1919 C.ar      1 <0>         0.1564
      6 C6          0.9444    6.7392    0.5163 C.ar      1 <0>        -0.1500
      7 C7          2.0821    7.5207    0.4649 C.ar      1 <0>        -0.0924
      8 N1         -1.3424    6.3233   -0.1469 N.pl3     1 <0>        -0.3448
      9 C8         -1.3788    4.9645   -0.0790 C.2       1 <0>         0.3309
     10 C9         -2.6878    4.5925   -0.0483 C.2       1 <0>        -0.2629
     11 C10        -3.4651    5.7529   -0.1047 C.2       1 <0>         0.1115
     12 N2         -2.6643    6.7861   -0.1672 N.2       1 <0>        -0.2779
     13 C11        -4.9712    5.8052   -0.0954 C.3       1 <0>         0.0134
     14 C12        -5.4824    5.5257    1.3193 C.3       1 <0>        -0.1388
     15 C13        -5.4360    7.1933   -0.5406 C.3       1 <0>        -0.1390
     16 C14        -5.5242    4.7499   -1.0553 C.3       1 <0>        -0.1399
     17 N3         -0.2771    4.1104   -0.0417 N.am      1 <0>        -0.6731
     18 C15        -0.4603    2.7771    0.0314 C.2       1 <0>         0.7165
     19 O1         -1.5862    2.3190    0.0649 O.2       1 <0>        -0.5445
     20 N4          0.6045    1.9516    0.0675 N.am      1 <0>        -0.6819
     21 C16         0.4162    0.5655    0.0407 C.ar      1 <0>         0.1254
     22 C17        -0.6813    0.0024    0.6542 C.ar      1 <0>        -0.0743
     23 C18        -0.8835   -1.3742    0.6299 C.ar      1 <0>        -0.2061
     24 C19         0.0048   -2.2051    0.0082 C.ar      1 <0>         0.1395
     25 C20         1.1426   -1.6672   -0.6254 C.ar      1 <0>        -0.0565
     26 C21         1.3517   -0.2661   -0.6096 C.ar      1 <0>        -0.0251
     27 C22         2.4862    0.2686   -1.2409 C.ar      1 <0>        -0.1232
     28 C23         3.3687   -0.5639   -1.8588 C.ar      1 <0>        -0.0971
     29 C24         3.1636   -1.9422   -1.8742 C.ar      1 <0>        -0.1313
     30 C25         2.0750   -2.4951   -1.2724 C.ar      1 <0>        -0.0739
     31 O2         -0.2080   -3.5475    0.0012 O.3       1 <0>        -0.2916
     32 C26        -1.3823   -4.0216    0.6634 C.3       1 <0>         0.0605
     33 C27        -1.4510   -5.5459    0.5508 C.3       1 <0>         0.0539
     34 N5         -0.3065   -6.1409    1.2538 N.3       1 <0>        -0.5287
     35 C28        -0.1978   -7.5776    0.9617 C.3       1 <0>         0.0167
     36 C29         1.0390   -8.1436    1.6645 C.3       1 <0>         0.0615
     37 O3          0.9456   -7.8818    3.0674 O.3       1 <0>        -0.3849
     38 C30         0.8389   -6.4921    3.3879 C.3       1 <0>         0.0625
     39 C31        -0.3999   -5.9094    2.7026 C.3       1 <0>         0.0120
     40 H1          3.1476   10.4156   -0.9682 H         1 <0>         0.0687
     41 H2          4.1639    8.9515   -0.7434 H         1 <0>         0.0732
     42 H3          3.5863    9.8722    0.6868 H         1 <0>         0.0734
     43 H4          0.9703    9.9770   -1.5648 H         1 <0>         0.1335
     44 H5         -1.0587    8.5861   -1.4884 H         1 <0>         0.1355
     45 H6          0.9374    5.8324    1.1029 H         1 <0>         0.1262
     46 H7          2.9651    7.2245    1.0118 H         1 <0>         0.1343
     47 H8         -3.0598    3.5802    0.0092 H         1 <0>         0.1784
     48 H9         -6.5817    5.5639    1.3261 H         1 <0>         0.0656
     49 H10        -5.0849    6.2845    2.0094 H         1 <0>         0.0565
     50 H11        -5.1481    4.5278    1.6395 H         1 <0>         0.0614
     51 H12        -6.5353    7.2315   -0.5338 H         1 <0>         0.0604
     52 H13        -5.0684    7.3943   -1.5577 H         1 <0>         0.0568
     53 H14        -5.0385    7.9519    0.1496 H         1 <0>         0.0614
     54 H15        -6.6235    4.7882   -1.0484 H         1 <0>         0.0647
     55 H16        -5.1900    3.7520   -0.7351 H         1 <0>         0.0637
     56 H17        -5.1566    4.9509   -2.0724 H         1 <0>         0.0570
     57 H18         0.7414    4.5248   -0.0719 H         1 <0>         0.4294
     58 H19         1.6215    2.3677    0.1180 H         1 <0>         0.4280
     59 H20        -1.3959    0.6376    1.1566 H         1 <0>         0.1450
     60 H21        -1.7537   -1.7925    1.1139 H         1 <0>         0.1296
     61 H22         2.6580    1.3348   -1.2361 H         1 <0>         0.1222
     62 H23         4.2405   -0.1501   -2.3437 H         1 <0>         0.1243
     63 H24         3.8790   -2.5810   -2.3706 H         1 <0>         0.1250
     64 H25         1.9286   -3.5650   -1.2926 H         1 <0>         0.1353
     65 H26        -1.3465   -3.7335    1.7244 H         1 <0>         0.0659
     66 H27        -2.2726   -3.5787    0.1931 H         1 <0>         0.0716
     67 H28        -2.3868   -5.9052    1.0039 H         1 <0>         0.0605
     68 H29        -1.4216   -5.8370   -0.5096 H         1 <0>         0.0912
     69 H30        -1.0977   -8.0949    1.3258 H         1 <0>         0.0437
     70 H31        -0.1044   -7.7249   -0.1244 H         1 <0>         0.0891
     71 H32         1.0925   -9.2291    1.4949 H         1 <0>         0.1001
     72 H33         1.9424   -7.6643    1.2595 H         1 <0>         0.0618
     73 H34         0.7475   -6.3731    4.4776 H         1 <0>         0.0994
     74 H35         1.7375   -5.9645    3.0355 H         1 <0>         0.0616
     75 H36        -0.4553   -4.8284    2.8983 H         1 <0>         0.0869
     76 H37        -1.3031   -6.3997    3.0948 H         1 <0>         0.0443
@<TRIPOS>BOND
     1    1    2 1
     2    1   40 1
     3    1   41 1
     4    1   42 1
     5    2    7 ar
     6    2    3 ar
     7    3    4 ar
     8    3   43 1
     9    4    5 ar
    10    4   44 1
    11    5    6 ar
    12    5    8 1
    13    6    7 ar
    14    6   45 1
    15    7   46 1
    16    8   12 1
    17    8    9 1
    18    9   10 2
    19    9   17 1
    20   10   11 1
    21   10   47 1
    22   11   12 2
    23   11   13 1
    24   13   14 1
    25   13   15 1
    26   13   16 1
    27   14   48 1
    28   14   49 1
    29   14   50 1
    30   15   51 1
    31   15   52 1
    32   15   53 1
    33   16   54 1
    34   16   55 1
    35   16   56 1
    36   17   18 am
    37   17   57 1
    38   18   19 2
    39   18   20 am
    40   20   21 1
    41   20   58 1
    42   21   26 ar
    43   21   22 ar
    44   22   23 ar
    45   22   59 1
    46   23   24 ar
    47   23   60 1
    48   24   25 ar
    49   24   31 1
    50   25   30 ar
    51   25   26 ar
    52   26   27 ar
    53   27   28 ar
    54   27   61 1
    55   28   29 ar
    56   28   62 1
    57   29   30 ar
    58   29   63 1
    59   30   64 1
    60   31   32 1
    61   32   33 1
    62   32   65 1
    63   32   66 1
    64   33   34 1
    65   33   67 1
    66   33   68 1
    67   34   39 1
    68   34   35 1
    69   35   36 1
    70   35   69 1
    71   35   70 1
    72   36   37 1
    73   36   71 1
    74   36   72 1
    75   37   38 1
    76   38   39 1
    77   38   73 1
    78   38   74 1
    79   39   75 1
    80   39   76 1
@<TRIPOS>MOLECULE
ZINC01493878
   48    50     0     0     0
SMALL
USER_CHARGES

@<TRIPOS>ATOM
      1 C1         -1.0955   -5.0083   -6.9234 C.3       1 <0>         0.0847
      2 N1         -1.5520   -4.3038   -5.7228 N.am      1 <0>        -0.7137
      3 C2         -1.8827   -5.0004   -4.6175 C.2       1 <0>         0.5696
      4 O1         -1.8023   -6.2129   -4.6168 O.2       1 <0>        -0.5284
      5 C3         -2.3445   -4.2878   -3.4031 C.ar      1 <0>         0.1129
      6 C4         -2.6788   -5.0128   -2.2640 C.ar      1 <0>        -0.1883
      7 C5         -3.1110   -4.3279   -1.1310 C.ar      1 <0>         0.1595
      8 C6         -3.1903   -2.9389   -1.1877 C.ar      1 <0>        -0.1766
      9 C7         -2.8404   -2.2885   -2.3571 C.ar      1 <0>         0.1349
     10 N2         -2.4302   -2.9626   -3.4105 N.ar      1 <0>        -0.4815
     11 O2         -3.4471   -4.9979    0.0005 O.3       1 <0>        -0.2437
     12 C8         -3.4462   -6.3570   -0.0383 C.ar      1 <0>         0.0568
     13 C9         -2.2447   -7.0505   -0.0178 C.ar      1 <0>        -0.1074
     14 C10        -2.2431   -8.4307   -0.0577 C.ar      1 <0>        -0.1009
     15 C11        -3.4442   -9.1246   -0.1179 C.ar      1 <0>         0.1671
     16 C12        -4.6464   -8.4301   -0.1379 C.ar      1 <0>        -0.1272
     17 C13        -4.6469   -7.0500   -0.0928 C.ar      1 <0>        -0.0940
     18 N3         -3.4432  -10.5252   -0.1588 N.am      1 <0>        -0.6776
     19 C14        -2.5108  -11.2187    0.5239 C.2       1 <0>         0.7077
     20 O3         -1.6217  -10.6297    1.1080 O.2       1 <0>        -0.5493
     21 N4         -2.5639  -12.5649    0.5593 N.am      1 <0>        -0.6795
     22 C15        -1.6655  -13.2800    1.3600 C.ar      1 <0>         0.1700
     23 C16        -1.2529  -12.7583    2.5792 C.ar      1 <0>        -0.0742
     24 C17        -0.3670  -13.4659    3.3674 C.ar      1 <0>        -0.0871
     25 C18         0.1097  -14.6941    2.9434 C.ar      1 <0>        -0.0077
     26 C19        -0.2993  -15.2159    1.7290 C.ar      1 <0>        -0.1564
     27 C20        -1.1898  -14.5147    0.9394 C.ar      1 <0>        -0.0879
     28 C21         0.2222  -16.5533    1.2702 C.3       1 <0>         0.5112
     29 F1         -0.3299  -16.8663    0.0234 F         1 <0>        -0.1743
     30 F2          1.6160  -16.4983    1.1626 F         1 <0>        -0.1671
     31 F3         -0.1354  -17.5367    2.1987 F         1 <0>        -0.1677
     32 Cl1         1.2234  -15.5812    3.9366 Cl        1 <0>        -0.0394
     33 H1         -0.8760   -4.2843   -7.7081 H         1 <0>         0.0803
     34 H2         -0.1948   -5.5764   -6.6909 H         1 <0>         0.0631
     35 H3         -1.8761   -5.6883   -7.2645 H         1 <0>         0.0629
     36 H4         -1.6162   -3.3359   -5.7233 H         1 <0>         0.4141
     37 H5         -2.6047   -6.0902   -2.2584 H         1 <0>         0.1546
     38 H6         -3.5217   -2.3755   -0.3280 H         1 <0>         0.1523
     39 H7         -2.9005   -1.2112   -2.4052 H         1 <0>         0.1747
     40 H8         -1.3104   -6.5106    0.0290 H         1 <0>         0.1364
     41 H9         -1.3078   -8.9704   -0.0424 H         1 <0>         0.1514
     42 H10        -5.5809   -8.9693   -0.1851 H         1 <0>         0.1386
     43 H11        -5.5820   -6.5098   -0.1039 H         1 <0>         0.1400
     44 H12        -4.1137  -10.9957   -0.6785 H         1 <0>         0.4131
     45 H13        -3.2246  -13.0383    0.0299 H         1 <0>         0.4146
     46 H14        -1.6244  -11.7997    2.9103 H         1 <0>         0.1546
     47 H15        -0.0456  -13.0604    4.3154 H         1 <0>         0.1524
     48 H16        -1.5123  -14.9245   -0.0064 H         1 <0>         0.1525
@<TRIPOS>BOND
     1    1    2 1
     2    1   33 1
     3    1   34 1
     4    1   35 1
     5    2    3 am
     6    2   36 1
     7    3    4 2
     8    3    5 1
     9    5   10 ar
    10    5    6 ar
    11    6    7 ar
    12    6   37 1
    13    7    8 ar
    14    7   11 1
    15    8    9 ar
    16    8   38 1
    17    9   10 ar
    18    9   39 1
    19   11   12 1
    20   12   17 ar
    21   12   13 ar
    22   13   14 ar
    23   13   40 1
    24   14   15 ar
    25   14   41 1
    26   15   16 ar
    27   15   18 1
    28   16   17 ar
    29   16   42 1
    30   17   43 1
    31   18   19 am
    32   18   44 1
    33   19   20 2
    34   19   21 am
    35   21   22 1
    36   21   45 1
    37   22   27 ar
    38   22   23 ar
    39   23   24 ar
    40   23   46 1
    41   24   25 ar
    42   24   47 1
    43   25   26 ar
    44   25   32 1
    45   26   27 ar
    46   26   28 1
    47   27   48 1
    48   28   29 1
    49   28   30 1
    50   28   31 1
@<TRIPOS>MOLECULE
ZINC03814434
   62    69     0     0     0
SMALL
USER_CHARGES

@<TRIPOS>ATOM
      1 C1         -0.1295    1.5952   -0.2973 C.3       1 <0>        -0.1687
      2 C2         -0.0862    0.0696   -0.1900 C.3       1 <0>         0.3342
      3 C3          0.5692   -0.4501   -1.4637 C.3       1 <0>         0.0405
      4 H1          1.4796    0.1159   -1.6612 H         1 <0>         0.1372
      5 C4          0.9167   -1.9328   -1.2889 C.3       1 <0>        -0.0061
      6 H2          1.3963   -2.3075   -2.1932 H         1 <0>         0.1555
      7 C5          1.8785   -2.0596   -0.1021 C.3       1 <0>        -0.1827
      8 C6          1.2061   -1.5198    1.1541 C.3       1 <0>         0.2999
      9 H3          1.9797   -1.4243    1.9161 H         1 <0>         0.1550
     10 O1          0.6555   -0.2442    0.9666 O.3       1 <0>        -0.3234
     11 N1          0.2189   -2.4746    1.6600 N.pl3     1 <0>        -0.5366
     12 C7          0.4705   -3.5508    2.4739 C.ar      1 <0>         0.1469
     13 C8          1.6649   -4.0152    3.0240 C.ar      1 <0>        -0.1522
     14 C9          1.5948   -5.1456    3.8201 C.ar      1 <0>        -0.0582
     15 C10         0.4006   -5.7997    4.0696 C.ar      1 <0>        -0.1457
     16 C11        -0.7984   -5.3597    3.5358 C.ar      1 <0>        -0.0280
     17 C12        -0.7487   -4.2198    2.7307 C.ar      1 <0>        -0.1131
     18 C13        -1.7893   -3.4830    2.0197 C.ar      1 <0>         0.0276
     19 C14        -1.1442   -2.4197    1.3841 C.ar      1 <0>         0.0376
     20 C15        -1.8806   -1.5095    0.6175 C.ar      1 <0>         0.0894
     21 N2         -1.4718   -0.3951   -0.1095 N.pl3     1 <0>        -0.5183
     22 C16        -2.5611    0.1913   -0.7090 C.ar      1 <0>         0.1618
     23 C17        -2.6521    1.3277   -1.5118 C.ar      1 <0>        -0.1305
     24 C18        -3.9109    1.6745   -1.9733 C.ar      1 <0>        -0.0737
     25 C19        -5.0393    0.9368   -1.6616 C.ar      1 <0>        -0.1358
     26 C20        -4.9745   -0.1955   -0.8662 C.ar      1 <0>        -0.0503
     27 C21        -3.7147   -0.5596   -0.3919 C.ar      1 <0>        -0.1042
     28 C22        -3.2693   -1.6660    0.4845 C.ar      1 <0>        -0.0360
     29 C23        -3.9084   -2.7313    1.1102 C.ar      1 <0>        -0.0288
     30 C24        -3.1873   -3.6421    1.8754 C.ar      1 <0>        -0.1255
     31 C25        -4.1221   -4.6480    2.4030 C.2       1 <0>         0.5632
     32 O2         -3.8062   -5.5851    3.1110 O.2       1 <0>        -0.5106
     33 N3         -5.3744   -4.3851    1.9926 N.am      1 <0>        -0.7162
     34 C26        -5.3495   -3.1771    1.1601 C.3       1 <0>         0.1358
     35 N4         -0.3067   -2.7008   -1.0216 N.4       1 <0>        -0.5252
     36 C27         0.0145   -4.1336   -0.9773 C.3       1 <0>        -0.0497
     37 O3         -0.3340   -0.2979   -2.5607 O.3       1 <0>        -0.3614
     38 C28         0.3101   -0.0933   -3.8198 C.3       1 <0>         0.0162
     39 H4          0.8261    2.0094    0.0240 H         1 <0>         0.0984
     40 H5         -0.3202    1.8814   -1.3317 H         1 <0>         0.1036
     41 H6         -0.9255    1.9818    0.3392 H         1 <0>         0.0921
     42 H7          2.1370   -3.1081    0.0458 H         1 <0>         0.1233
     43 H8          2.7835   -1.4869   -0.3048 H         1 <0>         0.1455
     44 H9          2.6036   -3.5149    2.8368 H         1 <0>         0.1365
     45 H10         2.5026   -5.5304    4.2610 H         1 <0>         0.1359
     46 H11         0.4045   -6.6780    4.6980 H         1 <0>         0.1352
     47 H12        -1.7278   -5.8736    3.7323 H         1 <0>         0.1600
     48 H13        -1.7792    1.9122   -1.7624 H         1 <0>         0.1440
     49 H14        -4.0153    2.5500   -2.5970 H         1 <0>         0.1336
     50 H15        -5.9967    1.2527   -2.0488 H         1 <0>         0.1332
     51 H16        -5.8575   -0.7687   -0.6249 H         1 <0>         0.1415
     52 H17        -6.1628   -4.9065    2.2103 H         1 <0>         0.4348
     53 H18        -5.9671   -2.3994    1.6094 H         1 <0>         0.1115
     54 H19        -5.7060   -3.4063    0.1559 H         1 <0>         0.1103
     55 H20        -0.6958   -2.4158   -0.1353 H         1 <0>         0.4186
     56 H21         0.4349   -4.4415   -1.9347 H         1 <0>         0.1256
     57 H22         0.7403   -4.3189   -0.1854 H         1 <0>         0.1191
     58 H23        -0.8932   -4.7035   -0.7789 H         1 <0>         0.1256
     59 H24         0.9168    0.8112   -3.7748 H         1 <0>         0.0633
     60 H25         0.9482   -0.9479   -4.0446 H         1 <0>         0.0514
     61 H26        -0.4433    0.0130   -4.6003 H         1 <0>         0.1100
     62 H27        -0.9785   -2.5293   -1.7546 H         1 <0>         0.4274
@<TRIPOS>BOND
     1    1    2 1
     2    1   39 1
     3    1   40 1
     4    1   41 1
     5    2   10 1
     6    2   21 1
     7    2    3 1
     8    3    4 1
     9    3    5 1
    10    3   37 1
    11    5    6 1
    12    5    7 1
    13    5   35 1
    14    7    8 1
    15    7   42 1
    16    7   43 1
    17    8    9 1
    18    8   10 1
    19    8   11 1
    20   11   19 1
    21   11   12 1
    22   12   17 ar
    23   12   13 ar
    24   13   14 ar
    25   13   44 1
    26   14   15 ar
    27   14   45 1
    28   15   16 ar
    29   15   46 1
    30   16   17 ar
    31   16   47 1
    32   17   18 1
    33   18   30 ar
    34   18   19 ar
    35   19   20 ar
    36   20   28 ar
    37   20   21 1
    38   21   22 1
    39   22   27 ar
    40   22   23 ar
    41   23   24 ar
    42   23   48 1
    43   24   25 ar
    44   24   49 1
    45   25   26 ar
    46   25   50 1
    47   26   27 ar
    48   26   51 1
    49   27   28 1
    50   28   29 ar
    51   29   34 1
    52   29   30 ar
    53   30   31 1
    54   31   32 2
    55   31   33 am
    56   33   34 1
    57   33   52 1
    58   34   53 1
    59   34   54 1
    60   35   36 1
    61   35   55 1
    62   35   62 1
    63   36   56 1
    64   36   57 1
    65   36   58 1
    66   37   38 1
    67   38   59 1
    68   38   60 1
    69   38   61 1
@<TRIPOS>MOLECULE
ZINC16697102
   68    71     0     0     0
SMALL
USER_CHARGES

@<TRIPOS>ATOM
      1 C1          0.1414    1.0953    0.0252 C.3       1 <0>        -0.1879
      2 C2          0.0344   -0.4077    0.2904 C.3       1 <0>        -0.0179
      3 N1         -1.3805   -0.7845    0.4095 N.4       1 <0>        -0.3831
      4 C3         -1.4799   -2.1986    0.7946 C.3       1 <0>        -0.0114
      5 C4         -0.8914   -2.3887    2.1940 C.3       1 <0>        -0.1507
      6 C5         -0.9950   -3.8615    2.5951 C.3       1 <0>         0.0609
      7 O1         -0.4452   -4.0391    3.9021 O.3       1 <0>        -0.3065
      8 C6         -0.4595   -5.2979    4.4111 C.ar      1 <0>         0.1651
      9 C7         -0.9928   -6.3439    3.6526 C.ar      1 <0>        -0.2107
     10 C8         -1.0196   -7.6158    4.1389 C.ar      1 <0>        -0.0238
     11 C9         -0.5074   -7.8823    5.4144 C.ar      1 <0>        -0.2178
     12 C10         0.0354   -6.8287    6.1913 C.ar      1 <0>         0.2289
     13 C11         0.0571   -5.5307    5.6679 C.ar      1 <0>        -0.1455
     14 N2          0.5204   -7.1100    7.4103 N.ar      1 <0>        -0.5500
     15 C12         0.4909   -8.3384    7.8707 C.ar      1 <0>         0.3626
     16 N3         -0.0056   -9.3531    7.1820 N.ar      1 <0>        -0.5775
     17 C13        -0.5106   -9.1853    5.9662 C.ar      1 <0>         0.4884
     18 N4         -1.0254  -10.2523    5.2597 N.pl3     1 <0>        -0.5978
     19 C14        -1.0192  -11.5341    5.8239 C.2       1 <0>         0.2990
     20 C15        -0.5280  -11.8736    7.0950 C.2       1 <0>        -0.2355
     21 C16        -0.7031  -13.2037    7.2657 C.2       1 <0>         0.1068
     22 N5         -1.2824  -13.6919    6.1487 N.pl3     1 <0>        -0.4559
     23 H1         -1.5251  -14.6176    5.9907 H         1 <0>         0.4419
     24 N6         -1.4765  -12.6271    5.2595 N.2       1 <0>        -0.3116
     25 C17        -0.3191  -13.9996    8.4864 C.3       1 <0>        -0.0770
     26 C18        -1.4265  -13.9219    9.5056 C.2       1 <0>         0.5143
     27 O2         -2.4289  -13.2831    9.2644 O.2       1 <0>        -0.5002
     28 N7         -1.3030  -14.5622   10.6851 N.am      1 <0>        -0.6720
     29 C19        -2.2828  -14.4064   11.6717 C.ar      1 <0>         0.1711
     30 C20        -1.9219  -14.3818   13.0129 C.ar      1 <0>        -0.1532
     31 C21        -2.8902  -14.2274   13.9854 C.ar      1 <0>        -0.0700
     32 C22        -4.2191  -14.0976   13.6262 C.ar      1 <0>        -0.1667
     33 C23        -4.5833  -14.1215   12.2902 C.ar      1 <0>         0.1178
     34 C24        -3.6165  -14.2702   11.3118 C.ar      1 <0>        -0.1591
     35 F1         -5.8825  -13.9949   11.9421 F         1 <0>        -0.1354
     36 C25        -2.0519   -0.5800   -0.8810 C.3       1 <0>        -0.0098
     37 C26        -3.5535   -0.8247   -0.7191 C.3       1 <0>         0.0446
     38 O3         -4.1050    0.1610    0.1562 O.3       1 <0>        -0.5793
     39 H2          1.1903    1.3917    0.0323 H         1 <0>         0.1072
     40 H3         -0.2944    1.3246   -0.9472 H         1 <0>         0.0804
     41 H4         -0.3955    1.6404    0.8016 H         1 <0>         0.0817
     42 H5          0.4880   -0.9556   -0.5355 H         1 <0>         0.1307
     43 H6          0.5544   -0.6511    1.2170 H         1 <0>         0.1338
     44 H7         -2.5269   -2.5019    0.7965 H         1 <0>         0.1336
     45 H8         -0.9261   -2.8092    0.0814 H         1 <0>         0.1348
     46 H9          0.1556   -2.0854    2.1921 H         1 <0>         0.1011
     47 H10        -1.4452   -1.7781    2.9071 H         1 <0>         0.1012
     48 H11        -2.0419   -4.1648    2.5970 H         1 <0>         0.0752
     49 H12        -0.4411   -4.4721    1.8820 H         1 <0>         0.0757
     50 H13        -1.3888   -6.1408    2.6686 H         1 <0>         0.1349
     51 H14        -1.4346   -8.4154    3.5432 H         1 <0>         0.1334
     52 H15         0.4712   -4.7175    6.2456 H         1 <0>         0.1508
     53 H16         0.8901   -8.5298    8.8558 H         1 <0>         0.2027
     54 H17        -1.3916  -10.1149    4.3721 H         1 <0>         0.4252
     55 H18        -0.0885  -11.1933    7.8093 H         1 <0>         0.1852
     56 H19        -0.1563  -15.0401    8.2054 H         1 <0>         0.1142
     57 H20         0.5968  -13.5910    8.9133 H         1 <0>         0.1312
     58 H21        -0.5348  -15.1312   10.8499 H         1 <0>         0.4166
     59 H22        -0.8844  -14.4838   13.2950 H         1 <0>         0.1350
     60 H23        -2.6091  -14.2084   15.0280 H         1 <0>         0.1399
     61 H24        -4.9744  -13.9777   14.3888 H         1 <0>         0.1383
     62 H25        -3.8995  -14.2849   10.2696 H         1 <0>         0.1494
     63 H26        -1.8848    0.4425   -1.2196 H         1 <0>         0.1421
     64 H27        -1.6474   -1.2765   -1.6154 H         1 <0>         0.1431
     65 H28        -4.0394   -0.7588   -1.6926 H         1 <0>         0.0960
     66 H29        -3.7166   -1.8167   -0.2980 H         1 <0>         0.0707
     67 H30        -5.0389    0.0226    0.3657 H         1 <0>         0.4093
     68 H31        -1.8228   -0.2123    1.1131 H         1 <0>         0.4316
@<TRIPOS>BOND
     1    1    2 1
     2    1   39 1
     3    1   40 1
     4    1   41 1
     5    2    3 1
     6    2   42 1
     7    2   43 1
     8    3    4 1
     9    3   36 1
    10    3   68 1
    11    4    5 1
    12    4   44 1
    13    4   45 1
    14    5    6 1
    15    5   46 1
    16    5   47 1
    17    6    7 1
    18    6   48 1
    19    6   49 1
    20    7    8 1
    21    8   13 ar
    22    8    9 ar
    23    9   10 ar
    24    9   50 1
    25   10   11 ar
    26   10   51 1
    27   11   17 ar
    28   11   12 ar
    29   12   13 ar
    30   12   14 ar
    31   13   52 1
    32   14   15 ar
    33   15   16 ar
    34   15   53 1
    35   16   17 ar
    36   17   18 1
    37   18   19 1
    38   18   54 1
    39   19   24 2
    40   19   20 1
    41   20   21 2
    42   20   55 1
    43   21   22 1
    44   21   25 1
    45   22   23 1
    46   22   24 1
    47   25   26 1
    48   25   56 1
    49   25   57 1
    50   26   27 2
    51   26   28 am
    52   28   29 1
    53   28   58 1
    54   29   34 ar
    55   29   30 ar
    56   30   31 ar
    57   30   59 1
    58   31   32 ar
    59   31   60 1
    60   32   33 ar
    61   32   61 1
    62   33   34 ar
    63   33   35 1
    64   34   62 1
    65   36   37 1
    66   36   63 1
    67   36   64 1
    68   37   38 1
    69   37   65 1
    70   37   66 1
    71   38   67 1
@<TRIPOS>MOLECULE
ZINC16697102
   68    71     0     0     0
SMALL
USER_CHARGES

@<TRIPOS>ATOM
      1 C1          0.1009    1.0895    0.0671 C.3       1 <0>        -0.1880
      2 C2          0.0005   -0.4150    0.3267 C.3       1 <0>        -0.0178
      3 N1         -1.4127   -0.7982    0.4447 N.4       1 <0>        -0.3831
      4 C3         -1.5060   -2.2142    0.8244 C.3       1 <0>        -0.0114
      5 C4         -0.9163   -2.4070    2.2230 C.3       1 <0>        -0.1510
      6 C5         -1.0135   -3.8818    2.6185 C.3       1 <0>         0.0610
      7 O1         -0.4626   -4.0619    3.9247 O.3       1 <0>        -0.3058
      8 C6         -0.4714   -5.3227    4.4290 C.ar      1 <0>         0.1652
      9 C7         -1.0003   -6.3681    3.6667 C.ar      1 <0>        -0.2079
     10 C8         -1.0216   -7.6420    4.1481 C.ar      1 <0>        -0.0271
     11 C9         -0.5079   -7.9111    5.4225 C.ar      1 <0>        -0.2157
     12 C10         0.0306   -6.8581    6.2032 C.ar      1 <0>         0.2279
     13 C11         0.0466   -5.5580    5.6848 C.ar      1 <0>        -0.1434
     14 N2          0.5172   -7.1419    7.4211 N.ar      1 <0>        -0.5462
     15 C12         0.4930   -8.3722    7.8768 C.ar      1 <0>         0.3627
     16 N3          0.0007   -9.3864    7.1844 N.ar      1 <0>        -0.5729
     17 C13        -0.5054   -9.2161    5.9694 C.ar      1 <0>         0.4842
     18 N4         -1.0159  -10.2829    5.2588 N.pl3     1 <0>        -0.6133
     19 C14        -1.0041  -11.5601    5.8152 C.2       1 <0>         0.2975
     20 C15        -0.5278  -11.8985    7.0451 C.2       1 <0>        -0.2522
     21 C16        -0.7053  -13.2747    7.2096 C.2       1 <0>         0.0931
     22 N5         -1.2647  -13.7522    6.1276 N.2       1 <0>        -0.2441
     23 N6         -1.4709  -12.6946    5.2325 N.pl3     1 <0>        -0.4898
     24 H1         -1.8732  -12.7611    4.3523 H         1 <0>         0.4364
     25 C17        -0.3175  -14.0738    8.4270 C.3       1 <0>        -0.0571
     26 C18        -1.5188  -14.8275    8.9368 C.2       1 <0>         0.5153
     27 O2         -2.5849  -14.7257    8.3676 O.2       1 <0>        -0.4982
     28 N7         -1.4084  -15.6146   10.0253 N.am      1 <0>        -0.6749
     29 C19        -2.5443  -16.2321   10.5602 C.ar      1 <0>         0.1739
     30 C20        -2.6655  -16.3952   11.9344 C.ar      1 <0>        -0.1553
     31 C21        -3.7876  -17.0044   12.4607 C.ar      1 <0>        -0.0709
     32 C22        -4.7909  -17.4530   11.6216 C.ar      1 <0>        -0.1690
     33 C23        -4.6742  -17.2924   10.2511 C.ar      1 <0>         0.1173
     34 C24        -3.5547  -16.6775    9.7191 C.ar      1 <0>        -0.1594
     35 F1         -5.6558  -17.7320    9.4336 F         1 <0>        -0.1360
     36 C25        -2.0854   -0.5918   -0.8449 C.3       1 <0>        -0.0099
     37 C26        -3.5858   -0.8435   -0.6835 C.3       1 <0>         0.0446
     38 O3         -4.1414    0.1365    0.1957 O.3       1 <0>        -0.5792
     39 H2          1.1486    1.3904    0.0751 H         1 <0>         0.1074
     40 H3         -0.3361    1.3206   -0.9043 H         1 <0>         0.0805
     41 H4         -0.4380    1.6293    0.8457 H         1 <0>         0.0817
     42 H5          0.4562   -0.9578   -0.5014 H         1 <0>         0.1308
     43 H6          0.5217   -0.6596    1.2522 H         1 <0>         0.1337
     44 H7         -2.5517   -2.5220    0.8255 H         1 <0>         0.1335
     45 H8         -0.9498   -2.8197    0.1089 H         1 <0>         0.1347
     46 H9          0.1294   -2.0993    2.2220 H         1 <0>         0.1014
     47 H10        -1.4725   -1.8015    2.9385 H         1 <0>         0.1015
     48 H11        -2.0591   -4.1896    2.6196 H         1 <0>         0.0752
     49 H12        -0.4572   -4.4873    1.9030 H         1 <0>         0.0757
     50 H13        -1.3975   -6.1630    2.6836 H         1 <0>         0.1354
     51 H14        -1.4333   -8.4411    3.5496 H         1 <0>         0.1313
     52 H15         0.4574   -4.7453    6.2654 H         1 <0>         0.1520
     53 H16         0.8932   -8.5656    8.8611 H         1 <0>         0.2055
     54 H17        -1.3830  -10.1437    4.3718 H         1 <0>         0.4209
     55 H18        -0.0902  -11.2232    7.7655 H         1 <0>         0.1880
     56 H19         0.4693  -14.7803    8.1624 H         1 <0>         0.1181
     57 H20         0.0452  -13.4002    9.2034 H         1 <0>         0.1229
     58 H21        -0.5415  -15.7530   10.4378 H         1 <0>         0.4158
     59 H22        -1.8824  -16.0460   12.5909 H         1 <0>         0.1343
     60 H23        -3.8814  -17.1310   13.5291 H         1 <0>         0.1388
     61 H24        -5.6670  -17.9297   12.0358 H         1 <0>         0.1372
     62 H25        -3.4650  -16.5484    8.6506 H         1 <0>         0.1513
     63 H26        -1.9227    0.4328   -1.1796 H         1 <0>         0.1424
     64 H27        -1.6780   -1.2838   -1.5820 H         1 <0>         0.1432
     65 H28        -4.0723   -0.7760   -1.6566 H         1 <0>         0.0961
     66 H29        -3.7446   -1.8378   -0.2661 H         1 <0>         0.0704
     67 H30        -5.0746   -0.0067    0.4048 H         1 <0>         0.4093
     68 H31        -1.8573   -0.2307    1.1505 H         1 <0>         0.4316
@<TRIPOS>BOND
     1    1    2 1
     2    1   39 1
     3    1   40 1
     4    1   41 1
     5    2    3 1
     6    2   42 1
     7    2   43 1
     8    3    4 1
     9    3   36 1
    10    3   68 1
    11    4    5 1
    12    4   44 1
    13    4   45 1
    14    5    6 1
    15    5   46 1
    16    5   47 1
    17    6    7 1
    18    6   48 1
    19    6   49 1
    20    7    8 1
    21    8   13 ar
    22    8    9 ar
    23    9   10 ar
    24    9   50 1
    25   10   11 ar
    26   10   51 1
    27   11   17 ar
    28   11   12 ar
    29   12   13 ar
    30   12   14 ar
    31   13   52 1
    32   14   15 ar
    33   15   16 ar
    34   15   53 1
    35   16   17 ar
    36   17   18 1
    37   18   19 1
    38   18   54 1
    39   19   23 1
    40   19   20 2
    41   20   21 1
    42   20   55 1
    43   21   22 2
    44   21   25 1
    45   22   23 1
    46   23   24 1
    47   25   26 1
    48   25   56 1
    49   25   57 1
    50   26   27 2
    51   26   28 am
    52   28   29 1
    53   28   58 1
    54   29   34 ar
    55   29   30 ar
    56   30   31 ar
    57   30   59 1
    58   31   32 ar
    59   31   60 1
    60   32   33 ar
    61   32   61 1
    62   33   34 ar
    63   33   35 1
    64   34   62 1
    65   36   37 1
    66   36   63 1
    67   36   64 1
    68   37   38 1
    69   37   65 1
    70   37   66 1
    71   38   67 1
@<TRIPOS>MOLECULE
ZINC03834198
   55    58     0     0     0
SMALL
USER_CHARGES

@<TRIPOS>ATOM
      1 C1          2.2102    1.3214   -1.5438 C.3       1 <0>        -0.0473
      2 N1          2.0302   -0.1310   -1.4177 N.4       1 <0>        -0.3861
      3 C2          2.8485   -0.8135   -2.4272 C.3       1 <0>        -0.0039
      4 C3          2.6029   -2.3220   -2.3537 C.3       1 <0>        -0.1426
      5 C4          2.9828   -2.8281   -0.9591 C.3       1 <0>        -0.0980
      6 C5          2.1768   -2.0570    0.0901 C.3       1 <0>        -0.1436
      7 C6          2.4382   -0.5583   -0.0740 C.3       1 <0>        -0.0065
      8 C7          2.6653   -4.3210   -0.8526 C.3       1 <0>         0.0553
      9 O1          3.1265   -4.8175    0.4056 O.3       1 <0>        -0.2959
     10 C8          2.9210   -6.1358    0.6612 C.ar      1 <0>         0.1621
     11 C9          2.2972   -6.9233   -0.2811 C.ar      1 <0>        -0.1791
     12 C10         2.0867   -8.2816   -0.0149 C.ar      1 <0>         0.2018
     13 C11         2.5192   -8.8246    1.2204 C.ar      1 <0>        -0.1784
     14 C12         3.1508   -8.0026    2.1612 C.ar      1 <0>        -0.1424
     15 C13         3.3512   -6.6812    1.8787 C.ar      1 <0>         0.1099
     16 O2          3.9702   -5.8850    2.7909 O.3       1 <0>        -0.3030
     17 C14         4.3854   -6.4992    4.0125 C.3       1 <0>         0.0198
     18 C15         2.2930  -10.2009    1.4605 C.ar      1 <0>         0.4667
     19 N2          1.6881  -10.9114    0.5174 N.ar      1 <0>        -0.5768
     20 C16         1.3012  -10.3606   -0.6222 C.ar      1 <0>         0.3478
     21 N3          1.4842   -9.0917   -0.8996 N.ar      1 <0>        -0.5414
     22 N4          2.6915  -10.7885    2.6441 N.pl3     1 <0>        -0.6296
     23 C17         2.5831  -12.1741    2.8088 C.ar      1 <0>         0.1376
     24 C18         2.4560  -12.9987    1.6992 C.ar      1 <0>        -0.1039
     25 C19         2.3491  -14.3660    1.8644 C.ar      1 <0>        -0.0732
     26 C20         2.3685  -14.9152    3.1341 C.ar      1 <0>        -0.0857
     27 C21         2.4949  -14.0974    4.2430 C.ar      1 <0>        -0.1007
     28 C22         2.6081  -12.7284    4.0841 C.ar      1 <0>         0.0686
     29 F1          2.7372  -11.9301    5.1664 F         1 <0>        -0.1332
     30 Br1         2.2212  -16.7875    3.3546 Br        1 <0>        -0.0295
     31 H1          3.2589    1.5727   -1.3848 H         1 <0>         0.1219
     32 H2          1.9075    1.6398   -2.5414 H         1 <0>         0.1242
     33 H3          1.5979    1.8295   -0.7989 H         1 <0>         0.1242
     34 H4          2.5792   -0.4499   -3.4189 H         1 <0>         0.1343
     35 H5          3.9024   -0.6078   -2.2397 H         1 <0>         0.1306
     36 H6          1.5493   -2.5288   -2.5414 H         1 <0>         0.0934
     37 H7          3.2127   -2.8271   -3.1028 H         1 <0>         0.1176
     38 H8          4.0478   -2.6678   -0.7908 H         1 <0>         0.1030
     39 H9          1.1143   -2.2583   -0.0469 H         1 <0>         0.0893
     40 H10         2.4820   -2.3726    1.0878 H         1 <0>         0.1210
     41 H11         3.5008   -0.3580    0.0634 H         1 <0>         0.1299
     42 H12         1.8660   -0.0063    0.6716 H         1 <0>         0.1325
     43 H13         1.5883   -4.4698   -0.9292 H         1 <0>         0.0742
     44 H14         3.1645   -4.8571   -1.6597 H         1 <0>         0.0787
     45 H15         1.9724   -6.4960   -1.2182 H         1 <0>         0.1540
     46 H16         3.4818   -8.4122    3.1042 H         1 <0>         0.1414
     47 H17         4.8638   -5.7549    4.6491 H         1 <0>         0.1093
     48 H18         3.5165   -6.9116    4.5254 H         1 <0>         0.0597
     49 H19         5.0925   -7.2996    3.7947 H         1 <0>         0.0600
     50 H20         0.8133  -10.9840   -1.3569 H         1 <0>         0.2036
     51 H21         3.0467  -10.2411    3.3618 H         1 <0>         0.4241
     52 H22         2.4404  -12.5714    0.7074 H         1 <0>         0.1818
     53 H23         2.2499  -15.0072    1.0010 H         1 <0>         0.1463
     54 H24         2.5094  -14.5289    5.2329 H         1 <0>         0.1515
     55 H25         1.0589   -0.3624   -1.5626 H         1 <0>         0.4246
@<TRIPOS>BOND
     1    1    2 1
     2    1   31 1
     3    1   32 1
     4    1   33 1
     5    2    7 1
     6    2    3 1
     7    2   55 1
     8    3    4 1
     9    3   34 1
    10    3   35 1
    11    4    5 1
    12    4   36 1
    13    4   37 1
    14    5    6 1
    15    5    8 1
    16    5   38 1
    17    6    7 1
    18    6   39 1
    19    6   40 1
    20    7   41 1
    21    7   42 1
    22    8    9 1
    23    8   43 1
    24    8   44 1
    25    9   10 1
    26   10   15 ar
    27   10   11 ar
    28   11   12 ar
    29   11   45 1
    30   12   21 ar
    31   12   13 ar
    32   13   14 ar
    33   13   18 ar
    34   14   15 ar
    35   14   46 1
    36   15   16 1
    37   16   17 1
    38   17   47 1
    39   17   48 1
    40   17   49 1
    41   18   19 ar
    42   18   22 1
    43   19   20 ar
    44   20   21 ar
    45   20   50 1
    46   22   23 1
    47   22   51 1
    48   23   28 ar
    49   23   24 ar
    50   24   25 ar
    51   24   52 1
    52   25   26 ar
    53   25   53 1
    54   26   27 ar
    55   26   30 1
    56   27   28 ar
    57   27   54 1
    58   28   29 1
@<TRIPOS>MOLECULE
ZINC14951176
   39    42     0     0     0
SMALL
USER_CHARGES

@<TRIPOS>ATOM
      1 C1          0.2405    1.0255    0.8302 C.ar      1 <0>        -0.0645
      2 C2          1.4224    1.7334    0.7710 C.ar      1 <0>        -0.1488
      3 C3          2.3671    1.4303   -0.1967 C.ar      1 <0>         0.1270
      4 C4          2.1300    0.4154   -1.1103 C.ar      1 <0>        -0.1484
      5 C5          0.9516   -0.2992   -1.0607 C.ar      1 <0>        -0.0503
      6 C6         -0.0037    0.0016   -0.0874 C.ar      1 <0>        -0.0633
      7 C7         -1.2678   -0.7602   -0.0291 C.2       1 <0>         0.1046
      8 C8         -1.3961   -2.1162   -0.0863 C.2       1 <0>         0.0796
      9 N1         -2.7456   -2.4073    0.0017 N.pl3     1 <0>        -0.5519
     10 C9         -3.4195   -1.2472    0.1100 C.2       1 <0>         0.4661
     11 C10        -4.8730   -1.1131    0.2269 C.2       1 <0>        -0.2712
     12 C11        -5.4545    0.1603    0.3285 C.2       1 <0>        -0.0131
     13 C12        -6.8063    0.2847    0.4372 C.2       1 <0>        -0.2432
     14 C13        -7.6177   -0.8599    0.4477 C.2       1 <0>         0.3274
     15 O1         -8.9418   -0.7377    0.5542 O.2       1 <0>        -0.6199
     16 C14        -7.0368   -2.1329    0.3456 C.2       1 <0>        -0.2432
     17 C15        -5.6854   -2.2577    0.2315 C.2       1 <0>        -0.0132
     18 N2         -2.5363   -0.2302    0.0993 N.pl3     1 <0>        -0.5537
     19 C16        -0.2980   -3.0933   -0.2185 C.ar      1 <0>         0.0029
     20 C17         0.8460   -3.0046    0.5859 C.ar      1 <0>        -0.1375
     21 C18         1.8471   -3.9391    0.4288 C.ar      1 <0>         0.1110
     22 N3          1.7384   -4.9058   -0.4634 N.ar      1 <0>        -0.4697
     23 C19         0.6787   -5.0262   -1.2411 C.ar      1 <0>         0.1111
     24 C20        -0.3725   -4.1394   -1.1479 C.ar      1 <0>        -0.1541
     25 F1          3.5233    2.1271   -0.2501 F         1 <0>        -0.1285
     26 H1         -0.4930    1.2596    1.5875 H         1 <0>         0.1388
     27 H2          1.6122    2.5258    1.4800 H         1 <0>         0.1474
     28 H3          2.8693    0.1839   -1.8628 H         1 <0>         0.1469
     29 H4          0.7677   -1.0896   -1.7733 H         1 <0>         0.1375
     30 H5         -3.1383   -3.2941   -0.0126 H         1 <0>         0.4530
     31 H6         -4.8300    1.0414    0.3209 H         1 <0>         0.1049
     32 H7         -7.2538    1.2645    0.5158 H         1 <0>         0.1221
     33 H8         -7.6616   -3.0138    0.3533 H         1 <0>         0.1221
     34 H9         -5.2386   -3.2374    0.1489 H         1 <0>         0.1046
     35 H10        -2.7542    0.7126    0.1673 H         1 <0>         0.4532
     36 H11         0.9421   -2.2159    1.3174 H         1 <0>         0.1420
     37 H12         2.7328   -3.8793    1.0439 H         1 <0>         0.1658
     38 H13         0.6328   -5.8333   -1.9573 H         1 <0>         0.1659
     39 H14        -1.2383   -4.2467   -1.7845 H         1 <0>         0.1405
@<TRIPOS>BOND
     1    1    6 ar
     2    1    2 ar
     3    1   26 1
     4    2    3 ar
     5    2   27 1
     6    3    4 ar
     7    3   25 1
     8    4    5 ar
     9    4   28 1
    10    5    6 ar
    11    5   29 1
    12    6    7 1
    13    7   18 1
    14    7    8 2
    15    8    9 1
    16    8   19 1
    17    9   10 1
    18    9   30 1
    19   10   11 2
    20   10   18 1
    21   11   17 1
    22   11   12 1
    23   12   13 2
    24   12   31 1
    25   13   14 1
    26   13   32 1
    27   14   15 2
    28   14   16 1
    29   16   17 2
    30   16   33 1
    31   17   34 1
    32   18   35 1
    33   19   24 ar
    34   19   20 ar
    35   20   21 ar
    36   20   36 1
    37   21   22 ar
    38   21   37 1
    39   22   23 ar
    40   23   24 ar
    41   23   38 1
    42   24   39 1
@<TRIPOS>MOLECULE
ZINC14951176
   40    43     0     0     0
SMALL
USER_CHARGES

@<TRIPOS>ATOM
      1 C1          0.2405    1.0255    0.8302 C.ar      1 <0>        -0.0528
      2 C2          1.4224    1.7334    0.7710 C.ar      1 <0>        -0.1439
      3 C3          2.3671    1.4303   -0.1967 C.ar      1 <0>         0.1411
      4 C4          2.1300    0.4154   -1.1103 C.ar      1 <0>        -0.1508
      5 C5          0.9516   -0.2992   -1.0607 C.ar      1 <0>        -0.0597
      6 C6         -0.0037    0.0016   -0.0874 C.ar      1 <0>        -0.0905
      7 C7         -1.2678   -0.7602   -0.0291 C.2       1 <0>         0.1717
      8 C8         -1.3961   -2.1162   -0.0863 C.2       1 <0>         0.0049
      9 N1         -2.7456   -2.4073    0.0017 N.pl3     1 <0>        -0.5619
     10 C9         -3.4195   -1.2472    0.1100 C.2       1 <0>         0.4672
     11 C10        -4.8730   -1.1131    0.2269 C.2       1 <0>        -0.2599
     12 C11        -5.6849   -2.2580    0.2378 C.2       1 <0>        -0.0193
     13 C12        -7.0367   -2.1330    0.3465 C.2       1 <0>        -0.2271
     14 C13        -7.6177   -0.8599    0.4475 C.2       1 <0>         0.3291
     15 O1         -8.9418   -0.7377    0.5539 O.2       1 <0>        -0.5899
     16 C14        -6.8064    0.2847    0.4370 C.2       1 <0>        -0.2265
     17 C15        -5.4541    0.1600    0.3338 C.2       1 <0>        -0.0193
     18 N2         -2.5363   -0.2302    0.0993 N.pl3     1 <0>        -0.5609
     19 C16        -0.2980   -3.0933   -0.2185 C.ar      1 <0>         0.1131
     20 C17         0.8460   -3.0046    0.5859 C.ar      1 <0>        -0.1113
     21 C18         1.8471   -3.9391    0.4288 C.ar      1 <0>         0.1475
     22 N3          1.7384   -4.9058   -0.4634 N.ar      1 <0>        -0.4453
     23 C19         0.6789   -5.0260   -1.2413 C.ar      1 <0>         0.1502
     24 C20        -0.3725   -4.1394   -1.1479 C.ar      1 <0>        -0.1247
     25 F1          3.5233    2.1271   -0.2501 F         1 <0>        -0.1206
     26 H1         -0.4930    1.2596    1.5875 H         1 <0>         0.1448
     27 H2          1.6122    2.5258    1.4800 H         1 <0>         0.1545
     28 H3          2.8693    0.1839   -1.8628 H         1 <0>         0.1503
     29 H4          0.7677   -1.0896   -1.7733 H         1 <0>         0.1343
     30 H5         -3.1383   -3.2941   -0.0126 H         1 <0>         0.4541
     31 H6         -5.2377   -3.2379    0.1597 H         1 <0>         0.1066
     32 H7         -7.6615   -3.0138    0.3545 H         1 <0>         0.1278
     33 H8         -7.2539    1.2645    0.5152 H         1 <0>         0.1286
     34 H9         -4.8293    1.0409    0.3299 H         1 <0>         0.1087
     35 H10        -2.7542    0.7126    0.1673 H         1 <0>         0.4588
     36 H11         0.9421   -2.2159    1.3174 H         1 <0>         0.1893
     37 H12         2.7328   -3.8793    1.0439 H         1 <0>         0.2181
     38 H13         0.6331   -5.8328   -1.9578 H         1 <0>         0.2182
     39 H14        -1.2383   -4.2467   -1.7845 H         1 <0>         0.1884
     40 H15         2.4602   -5.5480   -0.5503 H         1 <0>         0.4572
@<TRIPOS>BOND
     1    1    6 ar
     2    1    2 ar
     3    1   26 1
     4    2    3 ar
     5    2   27 1
     6    3    4 ar
     7    3   25 1
     8    4    5 ar
     9    4   28 1
    10    5    6 ar
    11    5   29 1
    12    6    7 1
    13    7   18 1
    14    7    8 2
    15    8    9 1
    16    8   19 1
    17    9   10 1
    18    9   30 1
    19   10   11 2
    20   10   18 1
    21   11   17 1
    22   11   12 1
    23   12   13 2
    24   12   31 1
    25   13   14 1
    26   13   32 1
    27   14   15 2
    28   14   16 1
    29   16   17 2
    30   16   33 1
    31   17   34 1
    32   18   35 1
    33   19   24 ar
    34   19   20 ar
    35   20   21 ar
    36   20   36 1
    37   21   22 ar
    38   21   37 1
    39   22   23 ar
    40   22   40 1
    41   23   24 ar
    42   23   38 1
    43   24   39 1
@<TRIPOS>MOLECULE
ZINC14951176
   39    42     0     0     0
SMALL
USER_CHARGES

@<TRIPOS>ATOM
      1 C1         -0.0169    1.3921    0.0097 C.ar      1 <0>        -0.0566
      2 C2          1.1683    2.0955    0.0022 C.ar      1 <0>        -0.1420
      3 C3          2.3804    1.4175   -0.0135 C.ar      1 <0>         0.1205
      4 C4          2.4035    0.0288   -0.0217 C.ar      1 <0>        -0.1413
      5 C5          1.2227   -0.6820   -0.0137 C.ar      1 <0>        -0.0915
      6 C6          0.0021   -0.0041    0.0020 C.ar      1 <0>        -0.0305
      7 C7         -1.2663   -0.7622    0.0101 C.2       1 <0>         0.2668
      8 N1         -2.4688   -0.2344    0.0239 N.2       1 <0>        -0.4516
      9 H1         -0.6429   -2.7598   -0.0166 H         1 <0>         0.4248
     10 C8         -3.3891   -1.2133    0.0276 C.2       1 <0>         0.0607
     11 C9         -2.7170   -2.4244    0.0153 C.2       1 <0>         0.0509
     12 N2         -1.3752   -2.1239   -0.0017 N.pl3     1 <0>        -0.5528
     13 C10        -3.3214   -3.7709    0.0147 C.ar      1 <0>        -0.0389
     14 C11        -4.3834   -4.0632    0.8738 C.ar      1 <0>        -0.0572
     15 C12        -4.9440   -5.3230    0.8688 C.ar      1 <0>        -0.1473
     16 C13        -4.4555   -6.2985    0.0139 C.ar      1 <0>         0.1118
     17 C14        -3.4017   -6.0145   -0.8405 C.ar      1 <0>        -0.1493
     18 C15        -2.8374   -4.7564   -0.8492 C.ar      1 <0>        -0.0780
     19 F1         -5.0084   -7.5311    0.0136 F         1 <0>        -0.1337
     20 C16        -4.8582   -1.0303    0.0430 C.ar      1 <0>         0.0400
     21 C17        -5.7004   -1.9173   -0.6371 C.ar      1 <0>        -0.1586
     22 C18        -7.0629   -1.7095   -0.5964 C.ar      1 <0>         0.1014
     23 N3         -7.5737   -0.6921    0.0713 N.ar      1 <0>        -0.4840
     24 C19        -6.8154    0.1672    0.7258 C.ar      1 <0>         0.1006
     25 C20        -5.4433    0.0310    0.7427 C.ar      1 <0>        -0.1465
     26 O1          3.5463    2.1144   -0.0214 O.3       1 <0>        -0.4977
     27 H2         -0.9589    1.9200    0.0260 H         1 <0>         0.1437
     28 H3          1.1545    3.1754    0.0081 H         1 <0>         0.1381
     29 H4          3.3480   -0.4948   -0.0346 H         1 <0>         0.1359
     30 H5          1.2415   -1.7618   -0.0204 H         1 <0>         0.1230
     31 H6         -4.7644   -3.3041    1.5409 H         1 <0>         0.1365
     32 H7         -5.7651   -5.5501    1.5325 H         1 <0>         0.1435
     33 H8         -3.0248   -6.7788   -1.5040 H         1 <0>         0.1419
     34 H9         -2.0195   -4.5348   -1.5187 H         1 <0>         0.1326
     35 H10        -5.2894   -2.7518   -1.1857 H         1 <0>         0.1340
     36 H11        -7.7211   -2.3883   -1.1184 H         1 <0>         0.1574
     37 H12        -7.2760    0.9856    1.2591 H         1 <0>         0.1586
     38 H13        -4.8292    0.7351    1.2845 H         1 <0>         0.1395
     39 H14         3.8927    2.3115    0.8597 H         1 <0>         0.3954
@<TRIPOS>BOND
     1    1    6 ar
     2    1    2 ar
     3    1   27 1
     4    2    3 ar
     5    2   28 1
     6    3    4 ar
     7    3   26 1
     8    4    5 ar
     9    4   29 1
    10    5    6 ar
    11    5   30 1
    12    6    7 1
    13    7    8 2
    14    7   12 1
    15    8   10 1
    16    9   12 1
    17   10   20 1
    18   10   11 2
    19   11   13 1
    20   11   12 1
    21   13   18 ar
    22   13   14 ar
    23   14   15 ar
    24   14   31 1
    25   15   16 ar
    26   15   32 1
    27   16   17 ar
    28   16   19 1
    29   17   18 ar
    30   17   33 1
    31   18   34 1
    32   20   25 ar
    33   20   21 ar
    34   21   22 ar
    35   21   35 1
    36   22   23 ar
    37   22   36 1
    38   23   24 ar
    39   24   25 ar
    40   24   37 1
    41   25   38 1
    42   26   39 1
@<TRIPOS>MOLECULE
ZINC14951176
   40    43     0     0     0
SMALL
USER_CHARGES

@<TRIPOS>ATOM
      1 C1         -0.0079    1.3560    0.4128 C.ar      1 <0>        -0.0502
      2 C2          1.1789    2.0446    0.5411 C.ar      1 <0>        -0.1379
      3 C3          2.3872    1.3600    0.5181 C.ar      1 <0>         0.1743
      4 C4          2.4048   -0.0205    0.3656 C.ar      1 <0>        -0.1372
      5 C5          1.2223   -0.7164    0.2363 C.ar      1 <0>        -0.0529
      6 C6          0.0054   -0.0319    0.2597 C.ar      1 <0>        -0.1114
      7 C7         -1.2648   -0.7743    0.1224 C.cat     1 <0>         0.3974
      8 N1         -2.5103   -0.2175    0.1240 N.pl3     1 <0>        -0.5055
      9 H1         -2.7195    0.7253    0.2141 H         1 <0>         0.4639
     10 C8         -3.4150   -1.2456   -0.0267 C.2       1 <0>         0.1188
     11 C9         -2.6710   -2.4104   -0.1160 C.2       1 <0>         0.1124
     12 N2         -1.3744   -2.0755   -0.0265 N.pl3     1 <0>        -0.4709
     13 C10        -3.2098   -3.7802   -0.2862 C.ar      1 <0>        -0.0876
     14 C11        -4.1834   -4.0340   -1.2519 C.ar      1 <0>        -0.0424
     15 C12        -4.6816   -5.3110   -1.4069 C.ar      1 <0>        -0.1470
     16 C13        -4.2164   -6.3406   -0.6047 C.ar      1 <0>         0.1433
     17 C14        -3.2491   -6.0935    0.3562 C.ar      1 <0>        -0.1478
     18 C15        -2.7406   -4.8209    0.5148 C.ar      1 <0>        -0.0599
     19 F1         -4.7080   -7.5895   -0.7596 F         1 <0>        -0.1208
     20 C16        -4.8840   -1.1288   -0.0821 C.ar      1 <0>        -0.0205
     21 C17        -5.7034   -1.9735    0.6798 C.ar      1 <0>        -0.1289
     22 C18        -7.0715   -1.8287    0.5974 C.ar      1 <0>         0.1171
     23 N3         -7.6107   -0.9116   -0.1841 N.ar      1 <0>        -0.4578
     24 C19        -6.8767   -0.0959   -0.9180 C.ar      1 <0>         0.1165
     25 C20        -5.5005   -0.1662   -0.8936 C.ar      1 <0>        -0.1481
     26 O1          3.5548    2.0423    0.6448 O.3       1 <0>        -0.4899
     27 H2         -0.9472    1.8885    0.4352 H         1 <0>         0.1371
     28 H3          1.1694    3.1181    0.6592 H         1 <0>         0.1540
     29 H4          3.3464   -0.5492    0.3479 H         1 <0>         0.1543
     30 H5          1.2369   -1.7897    0.1170 H         1 <0>         0.1372
     31 H6         -4.5471   -3.2320   -1.8771 H         1 <0>         0.1402
     32 H7         -5.4356   -5.5085   -2.1544 H         1 <0>         0.1527
     33 H8         -2.8897   -6.8992    0.9791 H         1 <0>         0.1527
     34 H9         -1.9838   -4.6301    1.2612 H         1 <0>         0.1391
     35 H10        -5.2693   -2.7263    1.3211 H         1 <0>         0.1460
     36 H11        -7.7114   -2.4748    1.1801 H         1 <0>         0.1719
     37 H12        -7.3614    0.6395   -1.5430 H         1 <0>         0.1713
     38 H13        -4.9063    0.5074   -1.4932 H         1 <0>         0.1422
     39 H14         3.8545    2.1428    1.5587 H         1 <0>         0.4115
     40 H15        -0.6320   -2.6987   -0.0633 H         1 <0>         0.4629
@<TRIPOS>BOND
     1    1    6 ar
     2    1    2 ar
     3    1   27 1
     4    2    3 ar
     5    2   28 1
     6    3    4 ar
     7    3   26 1
     8    4    5 ar
     9    4   29 1
    10    5    6 ar
    11    5   30 1
    12    6    7 1
    13    7   12 2
    14    7    8 1
    15    8    9 1
    16    8   10 1
    17   10   11 2
    18   10   20 1
    19   11   12 1
    20   11   13 1
    21   12   40 1
    22   13   18 ar
    23   13   14 ar
    24   14   15 ar
    25   14   31 1
    26   15   16 ar
    27   15   32 1
    28   16   17 ar
    29   16   19 1
    30   17   18 ar
    31   17   33 1
    32   18   34 1
    33   20   25 ar
    34   20   21 ar
    35   21   22 ar
    36   21   35 1
    37   22   23 ar
    38   22   36 1
    39   23   24 ar
    40   24   25 ar
    41   24   37 1
    42   25   38 1
    43   26   39 1
@<TRIPOS>MOLECULE
ZINC14951176
   40    43     0     0     0
SMALL
USER_CHARGES

@<TRIPOS>ATOM
      1 C1         -0.0268    1.3873   -0.2487 C.ar      1 <0>        -0.0533
      2 C2          1.1507    2.0881   -0.3954 C.ar      1 <0>        -0.1372
      3 C3          2.3508    1.4075   -0.5560 C.ar      1 <0>         0.1741
      4 C4          2.3694    0.0187   -0.5693 C.ar      1 <0>        -0.1379
      5 C5          1.1963   -0.6894   -0.4227 C.ar      1 <0>        -0.0501
      6 C6         -0.0123   -0.0089   -0.2611 C.ar      1 <0>        -0.1113
      7 C7         -1.2726   -0.7643   -0.1040 C.cat     1 <0>         0.3964
      8 N1         -1.3739   -2.1224    0.0021 N.pl3     1 <0>        -0.5087
      9 H1         -0.6406   -2.7573   -0.0113 H         1 <0>         0.4641
     10 C8         -2.7098   -2.4213    0.1324 C.2       1 <0>         0.1445
     11 C9         -3.3862   -1.2129    0.1003 C.2       1 <0>         0.0865
     12 N2         -2.4734   -0.2367   -0.0386 N.pl3     1 <0>        -0.4668
     13 C10        -4.8514   -1.0295    0.2063 C.ar      1 <0>        -0.0181
     14 C11        -5.5878   -1.6830    1.2008 C.ar      1 <0>        -0.1314
     15 C12        -6.9507   -1.4834    1.2636 C.ar      1 <0>         0.1177
     16 N3         -7.5598   -0.6900    0.4025 N.ar      1 <0>        -0.4587
     17 C13        -6.9031   -0.0552   -0.5501 C.ar      1 <0>         0.1173
     18 C14        -5.5375   -0.1932   -0.6817 C.ar      1 <0>        -0.1516
     19 C15        -3.3053   -3.7640    0.2776 C.ar      1 <0>        -0.0905
     20 C16        -4.4063   -4.1307   -0.5000 C.ar      1 <0>        -0.0398
     21 C17        -4.9583   -5.3865   -0.3599 C.ar      1 <0>        -0.1481
     22 C18        -4.4232   -6.2840    0.5507 C.ar      1 <0>         0.1454
     23 C19        -3.3311   -5.9257    1.3253 C.ar      1 <0>        -0.1491
     24 C20        -2.7664   -4.6752    1.1893 C.ar      1 <0>        -0.0562
     25 F1         -4.9685   -7.5129    0.6840 F         1 <0>        -0.1204
     26 O1          3.5092    2.1019   -0.7007 O.3       1 <0>        -0.4899
     27 H2         -0.9590    1.9172   -0.1198 H         1 <0>         0.1369
     28 H3          1.1404    3.1680   -0.3860 H         1 <0>         0.1542
     29 H4          3.3045   -0.5068   -0.6950 H         1 <0>         0.1540
     30 H5          1.2115   -1.7693   -0.4335 H         1 <0>         0.1375
     31 H6         -5.0961   -2.3342    1.9084 H         1 <0>         0.1454
     32 H7         -7.5277   -1.9833    2.0275 H         1 <0>         0.1715
     33 H8         -7.4422    0.5842   -1.2336 H         1 <0>         0.1711
     34 H9         -5.0059    0.3326   -1.4610 H         1 <0>         0.1417
     35 H10        -4.8245   -3.4319   -1.2094 H         1 <0>         0.1408
     36 H11        -5.8095   -5.6711   -0.9606 H         1 <0>         0.1531
     37 H12        -2.9189   -6.6290    2.0337 H         1 <0>         0.1530
     38 H13        -1.9125   -4.3987    1.7900 H         1 <0>         0.1398
     39 H14         3.9581    2.2964    0.1334 H         1 <0>         0.4114
     40 H15        -2.6712    0.7118   -0.0857 H         1 <0>         0.4627
@<TRIPOS>BOND
     1    1    6 ar
     2    1    2 ar
     3    1   27 1
     4    2    3 ar
     5    2   28 1
     6    3    4 ar
     7    3   26 1
     8    4    5 ar
     9    4   29 1
    10    5    6 ar
    11    5   30 1
    12    6    7 1
    13    7   12 2
    14    7    8 1
    15    8    9 1
    16    8   10 1
    17   10   11 2
    18   10   19 1
    19   11   12 1
    20   11   13 1
    21   12   40 1
    22   13   18 ar
    23   13   14 ar
    24   14   15 ar
    25   14   31 1
    26   15   16 ar
    27   15   32 1
    28   16   17 ar
    29   17   18 ar
    30   17   33 1
    31   18   34 1
    32   19   24 ar
    33   19   20 ar
    34   20   21 ar
    35   20   35 1
    36   21   22 ar
    37   21   36 1
    38   22   23 ar
    39   22   25 1
    40   23   24 ar
    41   23   37 1
    42   24   38 1
    43   26   39 1
@<TRIPOS>MOLECULE
ZINC27439698
   59    62     0     0     0
SMALL
USER_CHARGES

@<TRIPOS>ATOM
      1 C1         -0.2063    1.0844    0.8125 C.2       1 <0>        -0.0780
      2 C2         -0.0916   -0.1284    0.2785 C.2       1 <0>        -0.2217
      3 C3          1.1892   -0.8472    0.3546 C.2       1 <0>         0.5464
      4 O1          2.1435   -0.3327    0.9059 O.2       1 <0>        -0.5301
      5 N1          1.3054   -2.0761   -0.1864 N.am      1 <0>        -0.6549
      6 C4          2.5517   -2.7129   -0.2160 C.ar      1 <0>         0.1200
      7 C5          3.7048   -1.9595   -0.1827 C.ar      1 <0>        -0.0579
      8 C6          4.9490   -2.5997   -0.2120 C.ar      1 <0>        -0.1974
      9 C7          5.0154   -4.0138   -0.2753 C.ar      1 <0>         0.2129
     10 C8          3.8313   -4.7603   -0.3083 C.ar      1 <0>        -0.1947
     11 C9          2.6164   -4.1137   -0.2734 C.ar      1 <0>         0.1622
     12 O2          1.4681   -4.8389   -0.3002 O.3       1 <0>        -0.3093
     13 C10         1.5999   -6.2606   -0.3586 C.3       1 <0>         0.0588
     14 C11         0.2106   -6.9010   -0.3813 C.3       1 <0>        -0.1156
     15 C12         0.3517   -8.4232   -0.4438 C.3       1 <0>         0.0578
     16 N2         -0.9822   -9.0382   -0.4657 N.3       1 <0>        -0.5360
     17 C13        -1.6880   -8.8108    0.8038 C.3       1 <0>         0.0125
     18 C14        -3.0921   -9.4148    0.7161 C.3       1 <0>         0.0626
     19 O3         -2.9885  -10.8047    0.3955 O.3       1 <0>        -0.3850
     20 C15        -2.3071  -11.0626   -0.8351 C.3       1 <0>         0.0628
     21 C16        -0.8951  -10.4753   -0.7631 C.3       1 <0>         0.0171
     22 N3          6.2221   -4.6015   -0.3018 N.ar      1 <0>        -0.5452
     23 C17         7.3156   -3.8777   -0.2694 C.ar      1 <0>         0.3493
     24 N4          7.3023   -2.5556   -0.2097 N.ar      1 <0>        -0.5859
     25 C18         6.1642   -1.8746   -0.1796 C.ar      1 <0>         0.4714
     26 N5          6.1650   -0.4957   -0.1182 N.pl3     1 <0>        -0.6328
     27 C19         7.3694    0.2084   -0.2227 C.ar      1 <0>         0.1581
     28 C20         7.5013    1.4536    0.3785 C.ar      1 <0>        -0.1169
     29 C21         8.6911    2.1472    0.2750 C.ar      1 <0>        -0.1176
     30 C22         9.7524    1.6027   -0.4280 C.ar      1 <0>         0.0901
     31 C23         9.6235    0.3609   -1.0292 C.ar      1 <0>        -0.0524
     32 C24         8.4363   -0.3392   -0.9225 C.ar      1 <0>        -0.0856
     33 Cl1        10.9555   -0.3188   -1.9109 Cl        1 <0>        -0.0424
     34 F1         10.9152    2.2833   -0.5284 F         1 <0>        -0.1264
     35 H1          0.6411    1.5413    1.3020 H         1 <0>         0.1166
     36 H2         -1.1456    1.6141    0.7527 H         1 <0>         0.1209
     37 H3         -0.9390   -0.5853   -0.2110 H         1 <0>         0.1323
     38 H4          0.5255   -2.5194   -0.5554 H         1 <0>         0.4201
     39 H5          3.6489   -0.8820   -0.1348 H         1 <0>         0.1596
     40 H6          3.8708   -5.8385   -0.3565 H         1 <0>         0.1517
     41 H7          2.1429   -6.5383   -1.2620 H         1 <0>         0.0720
     42 H8          2.1473   -6.6110    0.5165 H         1 <0>         0.0691
     43 H9         -0.3323   -6.6233    0.5221 H         1 <0>         0.0760
     44 H10        -0.3367   -6.5506   -1.2564 H         1 <0>         0.0860
     45 H11         0.8947   -8.7010   -1.3473 H         1 <0>         0.0821
     46 H12         0.8990   -8.7736    0.4312 H         1 <0>         0.0409
     47 H13        -1.1377   -9.2854    1.6162 H         1 <0>         0.0448
     48 H14        -1.7636   -7.7398    0.9914 H         1 <0>         0.0895
     49 H15        -3.5986   -9.2990    1.6743 H         1 <0>         0.0993
     50 H16        -3.6604   -8.9035   -0.0609 H         1 <0>         0.0609
     51 H17        -2.2459  -12.1385   -0.9988 H         1 <0>         0.1001
     52 H18        -2.8525  -10.5991   -1.6572 H         1 <0>         0.0612
     53 H19        -0.3918  -10.6192   -1.7193 H         1 <0>         0.0886
     54 H20        -0.3321  -10.9764    0.0243 H         1 <0>         0.0452
     55 H21         8.2696   -4.3834   -0.2921 H         1 <0>         0.1993
     56 H22         5.3306   -0.0149   -0.0027 H         1 <0>         0.4275
     57 H23         6.6738    1.8794    0.9265 H         1 <0>         0.1431
     58 H24         8.7936    3.1154    0.7424 H         1 <0>         0.1506
     59 H25         8.3373   -1.3092   -1.3869 H         1 <0>         0.1663
@<TRIPOS>BOND
     1    1    2 2
     2    1   35 1
     3    1   36 1
     4    2    3 1
     5    2   37 1
     6    3    4 2
     7    3    5 am
     8    5    6 1
     9    5   38 1
    10    6   11 ar
    11    6    7 ar
    12    7    8 ar
    13    7   39 1
    14    8   25 ar
    15    8    9 ar
    16    9   10 ar
    17    9   22 ar
    18   10   11 ar
    19   10   40 1
    20   11   12 1
    21   12   13 1
    22   13   14 1
    23   13   41 1
    24   13   42 1
    25   14   15 1
    26   14   43 1
    27   14   44 1
    28   15   16 1
    29   15   45 1
    30   15   46 1
    31   16   21 1
    32   16   17 1
    33   17   18 1
    34   17   47 1
    35   17   48 1
    36   18   19 1
    37   18   49 1
    38   18   50 1
    39   19   20 1
    40   20   21 1
    41   20   51 1
    42   20   52 1
    43   21   53 1
    44   21   54 1
    45   22   23 ar
    46   23   24 ar
    47   23   55 1
    48   24   25 ar
    49   25   26 1
    50   26   27 1
    51   26   56 1
    52   27   32 ar
    53   27   28 ar
    54   28   29 ar
    55   28   57 1
    56   29   30 ar
    57   29   58 1
    58   30   31 ar
    59   30   34 1
    60   31   32 ar
    61   31   33 1
    62   32   59 1
@<TRIPOS>MOLECULE
ZINC21288966
   49    52     0     0     0
SMALL
USER_CHARGES
2-(2-chlorophenyl)-5,7-dihydroxy-8-[(3S,4R)-3-hydroxy-1-methyl-4-piperidyl]chromen-4-one
@<TRIPOS>ATOM
      1 C1          6.0895   -0.0238    5.9621 C.3       1 <0>        -0.0460
      2 N1          6.1756    1.0472    4.9603 N.4       1 <0>        -0.3934
      3 C2          5.9739    0.5180    3.6055 C.3       1 <0>        -0.0028
      4 C3          6.2126    1.6289    2.5802 C.3       1 <0>        -0.1464
      5 C4          5.2418    2.7821    2.8491 C.3       1 <0>        -0.0180
      6 H1          4.2050    2.4431    2.7074 H         1 <0>         0.1039
      7 C5          5.4391    3.2830    4.2825 C.3       1 <0>         0.1015
      8 H2          4.7709    4.1271    4.5084 H         1 <0>         0.0941
      9 C6          5.2218    2.1236    5.2574 C.3       1 <0>        -0.0361
     10 O1          6.7669    3.7898    4.4323 O.3       1 <0>        -0.5639
     11 C7          5.5132    3.9050    1.8814 C.ar      1 <0>        -0.2158
     12 C8          6.8017    4.3949    1.7322 C.ar      1 <0>         0.2946
     13 C9          7.0678    5.4304    0.8434 C.ar      1 <0>        -0.3049
     14 C10         6.0448    5.9841    0.0956 C.ar      1 <0>         0.3111
     15 C11         4.7411    5.4942    0.2412 C.ar      1 <0>        -0.3649
     16 C12         4.4748    4.4470    1.1407 C.ar      1 <0>         0.2362
     17 O2          3.2147    3.9814    1.2730 O.3       1 <0>        -0.2171
     18 C13         2.1871    4.4838    0.5705 C.2       1 <0>         0.1982
     19 C14         2.3394    5.4926   -0.3277 C.2       1 <0>        -0.2780
     20 C15         3.6225    6.0546   -0.5353 C.2       1 <0>         0.4382
     21 O3          3.7953    6.9641   -1.3304 O.2       1 <0>        -0.4786
     22 C16         0.8407    3.9147    0.7769 C.ar      1 <0>        -0.0680
     23 C17         0.6478    2.5322    0.7263 C.ar      1 <0>        -0.0708
     24 C18        -0.6124    2.0073    0.9205 C.ar      1 <0>        -0.1159
     25 C19        -1.6867    2.8467    1.1599 C.ar      1 <0>        -0.0780
     26 C20        -1.5036    4.2164    1.2169 C.ar      1 <0>        -0.1066
     27 C21        -0.2472    4.7566    1.0243 C.ar      1 <0>        -0.0057
     28 Cl1        -0.0199    6.4765    1.0889 Cl        1 <0>        -0.0424
     29 O4          6.3024    6.9947   -0.7728 O.3       1 <0>        -0.4999
     30 O5          7.8133    3.8585    2.4614 O.3       1 <0>        -0.4665
     31 H3          6.8128   -0.8151    5.7159 H         1 <0>         0.1242
     32 H4          5.0728   -0.4438    5.9634 H         1 <0>         0.1169
     33 H5          6.3184    0.3856    6.9571 H         1 <0>         0.1225
     34 H6          6.6809   -0.3050    3.4243 H         1 <0>         0.1308
     35 H7          4.9438    0.1448    3.5072 H         1 <0>         0.1211
     36 H8          7.2477    1.9910    2.6662 H         1 <0>         0.1216
     37 H9          6.0450    1.2349    1.5669 H         1 <0>         0.1057
     38 H10         4.1951    1.7434    5.1512 H         1 <0>         0.1298
     39 H11         5.3771    2.4772    6.2874 H         1 <0>         0.1312
     40 H12         7.0946    4.1958    5.4007 H         1 <0>         0.4106
     41 H13         8.0758    5.8030    0.7365 H         1 <0>         0.1471
     42 H14         1.4871    5.8659   -0.8759 H         1 <0>         0.1670
     43 H15         1.4839    1.8757    0.5352 H         1 <0>         0.1384
     44 H16        -0.7625    0.9385    0.8812 H         1 <0>         0.1407
     45 H17        -2.6721    2.4298    1.3071 H         1 <0>         0.1438
     46 H18        -2.3456    4.8651    1.4082 H         1 <0>         0.1476
     47 H19         5.4855    7.4321   -1.3656 H         1 <0>         0.4556
     48 H20         8.8375    4.2431    2.3473 H         1 <0>         0.4397
     49 H21         7.1882    1.4744    5.0059 H         1 <0>         0.4481
@<TRIPOS>BOND
     1    1    2 1
     2    1   31 1
     3    1   32 1
     4    1   33 1
     5    2    9 1
     6    2    3 1
     7    2   49 1
     8    3    4 1
     9    3   34 1
    10    3   35 1
    11    4    5 1
    12    4   36 1
    13    4   37 1
    14    5    6 1
    15    5    7 1
    16    5   11 1
    17    7    8 1
    18    7    9 1
    19    7   10 1
    20    9   38 1
    21    9   39 1
    22   10   40 1
    23   11   16 ar
    24   11   12 ar
    25   12   13 ar
    26   12   30 1
    27   13   14 ar
    28   13   41 1
    29   14   15 ar
    30   14   29 1
    31   15   20 1
    32   15   16 ar
    33   16   17 1
    34   17   18 1
    35   18   19 2
    36   18   22 1
    37   19   20 1
    38   19   42 1
    39   20   21 2
    40   22   27 ar
    41   22   23 ar
    42   23   24 ar
    43   23   43 1
    44   24   25 ar
    45   24   44 1
    46   25   26 ar
    47   25   45 1
    48   26   27 ar
    49   26   46 1
    50   27   28 1
    51   29   47 1
    52   30   48 1
@<TRIPOS>MOLECULE
ZINC03816310
   51    55     0     0     0
SMALL
USER_CHARGES
4-amino-5-fluoro-3-[5-(4-methylpiperazin-1-yl)-3H-benzoimidazol-2-yl]-1H-quinolin-2-one
@<TRIPOS>ATOM
      1 C1         -4.4670    0.8494    3.0633 C.3       1 <0>        -0.0407
      2 C2         -3.3790    0.9463    0.9019 C.3       1 <0>         0.0019
      3 C3         -3.5151    1.4789   -0.5264 C.3       1 <0>         0.0203
      4 N1         -3.5799    2.9467   -0.4951 N.pl3     1 <0>        -0.4822
      5 C4         -4.7239    3.4034    0.3063 C.3       1 <0>         0.0231
      6 C5         -4.5878    2.8708    1.7347 C.3       1 <0>         0.0021
      7 C6         -3.6324    3.4738   -1.7895 C.ar      1 <0>         0.0898
      8 C7         -3.6187    2.6172   -2.8884 C.ar      1 <0>        -0.1658
      9 C8         -3.6694    3.1157   -4.1588 C.ar      1 <0>        -0.0428
     10 C9         -3.7362    4.4973   -4.3655 C.ar      1 <0>         0.0571
     11 C10        -3.7506    5.3641   -3.2589 C.ar      1 <0>         0.0655
     12 C11        -3.7036    4.8454   -1.9734 C.ar      1 <0>        -0.1134
     13 N2         -3.8198    6.6467   -3.7722 N.pl3     1 <0>        -0.5851
     14 H1         -3.8464    7.4962   -3.2453 H         1 <0>         0.4436
     15 C12        -3.8451    6.5353   -5.1390 C.2       1 <0>         0.4046
     16 N3         -3.7957    5.2687   -5.4809 N.2       1 <0>        -0.5294
     17 C13        -3.9164    7.6652   -6.0804 C.2       1 <0>        -0.3025
     18 C14        -4.0559    7.4305   -7.4504 C.2       1 <0>         0.3760
     19 C15        -4.1228    8.5898   -8.3476 C.ar      1 <0>        -0.1878
     20 C16        -4.0447    9.8830   -7.7997 C.ar      1 <0>         0.2450
     21 C17        -4.1078   10.9864   -8.6429 C.ar      1 <0>        -0.1734
     22 C18        -4.2458   10.8081  -10.0035 C.ar      1 <0>        -0.0185
     23 C19        -4.3231    9.5350  -10.5468 C.ar      1 <0>        -0.1801
     24 C20        -4.2628    8.4239   -9.7304 C.ar      1 <0>         0.1680
     25 F1         -4.3388    7.1843  -10.2623 F         1 <0>        -0.1206
     26 N4         -3.9076   10.0470   -6.4354 N.am      1 <0>        -0.6368
     27 H2         -3.8498   10.9715   -6.0585 H         1 <0>         0.4300
     28 C21        -3.8500    8.9949   -5.6023 C.2       1 <0>         0.5826
     29 O1         -3.7334    9.1908   -4.4050 O.2       1 <0>        -0.5600
     30 N5         -4.1288    6.1500   -7.9440 N.pl3     1 <0>        -0.8025
     31 H3         -3.5472    1.1734    3.5502 H         1 <0>         0.1241
     32 H4         -5.3249    1.2032    3.6351 H         1 <0>         0.1225
     33 H5         -4.4877   -0.2393    3.0134 H         1 <0>         0.1228
     34 H6         -3.3598   -0.1434    0.8835 H         1 <0>         0.1376
     35 H7         -2.4541    1.3189    1.3424 H         1 <0>         0.1399
     36 H8         -2.6529    1.1655   -1.1151 H         1 <0>         0.1307
     37 H9         -4.4260    1.0841   -0.9765 H         1 <0>         0.0717
     38 H10        -4.7431    4.4931    0.3248 H         1 <0>         0.1261
     39 H11        -5.6486    3.0309   -0.1345 H         1 <0>         0.0691
     40 H12        -3.6769    3.2656    2.1847 H         1 <0>         0.1400
     41 H13        -5.4498    3.1846    2.3235 H         1 <0>         0.1367
     42 H14        -3.5672    1.5496   -2.7341 H         1 <0>         0.1314
     43 H15        -3.6582    2.4431   -5.0037 H         1 <0>         0.1346
     44 H16        -3.7183    5.5073   -1.1202 H         1 <0>         0.1268
     45 H17        -4.0491   11.9836   -8.2323 H         1 <0>         0.1496
     46 H18        -4.2944   11.6697  -10.6529 H         1 <0>         0.1516
     47 H19        -4.4307    9.4121  -11.6144 H         1 <0>         0.1515
     48 H20        -4.3218    5.4103   -7.3468 H         1 <0>         0.4285
     49 H21        -3.9874    5.9859   -8.8895 H         1 <0>         0.4092
     50 N6         -4.5458    1.3938    1.6909 N.4       1 <0>        -0.3998
     51 H22        -5.4033    1.0486    1.2438 H         1 <0>         0.4274
@<TRIPOS>BOND
     1    1   31 1
     2    1   32 1
     3    1   33 1
     4    1   50 1
     5    2    3 1
     6    2   34 1
     7    2   35 1
     8    2   50 1
     9    3    4 1
    10    3   36 1
    11    3   37 1
    12    4    5 1
    13    4    7 1
    14    5    6 1
    15    5   38 1
    16    5   39 1
    17    6   40 1
    18    6   41 1
    19    6   50 1
    20    7   12 ar
    21    7    8 ar
    22    8    9 ar
    23    8   42 1
    24    9   10 ar
    25    9   43 1
    26   10   16 1
    27   10   11 ar
    28   11   12 ar
    29   11   13 1
    30   12   44 1
    31   13   14 1
    32   13   15 1
    33   15   16 2
    34   15   17 1
    35   17   28 1
    36   17   18 2
    37   18   19 1
    38   18   30 1
    39   19   24 ar
    40   19   20 ar
    41   20   21 ar
    42   20   26 1
    43   21   22 ar
    44   21   45 1
    45   22   23 ar
    46   22   46 1
    47   23   24 ar
    48   23   47 1
    49   24   25 1
    50   26   27 1
    51   26   28 am
    52   28   29 2
    53   30   48 1
    54   30   49 1
    55   50   51 1
@<TRIPOS>MOLECULE
ZINC03964325
   57    59     0     0     0
SMALL
USER_CHARGES

@<TRIPOS>ATOM
      1 C1          0.1489    2.0884    0.1150 C.3       1 <0>        -0.1876
      2 C2          0.1348    0.5603    0.1888 C.3       1 <0>        -0.0191
      3 N1         -1.2520    0.0881    0.2979 N.4       1 <0>        -0.3822
      4 C3         -1.9779    0.4111   -0.9377 C.3       1 <0>        -0.0142
      5 C4         -3.4549    0.0484   -0.7712 C.3       1 <0>        -0.1895
      6 C5         -1.2593   -1.3663    0.5041 C.3       1 <0>        -0.0265
      7 C6         -0.6131   -1.6936    1.8518 C.3       1 <0>         0.0952
      8 N2         -0.6203   -3.1440    2.0575 N.am      1 <0>        -0.7289
      9 C7         -0.0988   -3.6675    3.1846 C.2       1 <0>         0.6111
     10 O1          0.3779   -2.9358    4.0309 O.2       1 <0>        -0.5184
     11 C8         -0.1061   -5.1270    3.3915 C.2       1 <0>        -0.2420
     12 C9          0.9071   -6.0320    3.0089 C.2       1 <0>        -0.0577
     13 C10         0.4868   -7.2892    3.3960 C.2       1 <0>        -0.0075
     14 N3         -0.7476   -7.1595    3.9982 N.pl3     1 <0>        -0.4910
     15 H1         -1.2731   -7.8879    4.3645 H         1 <0>         0.4270
     16 C11        -1.1044   -5.8642    4.0022 C.2       1 <0>         0.1158
     17 C12        -2.3825   -5.3072    4.5743 C.3       1 <0>        -0.0999
     18 C13         1.1957   -8.4957    3.2079 C.2       1 <0>         0.0729
     19 C14         0.5100   -9.6674    2.9570 C.2       1 <0>        -0.1889
     20 C15         1.0648  -11.0377    2.8871 C.ar      1 <0>        -0.0736
     21 C16         2.3472  -11.5557    3.0375 C.ar      1 <0>        -0.1000
     22 C17         2.5553  -12.9162    2.9116 C.ar      1 <0>         0.0861
     23 C18         1.4888  -13.7593    2.6366 C.ar      1 <0>        -0.1139
     24 C19         0.2139  -13.2531    2.4856 C.ar      1 <0>        -0.1021
     25 C20        -0.0144  -11.8871    2.6092 C.ar      1 <0>         0.1282
     26 N4         -1.1765  -11.1301    2.5069 N.am      1 <0>        -0.6466
     27 C21        -0.9294   -9.8245    2.7079 C.2       1 <0>         0.5595
     28 O2         -1.7538   -8.9280    2.6842 O.2       1 <0>        -0.5156
     29 F1          3.7984  -13.4252    3.0561 F         1 <0>        -0.1318
     30 C22         2.1990   -5.6919    2.3116 C.3       1 <0>        -0.0931
     31 H2          1.1793    2.4435    0.1331 H         1 <0>         0.1076
     32 H3         -0.3308    2.4121   -0.8087 H         1 <0>         0.0811
     33 H4         -0.3916    2.4984    0.9682 H         1 <0>         0.0809
     34 H5          0.5888    0.1488   -0.7126 H         1 <0>         0.1317
     35 H6          0.6996    0.2334    1.0619 H         1 <0>         0.1337
     36 H7         -1.8867    1.4775   -1.1444 H         1 <0>         0.1351
     37 H8         -1.5554   -0.1571   -1.7664 H         1 <0>         0.1307
     38 H9         -3.5537   -1.0316   -0.6617 H         1 <0>         0.0802
     39 H10        -3.8523    0.5414    0.1160 H         1 <0>         0.0808
     40 H11        -4.0109    0.3769   -1.6492 H         1 <0>         0.1074
     41 H12        -2.2871   -1.7292    0.4963 H         1 <0>         0.1397
     42 H13        -0.6973   -1.8494   -0.2952 H         1 <0>         0.1376
     43 H14         0.4147   -1.3306    1.8596 H         1 <0>         0.0893
     44 H15        -1.1751   -1.2105    2.6511 H         1 <0>         0.0890
     45 H16        -1.0005   -3.7277    1.3824 H         1 <0>         0.4099
     46 H17        -3.1529   -5.3000    3.8032 H         1 <0>         0.0840
     47 H18        -2.7087   -5.9289    5.4080 H         1 <0>         0.0782
     48 H19        -2.2103   -4.2898    4.9254 H         1 <0>         0.0840
     49 H20         2.2744   -8.5020    3.2604 H         1 <0>         0.1589
     50 H21         3.1765  -10.8977    3.2512 H         1 <0>         0.1436
     51 H22         1.6578  -14.8215    2.5394 H         1 <0>         0.1485
     52 H23        -0.6084  -13.9196    2.2712 H         1 <0>         0.1415
     53 H24        -2.0541  -11.4980    2.3189 H         1 <0>         0.4217
     54 H25         2.9686   -5.4822    3.0545 H         1 <0>         0.0785
     55 H26         2.5107   -6.5337    1.6932 H         1 <0>         0.0726
     56 H27         2.0522   -4.8138    1.6827 H         1 <0>         0.0634
     57 H28        -1.7009    0.5410    1.0799 H         1 <0>         0.4247
@<TRIPOS>BOND
     1    1    2 1
     2    1   31 1
     3    1   32 1
     4    1   33 1
     5    2    3 1
     6    2   34 1
     7    2   35 1
     8    3    4 1
     9    3    6 1
    10    3   57 1
    11    4    5 1
    12    4   36 1
    13    4   37 1
    14    5   38 1
    15    5   39 1
    16    5   40 1
    17    6    7 1
    18    6   41 1
    19    6   42 1
    20    7    8 1
    21    7   43 1
    22    7   44 1
    23    8    9 am
    24    8   45 1
    25    9   10 2
    26    9   11 1
    27   11   16 2
    28   11   12 1
    29   12   13 2
    30   12   30 1
    31   13   14 1
    32   13   18 1
    33   14   15 1
    34   14   16 1
    35   16   17 1
    36   17   46 1
    37   17   47 1
    38   17   48 1
    39   18   19 2
    40   18   49 1
    41   19   27 1
    42   19   20 1
    43   20   25 ar
    44   20   21 ar
    45   21   22 ar
    46   21   50 1
    47   22   23 ar
    48   22   29 1
    49   23   24 ar
    50   23   51 1
    51   24   25 ar
    52   24   52 1
    53   25   26 1
    54   26   27 am
    55   26   53 1
    56   27   28 2
    57   30   54 1
    58   30   55 1
    59   30   56 1
@<TRIPOS>MOLECULE
ZINC01546066
   52    54     0     0     0
SMALL
USER_CHARGES

@<TRIPOS>ATOM
      1 C1          1.3190    1.4185    0.8998 C.3       1 <0>         0.0308
      2 O1          1.1221    0.0121    0.7412 O.3       1 <0>        -0.3842
      3 C2          1.6336   -0.7719    1.8209 C.3       1 <0>         0.0626
      4 C3          1.3686   -2.2534    1.5456 C.3       1 <0>         0.0560
      5 O2          2.1105   -2.6643    0.3955 O.3       1 <0>        -0.2877
      6 C4          1.9861   -3.9631    0.0122 C.ar      1 <0>         0.1163
      7 C5          1.1727   -4.8014    0.7206 C.ar      1 <0>        -0.1508
      8 C6          1.0439   -6.1386    0.3269 C.ar      1 <0>        -0.1822
      9 C7          1.7562   -6.6146   -0.8018 C.ar      1 <0>         0.2018
     10 C8          2.5842   -5.7378   -1.5132 C.ar      1 <0>        -0.1867
     11 C9          2.6894   -4.4253   -1.1088 C.ar      1 <0>         0.1692
     12 O3          3.4878   -3.5711   -1.8004 O.3       1 <0>        -0.2847
     13 C10         4.1782   -4.1019   -2.9333 C.3       1 <0>         0.0544
     14 C11         5.0210   -3.0002   -3.5791 C.3       1 <0>         0.0626
     15 O4          6.0448   -2.5894   -2.6708 O.3       1 <0>        -0.3848
     16 C12         6.8933   -1.5581   -3.1792 C.3       1 <0>         0.0309
     17 N1          1.6146   -7.9009   -1.1583 N.ar      1 <0>        -0.5426
     18 C13         0.8310   -8.6986   -0.4725 C.ar      1 <0>         0.3422
     19 N2          0.1465   -8.2987    0.5874 N.ar      1 <0>        -0.5807
     20 C14         0.2146   -7.0483    1.0253 C.ar      1 <0>         0.4641
     21 N3         -0.5043   -6.6451    2.1328 N.pl3     1 <0>        -0.6417
     22 C15        -1.2223   -7.5837    2.8797 C.ar      1 <0>         0.1534
     23 C16        -2.4417   -7.2339    3.4483 C.ar      1 <0>        -0.1365
     24 C17        -3.1548   -8.1581    4.1879 C.ar      1 <0>        -0.0976
     25 C18        -2.6612   -9.4349    4.3666 C.ar      1 <0>        -0.1098
     26 C19        -1.4382   -9.7960    3.7995 C.ar      1 <0>         0.0290
     27 C20        -0.7210   -8.8652    3.0488 C.ar      1 <0>        -0.0846
     28 C21        -0.9239  -11.1197    3.9839 C.1       1 <0>        -0.1518
     29 C22        -0.5023  -12.2049    4.1351 C.1       1 <0>        -0.1689
     30 H1          2.3858    1.6300    0.9737 H         1 <0>         0.0438
     31 H2          0.9034    1.9430    0.0394 H         1 <0>         0.0882
     32 H3          0.8182    1.7554    1.8074 H         1 <0>         0.0421
     33 H4          2.7069   -0.6059    1.9138 H         1 <0>         0.0642
     34 H5          1.1392   -0.4804    2.7476 H         1 <0>         0.0738
     35 H6          1.6782   -2.8442    2.4078 H         1 <0>         0.0797
     36 H7          0.3045   -2.4047    1.3647 H         1 <0>         0.0731
     37 H8          0.6320   -4.4344    1.5804 H         1 <0>         0.1376
     38 H9          3.1329   -6.0870   -2.3754 H         1 <0>         0.1546
     39 H10         4.8282   -4.9164   -2.6138 H         1 <0>         0.0783
     40 H11         3.4545   -4.4770   -3.6569 H         1 <0>         0.0849
     41 H12         5.4773   -3.3804   -4.4931 H         1 <0>         0.0752
     42 H13         4.3841   -2.1485   -3.8181 H         1 <0>         0.0638
     43 H14         6.2953   -0.6764   -3.4098 H         1 <0>         0.0434
     44 H15         7.6433   -1.3027   -2.4306 H         1 <0>         0.0879
     45 H16         7.3884   -1.9084   -4.0848 H         1 <0>         0.0424
     46 H17         0.7401   -9.7278   -0.7869 H         1 <0>         0.1966
     47 H18        -0.5113   -5.7106    2.3927 H         1 <0>         0.4197
     48 H19        -2.8329   -6.2365    3.3119 H         1 <0>         0.1281
     49 H20        -4.1012   -7.8805    4.6278 H         1 <0>         0.1331
     50 H21        -3.2213  -10.1542    4.9456 H         1 <0>         0.1284
     51 H22         0.2239   -9.1405    2.6039 H         1 <0>         0.1386
     52 H23        -0.1252  -13.1754    4.2703 H         1 <0>         0.2249
@<TRIPOS>BOND
     1    1    2 1
     2    1   30 1
     3    1   31 1
     4    1   32 1
     5    2    3 1
     6    3    4 1
     7    3   33 1
     8    3   34 1
     9    4    5 1
    10    4   35 1
    11    4   36 1
    12    5    6 1
    13    6   11 ar
    14    6    7 ar
    15    7    8 ar
    16    7   37 1
    17    8   20 ar
    18    8    9 ar
    19    9   10 ar
    20    9   17 ar
    21   10   11 ar
    22   10   38 1
    23   11   12 1
    24   12   13 1
    25   13   14 1
    26   13   39 1
    27   13   40 1
    28   14   15 1
    29   14   41 1
    30   14   42 1
    31   15   16 1
    32   16   43 1
    33   16   44 1
    34   16   45 1
    35   17   18 ar
    36   18   19 ar
    37   18   46 1
    38   19   20 ar
    39   20   21 1
    40   21   22 1
    41   21   47 1
    42   22   27 ar
    43   22   23 ar
    44   23   24 ar
    45   23   48 1
    46   24   25 ar
    47   24   49 1
    48   25   26 ar
    49   25   50 1
    50   26   27 ar
    51   26   28 1
    52   27   51 1
    53   28   29 3
    54   29   52 1
@<TRIPOS>MOLECULE
ZINC18710085
   53    57     0     0     0
SMALL
USER_CHARGES

@<TRIPOS>ATOM
      1 C1          0.0890    1.3306    0.4873 C.3       1 <0>         0.0749
      2 N1          0.4081   -0.0534    0.1284 N.pl3     1 <0>        -0.5085
      3 C2          0.3528   -0.6077   -1.1416 C.ar      1 <0>         0.0507
      4 C3          0.0137   -0.1123   -2.3916 C.ar      1 <0>        -0.0838
      5 C4          0.0591   -0.9388   -3.4947 C.ar      1 <0>        -0.1077
      6 C5          0.4436   -2.2696   -3.3617 C.ar      1 <0>         0.0751
      7 C6          0.7843   -2.7778   -2.1231 C.ar      1 <0>        -0.0835
      8 C7          0.7420   -1.9496   -0.9988 C.ar      1 <0>         0.0911
      9 N2          1.0108   -2.1503    0.3180 N.2       1 <0>        -0.5208
     10 C8          0.8212   -1.0367    0.9810 C.2       1 <0>         0.5369
     11 N3          1.0073   -0.8814    2.3399 N.pl3     1 <0>        -0.6412
     12 C9          1.5328   -1.9319    3.0980 C.ar      1 <0>         0.2053
     13 C10         2.3998   -2.8463    2.5135 C.ar      1 <0>        -0.1275
     14 C11         2.9176   -3.8826    3.2654 C.ar      1 <0>        -0.0424
     15 C12         2.5735   -4.0107    4.5987 C.ar      1 <0>        -0.2053
     16 C13         1.7106   -3.1021    5.1837 C.ar      1 <0>        -0.0432
     17 C14         1.1938   -2.0602    4.4389 C.ar      1 <0>        -0.1549
     18 C15         3.1396   -5.1433    5.4158 C.3       1 <0>         0.5100
     19 F1          4.3412   -4.7372    6.0062 F         1 <0>        -0.1771
     20 F2          2.2267   -5.5000    6.4140 F         1 <0>        -0.1778
     21 F3          3.3767   -6.2442    4.5857 F         1 <0>        -0.1766
     22 O1          0.4838   -3.0743   -4.4569 O.3       1 <0>        -0.2390
     23 C16        -0.5198   -3.9726   -4.6248 C.ar      1 <0>         0.1693
     24 C17        -1.5519   -4.0724   -3.6928 C.ar      1 <0>        -0.2330
     25 C18        -2.5577   -4.9965   -3.8940 C.ar      1 <0>         0.1462
     26 N4         -2.5549   -5.7828   -4.9518 N.ar      1 <0>        -0.5008
     27 C19        -1.5918   -5.7224   -5.8653 C.ar      1 <0>         0.2185
     28 C20        -0.5464   -4.8114   -5.7333 C.ar      1 <0>        -0.1453
     29 C21        -1.6332   -6.6264   -7.0353 C.2       1 <0>         0.2951
     30 N5         -2.5993   -7.5546   -7.2938 N.pl3     1 <0>        -0.5196
     31 H1         -3.3797   -7.7419   -6.7491 H         1 <0>         0.4364
     32 C22        -2.2593   -8.1700   -8.4662 C.2       1 <0>        -0.1211
     33 C23        -1.1072   -7.6076   -8.8883 C.2       1 <0>         0.0664
     34 N6         -0.7487   -6.6689   -8.0066 N.2       1 <0>        -0.4582
     35 C24        -3.0256   -9.2688   -9.1565 C.3       1 <0>         0.5516
     36 F4         -3.9502   -8.7065  -10.0431 F         1 <0>        -0.1675
     37 F5         -2.1361  -10.0835   -9.8651 F         1 <0>        -0.1592
     38 F6         -3.7018  -10.0363   -8.2021 F         1 <0>        -0.1759
     39 H2          0.9883    1.9420    0.4122 H         1 <0>         0.0804
     40 H3         -0.6705    1.7164   -0.1926 H         1 <0>         0.0932
     41 H4         -0.2881    1.3632    1.5095 H         1 <0>         0.0841
     42 H5         -0.2858    0.9195   -2.5011 H         1 <0>         0.1337
     43 H6         -0.2058   -0.5511   -4.4673 H         1 <0>         0.1432
     44 H7          1.0819   -3.8113   -2.0243 H         1 <0>         0.1405
     45 H8          0.7733   -0.0434    2.7688 H         1 <0>         0.4223
     46 H9          2.6684   -2.7473    1.4722 H         1 <0>         0.1551
     47 H10         3.5917   -4.5939    2.8116 H         1 <0>         0.1402
     48 H11         1.4439   -3.2049    6.2251 H         1 <0>         0.1410
     49 H12         0.5234   -1.3483    4.8975 H         1 <0>         0.1374
     50 H13        -1.5643   -3.4335   -2.8221 H         1 <0>         0.1469
     51 H14        -3.3584   -5.0766   -3.1737 H         1 <0>         0.1687
     52 H15         0.2337   -4.7602   -6.4784 H         1 <0>         0.1618
     53 H16        -0.5687   -7.8687   -9.7873 H         1 <0>         0.1936
@<TRIPOS>BOND
     1    1    2 1
     2    1   39 1
     3    1   40 1
     4    1   41 1
     5    2   10 1
     6    2    3 1
     7    3    8 ar
     8    3    4 ar
     9    4    5 ar
    10    4   42 1
    11    5    6 ar
    12    5   43 1
    13    6    7 ar
    14    6   22 1
    15    7    8 ar
    16    7   44 1
    17    8    9 1
    18    9   10 2
    19   10   11 1
    20   11   12 1
    21   11   45 1
    22   12   17 ar
    23   12   13 ar
    24   13   14 ar
    25   13   46 1
    26   14   15 ar
    27   14   47 1
    28   15   16 ar
    29   15   18 1
    30   16   17 ar
    31   16   48 1
    32   17   49 1
    33   18   19 1
    34   18   20 1
    35   18   21 1
    36   22   23 1
    37   23   28 ar
    38   23   24 ar
    39   24   25 ar
    40   24   50 1
    41   25   26 ar
    42   25   51 1
    43   26   27 ar
    44   27   28 ar
    45   27   29 1
    46   28   52 1
    47   29   34 2
    48   29   30 1
    49   30   31 1
    50   30   32 1
    51   32   33 2
    52   32   35 1
    53   33   34 1
    54   33   53 1
    55   35   36 1
    56   35   37 1
    57   35   38 1
@<TRIPOS>MOLECULE
ZINC18710082
   51    54     0     0     0
SMALL
USER_CHARGES
N-(3,3-dimethylindolin-6-yl)-2-(4-pyridylmethylamino)pyridine-3-carboxamide
@<TRIPOS>ATOM
      1 C1         -0.1736   12.3280    1.7993 C.3       1 <0>        -0.1353
      2 C2          0.1708   11.8132    0.4003 C.3       1 <0>        -0.0256
      3 C3         -1.0658   11.8695   -0.5114 C.3       1 <0>         0.1234
      4 N1         -1.3159   10.4807   -0.9061 N.pl3     1 <0>        -0.7429
      5 C4         -0.3660    9.6387   -0.3256 C.ar      1 <0>         0.2160
      6 C5          0.5375   10.3468    0.4531 C.ar      1 <0>        -0.1735
      7 C6          1.5592    9.6928    1.1152 C.ar      1 <0>        -0.0387
      8 C7          1.6921    8.3220    1.0083 C.ar      1 <0>        -0.1957
      9 C8          0.7942    7.6005    0.2318 C.ar      1 <0>         0.1856
     10 C9         -0.2273    8.2550   -0.4368 C.ar      1 <0>        -0.1821
     11 N2          0.9251    6.2127    0.1203 N.am      1 <0>        -0.6647
     12 C10        -0.1735    5.4372    0.0302 C.2       1 <0>         0.5789
     13 O1         -1.2750    5.9485   -0.0352 O.2       1 <0>        -0.5287
     14 C11        -0.0401    3.9694    0.0111 C.ar      1 <0>        -0.2727
     15 C12         1.2239    3.3691   -0.0284 C.ar      1 <0>         0.0067
     16 C13         1.2952    1.9877   -0.0446 C.ar      1 <0>        -0.2460
     17 C14         0.1281    1.2446   -0.0215 C.ar      1 <0>         0.1889
     18 N3         -1.0535    1.8288    0.0102 N.ar      1 <0>        -0.5475
     19 C15        -1.1794    3.1469    0.0326 C.ar      1 <0>         0.4585
     20 N4         -2.4385    3.7170    0.0712 N.pl3     1 <0>        -0.6966
     21 C16        -3.6235    2.8669    0.2103 C.3       1 <0>         0.1646
     22 C17        -4.8603    3.7278    0.2259 C.ar      1 <0>        -0.0635
     23 C18        -5.3699    4.2164    1.4192 C.ar      1 <0>        -0.1527
     24 C19        -6.5037    5.0063    1.3940 C.ar      1 <0>         0.0990
     25 N5         -7.1042    5.2881    0.2543 N.ar      1 <0>        -0.4796
     26 C20        -6.6504    4.8370   -0.8988 C.ar      1 <0>         0.0984
     27 C21        -5.5189    4.0453   -0.9522 C.ar      1 <0>        -0.1533
     28 C22         1.3163   12.6286   -0.2029 C.3       1 <0>        -0.1347
     29 H1          0.6875   12.2011    2.4554 H         1 <0>         0.0611
     30 H2         -0.4352   13.3847    1.7435 H         1 <0>         0.0600
     31 H3         -1.0186   11.7650    2.1958 H         1 <0>         0.0571
     32 H4         -0.8602   12.4810   -1.3900 H         1 <0>         0.0683
     33 H5         -1.9215   12.2676    0.0338 H         1 <0>         0.0682
     34 H6         -2.0366   10.1891   -1.4861 H         1 <0>         0.4122
     35 H7          2.2565   10.2556    1.7181 H         1 <0>         0.1233
     36 H8          2.4915    7.8130    1.5263 H         1 <0>         0.1249
     37 H9         -0.9211    7.6916   -1.0433 H         1 <0>         0.1338
     38 H10         1.8066    5.8081    0.1078 H         1 <0>         0.4114
     39 H11         2.1214    3.9696   -0.0455 H         1 <0>         0.1354
     40 H12         2.2547    1.4928   -0.0753 H         1 <0>         0.1405
     41 H13         0.1860    0.1663   -0.0342 H         1 <0>         0.1633
     42 H14        -2.5372    4.6797    0.0061 H         1 <0>         0.4269
     43 H15        -3.6739    2.1736   -0.6293 H         1 <0>         0.0815
     44 H16        -3.5601    2.3050    1.1421 H         1 <0>         0.0787
     45 H17        -4.8851    3.9853    2.3562 H         1 <0>         0.1361
     46 H18        -6.9051    5.3935    2.3188 H         1 <0>         0.1583
     47 H19        -7.1692    5.0889   -1.8119 H         1 <0>         0.1582
     48 H20        -5.1525    3.6783   -1.8995 H         1 <0>         0.1363
     49 H21         1.5192   12.2770   -1.2145 H         1 <0>         0.0571
     50 H22         1.0360   13.6815   -0.2335 H         1 <0>         0.0599
     51 H23         2.2099   12.5082    0.4097 H         1 <0>         0.0612
@<TRIPOS>BOND
     1    1    2 1
     2    1   29 1
     3    1   30 1
     4    1   31 1
     5    2    6 1
     6    2    3 1
     7    2   28 1
     8    3    4 1
     9    3   32 1
    10    3   33 1
    11    4    5 1
    12    4   34 1
    13    5   10 ar
    14    5    6 ar
    15    6    7 ar
    16    7    8 ar
    17    7   35 1
    18    8    9 ar
    19    8   36 1
    20    9   10 ar
    21    9   11 1
    22   10   37 1
    23   11   12 am
    24   11   38 1
    25   12   13 2
    26   12   14 1
    27   14   19 ar
    28   14   15 ar
    29   15   16 ar
    30   15   39 1
    31   16   17 ar
    32   16   40 1
    33   17   18 ar
    34   17   41 1
    35   18   19 ar
    36   19   20 1
    37   20   21 1
    38   20   42 1
    39   21   22 1
    40   21   43 1
    41   21   44 1
    42   22   27 ar
    43   22   23 ar
    44   23   24 ar
    45   23   45 1
    46   24   25 ar
    47   24   46 1
    48   25   26 ar
    49   26   27 ar
    50   26   47 1
    51   27   48 1
    52   28   49 1
    53   28   50 1
    54   28   51 1
@<TRIPOS>MOLECULE
ZINC18825339
   59    62     0     0     0
SMALL
USER_CHARGES
5-[(Z)-(5-fluoro-2-oxo-indolin-3-ylidene)methyl]-N-[(2R)-2-hydroxy-3-morpholino-propyl]-2,4-dimethyl-1H-pyrrole-3-carboxamide
@<TRIPOS>ATOM
      1 C1          3.5607    0.7280    0.3667 C.3       1 <0>        -0.0956
      2 C2          2.0758    0.7165    0.1102 C.2       1 <0>        -0.0564
      3 C3          1.2591    1.8188   -0.0477 C.2       1 <0>        -0.0308
      4 N1         -0.0271    1.3691   -0.2640 N.pl3     1 <0>        -0.5068
      5 H1         -0.8436    2.0903   -0.4163 H         1 <0>         0.4494
      6 C4         -0.0354    0.0257   -0.2455 C.2       1 <0>         0.1277
      7 C5          1.2525   -0.4230   -0.0155 C.2       1 <0>        -0.2308
      8 C6          1.6847   -1.8291    0.0810 C.2       1 <0>         0.5980
      9 O1          2.0430   -2.4250   -0.9167 O.2       1 <0>        -0.5421
     10 N2          1.6827   -2.4542    1.2750 N.am      1 <0>        -0.7266
     11 C7          2.1121   -3.8516    1.3710 C.3       1 <0>         0.1299
     12 C8          2.0150   -4.3162    2.8255 C.3       1 <0>         0.1144
     13 H2          2.5334   -3.6206    3.5018 H         1 <0>         0.0568
     14 C9          2.5799   -5.7329    2.9471 C.3       1 <0>         0.0228
     15 N3          2.4867   -6.1790    4.3436 N.3       1 <0>        -0.5349
     16 C10         3.3671   -5.3829    5.2109 C.3       1 <0>         0.0083
     17 C11         3.1945   -5.8402    6.6618 C.3       1 <0>         0.0618
     18 O2          3.4694   -7.2408    6.7508 O.3       1 <0>        -0.3843
     19 C12         2.6296   -8.0463    5.9193 C.3       1 <0>         0.0614
     20 C13         2.7965   -7.6114    4.4609 C.3       1 <0>         0.0172
     21 O3          0.6463   -4.3123    3.2364 O.3       1 <0>        -0.5882
     22 C14        -1.2476   -0.8477   -0.4426 C.3       1 <0>        -0.0994
     23 C15         1.6686    3.1691    0.0027 C.2       1 <0>         0.0908
     24 C16         0.8216    4.1284    0.5209 C.2       1 <0>        -0.2125
     25 C17         1.0162    5.5955    0.5210 C.ar      1 <0>        -0.0684
     26 C18         2.0202    6.4240    0.0297 C.ar      1 <0>        -0.1043
     27 C19         1.9118    7.7937    0.1786 C.ar      1 <0>         0.0808
     28 C20         0.8031    8.3379    0.8097 C.ar      1 <0>        -0.1198
     29 C21        -0.2000    7.5233    1.2941 C.ar      1 <0>        -0.1061
     30 C22        -0.1080    6.1430    1.1533 C.ar      1 <0>         0.1250
     31 N4         -0.9593    5.1144    1.5420 N.am      1 <0>        -0.6604
     32 C23        -0.4649    3.9133    1.1971 C.2       1 <0>         0.5647
     33 O4         -0.9909    2.8351    1.4086 O.2       1 <0>        -0.5132
     34 F1          2.8866    8.6030   -0.2904 F         1 <0>        -0.1355
     35 H3          3.9167    1.7678    0.4131 H         1 <0>         0.0672
     36 H4          4.0776    0.1994   -0.4478 H         1 <0>         0.0746
     37 H5          3.7717    0.2252    1.3221 H         1 <0>         0.0710
     38 H6          1.3586   -1.9152    2.1775 H         1 <0>         0.4262
     39 H7          1.4633   -4.4786    0.7417 H         1 <0>         0.0750
     40 H8          3.1531   -3.9398    1.0266 H         1 <0>         0.0785
     41 H9          2.0023   -6.4143    2.3052 H         1 <0>         0.0900
     42 H10         3.6334   -5.7360    2.6307 H         1 <0>         0.0465
     43 H11         4.4130   -5.5254    4.9015 H         1 <0>         0.0459
     44 H12         3.1012   -4.3189    5.1257 H         1 <0>         0.0881
     45 H13         3.8925   -5.2859    7.3064 H         1 <0>         0.1001
     46 H14         2.1618   -5.6458    6.9871 H         1 <0>         0.0615
     47 H15         2.9156   -9.1033    6.0238 H         1 <0>         0.1009
     48 H16         1.5805   -7.9185    6.2243 H         1 <0>         0.0621
     49 H17         2.1104   -8.1883    3.8234 H         1 <0>         0.0898
     50 H18         3.8332   -7.7899    4.1393 H         1 <0>         0.0455
     51 H19         0.3780   -4.6185    4.2583 H         1 <0>         0.4136
     52 H20        -0.9523   -1.9052   -0.3757 H         1 <0>         0.0845
     53 H21        -1.6843   -0.6508   -1.4328 H         1 <0>         0.0777
     54 H22        -1.9909   -0.6245    0.3369 H         1 <0>         0.0809
     55 H23         2.6624    3.4568   -0.3709 H         1 <0>         0.1579
     56 H24         2.8828    5.9984   -0.4614 H         1 <0>         0.1409
     57 H25         0.7239    9.4091    0.9228 H         1 <0>         0.1443
     58 H26        -1.0583    7.9589    1.7840 H         1 <0>         0.1386
     59 H27        -1.9003    5.3463    2.0623 H         1 <0>         0.4455
@<TRIPOS>BOND
     1    1    2 1
     2    1   35 1
     3    1   36 1
     4    1   37 1
     5    2    7 1
     6    2    3 2
     7    3    4 1
     8    3   23 1
     9    4    5 1
    10    4    6 1
    11    6    7 2
    12    6   22 1
    13    7    8 1
    14    8    9 2
    15    8   10 am
    16   10   11 1
    17   10   38 1
    18   11   12 1
    19   11   39 1
    20   11   40 1
    21   12   13 1
    22   12   14 1
    23   12   21 1
    24   14   15 1
    25   14   41 1
    26   14   42 1
    27   15   20 1
    28   15   16 1
    29   16   17 1
    30   16   43 1
    31   16   44 1
    32   17   18 1
    33   17   45 1
    34   17   46 1
    35   18   19 1
    36   19   20 1
    37   19   47 1
    38   19   48 1
    39   20   49 1
    40   20   50 1
    41   21   51 1
    42   22   52 1
    43   22   53 1
    44   22   54 1
    45   23   24 2
    46   23   55 1
    47   24   32 1
    48   24   25 1
    49   25   30 ar
    50   25   26 ar
    51   26   27 ar
    52   26   56 1
    53   27   28 ar
    54   27   34 1
    55   28   29 ar
    56   28   57 1
    57   29   30 ar
    58   29   58 1
    59   30   31 1
    60   31   32 am
    61   31   59 1
    62   32   33 2
@<TRIPOS>MOLECULE
ZINC18825344
   59    62     0     0     0
SMALL
USER_CHARGES
5-[(Z)-(5-fluoro-2-oxo-indolin-3-ylidene)methyl]-N-[(2S)-2-hydroxy-3-morpholino-propyl]-2,4-dimethyl-1H-pyrrole-3-carboxamide
@<TRIPOS>ATOM
      1 C1          4.7056    0.6287    1.0117 C.3       1 <0>        -0.0968
      2 C2          3.2464    0.8378    0.6983 C.2       1 <0>        -0.0523
      3 C3          2.5980    2.0501    0.5678 C.2       1 <0>        -0.0327
      4 N1          1.2732    1.7961    0.2789 N.pl3     1 <0>        -0.5060
      5 H1          0.5720    2.6311    0.1339 H         1 <0>         0.4496
      6 C4          1.0783    0.4679    0.2258 C.2       1 <0>         0.1246
      7 C5          2.2801   -0.1676    0.4808 C.2       1 <0>        -0.2308
      8 C6          2.5088   -1.6234    0.5191 C.2       1 <0>         0.5976
      9 O1          2.8262   -2.2159   -0.4944 O.2       1 <0>        -0.5428
     10 N2          2.3662   -2.2977    1.6773 N.am      1 <0>        -0.7254
     11 C7          2.5935   -3.7444    1.7154 C.3       1 <0>         0.1298
     12 C8          2.3672   -4.2590    3.1384 C.3       1 <0>         0.1172
     13 H2          1.3599   -4.0040    3.4994 H         1 <0>         0.0560
     14 C9          2.6045   -5.7699    3.1781 C.3       1 <0>         0.0219
     15 N3          2.3382   -6.2720    4.5327 N.3       1 <0>        -0.5356
     16 C10         2.9762   -7.5793    4.7450 C.3       1 <0>         0.0168
     17 C11         2.7241   -8.0365    6.1842 C.3       1 <0>         0.0612
     18 O2          1.3152   -8.0759    6.4267 O.3       1 <0>        -0.3844
     19 C12         0.6618   -6.8191    6.2299 C.3       1 <0>         0.0617
     20 C13         0.8930   -6.3496    4.7911 C.3       1 <0>         0.0111
     21 O3          3.2765   -3.6103    4.0297 O.3       1 <0>        -0.5892
     22 C14        -0.2328   -0.2165   -0.0637 C.3       1 <0>        -0.0987
     23 C15         3.1876    3.3256    0.7056 C.2       1 <0>         0.0935
     24 C16         2.4515    4.3746    1.2192 C.2       1 <0>        -0.2157
     25 C17         2.8515    5.7966    1.3077 C.ar      1 <0>        -0.0669
     26 C18         3.9943    6.4912    0.9234 C.ar      1 <0>        -0.1048
     27 C19         4.0710    7.8545    1.1363 C.ar      1 <0>         0.0814
     28 C20         3.0098    8.5263    1.7247 C.ar      1 <0>        -0.1204
     29 C21         1.8704    7.8457    2.1029 C.ar      1 <0>        -0.1055
     30 C22         1.7753    6.4739    1.8965 C.ar      1 <0>         0.1237
     31 N4          0.7622    5.5637    2.1775 N.am      1 <0>        -0.6596
     32 C23         1.1039    4.3195    1.8021 C.2       1 <0>         0.5657
     33 O4          0.4171    3.3209    1.9242 O.2       1 <0>        -0.5153
     34 F1          5.1807    8.5334    0.7715 F         1 <0>        -0.1355
     35 H3          5.1994    1.6049    1.1269 H         1 <0>         0.0668
     36 H4          5.1808    0.0720    0.1906 H         1 <0>         0.0744
     37 H5          4.8016    0.0567    1.9464 H         1 <0>         0.0741
     38 H6          2.0791   -1.7617    2.5940 H         1 <0>         0.4273
     39 H7          1.8935   -4.2437    1.0293 H         1 <0>         0.0777
     40 H8          3.6268   -3.9615    1.4070 H         1 <0>         0.0736
     41 H9          1.9304   -6.2658    2.4641 H         1 <0>         0.0486
     42 H10         3.6486   -5.9844    2.9062 H         1 <0>         0.0884
     43 H11         2.5501   -8.3132    4.0451 H         1 <0>         0.0451
     44 H12         4.0587   -7.4917    4.5704 H         1 <0>         0.0900
     45 H13         3.1515   -9.0395    6.3305 H         1 <0>         0.1008
     46 H14         3.1986   -7.3305    6.8817 H         1 <0>         0.0620
     47 H15        -0.4170   -6.9344    6.4112 H         1 <0>         0.1000
     48 H16         1.0741   -6.0778    6.9303 H         1 <0>         0.0613
     49 H17         0.4415   -5.3564    4.6504 H         1 <0>         0.0873
     50 H18         0.4333   -7.0637    4.0920 H         1 <0>         0.0461
     51 H19         3.2627   -3.8533    5.1024 H         1 <0>         0.4141
     52 H20        -0.0899   -1.3070   -0.0417 H         1 <0>         0.0829
     53 H21        -0.5927    0.0862   -1.0581 H         1 <0>         0.0781
     54 H22        -0.9728    0.0718    0.6974 H         1 <0>         0.0803
     55 H23         4.2335    3.4835    0.4037 H         1 <0>         0.1584
     56 H24         4.8196    5.9664    0.4654 H         1 <0>         0.1411
     57 H25         3.0756    9.5918    1.8882 H         1 <0>         0.1443
     58 H26         1.0507    8.3797    2.5605 H         1 <0>         0.1385
     59 H27        -0.1701    5.9069    2.6497 H         1 <0>         0.4455
@<TRIPOS>BOND
     1    1    2 1
     2    1   35 1
     3    1   36 1
     4    1   37 1
     5    2    7 1
     6    2    3 2
     7    3    4 1
     8    3   23 1
     9    4    5 1
    10    4    6 1
    11    6    7 2
    12    6   22 1
    13    7    8 1
    14    8    9 2
    15    8   10 am
    16   10   11 1
    17   10   38 1
    18   11   12 1
    19   11   39 1
    20   11   40 1
    21   12   13 1
    22   12   14 1
    23   12   21 1
    24   14   15 1
    25   14   41 1
    26   14   42 1
    27   15   20 1
    28   15   16 1
    29   16   17 1
    30   16   43 1
    31   16   44 1
    32   17   18 1
    33   17   45 1
    34   17   46 1
    35   18   19 1
    36   19   20 1
    37   19   47 1
    38   19   48 1
    39   20   49 1
    40   20   50 1
    41   21   51 1
    42   22   52 1
    43   22   53 1
    44   22   54 1
    45   23   24 2
    46   23   55 1
    47   24   32 1
    48   24   25 1
    49   25   30 ar
    50   25   26 ar
    51   26   27 ar
    52   26   56 1
    53   27   28 ar
    54   27   34 1
    55   28   29 ar
    56   28   57 1
    57   29   30 ar
    58   29   58 1
    59   30   31 1
    60   31   32 am
    61   31   59 1
    62   32   33 2
@<TRIPOS>MOLECULE
ZINC23247639
   69    72     0     0     0
SMALL
USER_CHARGES
1-[4-[(4-ethylpiperazin-1-yl)methyl]-3-(trifluoromethyl)phenyl]-3-[4-(6-methylaminopyrimidin-4-yl)oxyphenyl]urea
@<TRIPOS>ATOM
      1 C1          8.9417    3.3719    8.2172 C.3       1 <0>        -0.1901
      2 C2         10.1498    2.9102    7.3997 C.3       1 <0>        -0.0070
      3 N1          9.9972    3.3533    6.0075 N.4       1 <0>        -0.4011
      4 C3         11.2367    3.1387    5.2477 C.3       1 <0>         0.0016
      5 C4         11.0629    3.6845    3.8284 C.3       1 <0>         0.0271
      6 N2          9.9288    3.0094    3.1822 N.3       1 <0>        -0.5300
      7 C5          8.6893    3.2240    3.9420 C.3       1 <0>         0.0232
      8 C6          8.8631    2.6781    5.3612 C.3       1 <0>        -0.0016
      9 C7          9.7762    3.4524    1.7899 C.3       1 <0>         0.0786
     10 C8          8.7879    2.5601    1.0842 C.ar      1 <0>        -0.0666
     11 C9          7.5022    3.0092    0.8434 C.ar      1 <0>        -0.0932
     12 C10         6.5958    2.1959    0.1923 C.ar      1 <0>        -0.0888
     13 C11         6.9731    0.9214   -0.2106 C.ar      1 <0>         0.1880
     14 C12         8.2646    0.4735    0.0326 C.ar      1 <0>        -0.1043
     15 C13         9.1683    1.2940    0.6793 C.ar      1 <0>        -0.1369
     16 C14        10.5702    0.8086    0.9441 C.3       1 <0>         0.5111
     17 F1         10.7250   -0.4786    0.4184 F         1 <0>        -0.1776
     18 F2         11.4860    1.6739    0.3362 F         1 <0>        -0.1774
     19 F3         10.8008    0.7797    2.3237 F         1 <0>        -0.1628
     20 N3          6.0552    0.0926   -0.8655 N.am      1 <0>        -0.6979
     21 C15         4.7513    0.1311   -0.5266 C.2       1 <0>         0.7117
     22 O1          4.3858    0.8194    0.4067 O.2       1 <0>        -0.5623
     23 N4          3.8526   -0.5934   -1.2222 N.am      1 <0>        -0.6900
     24 C16         2.4863   -0.4790   -0.9335 C.ar      1 <0>         0.1635
     25 C17         1.5516   -0.5518   -1.9576 C.ar      1 <0>        -0.1265
     26 C18         0.2052   -0.4394   -1.6724 C.ar      1 <0>        -0.0923
     27 C19        -0.2137   -0.2543   -0.3628 C.ar      1 <0>         0.0841
     28 C20         0.7198   -0.1815    0.6609 C.ar      1 <0>        -0.0957
     29 C21         2.0665   -0.2932    0.3769 C.ar      1 <0>        -0.1058
     30 O2         -1.5393   -0.1385   -0.0833 O.3       1 <0>        -0.2424
     31 C22        -2.3129   -1.2454   -0.1983 C.ar      1 <0>         0.3836
     32 C23        -3.6894   -1.1637   -0.0277 C.ar      1 <0>        -0.3134
     33 C24        -4.4409   -2.3284   -0.1601 C.ar      1 <0>         0.4631
     34 N5         -3.8165   -3.4721   -0.4341 N.ar      1 <0>        -0.5936
     35 C25        -2.5082   -3.5081   -0.5840 C.ar      1 <0>         0.3760
     36 N6         -1.7644   -2.4263   -0.4707 N.ar      1 <0>        -0.6039
     37 N7         -5.8178   -2.2988   -0.0034 N.pl3     1 <0>        -0.7218
     38 C26        -6.4937   -1.0344    0.2979 C.3       1 <0>         0.0891
     39 H1          9.0560    3.0401    9.2597 H         1 <0>         0.1066
     40 H2          8.0243    2.9380    7.7928 H         1 <0>         0.0798
     41 H3          8.8763    4.4695    8.1868 H         1 <0>         0.0803
     42 H4         11.0672    3.3441    7.8241 H         1 <0>         0.1306
     43 H5         10.2153    1.8126    7.4301 H         1 <0>         0.1269
     44 H6         12.0665    3.6630    5.7442 H         1 <0>         0.1361
     45 H7         11.4577    2.0621    5.2031 H         1 <0>         0.1357
     46 H8         10.8699    4.7665    3.8728 H         1 <0>         0.0625
     47 H9         11.9796    3.4990    3.2494 H         1 <0>         0.1239
     48 H10         8.4684    4.3007    3.9867 H         1 <0>         0.0621
     49 H11         7.8594    2.6998    3.4455 H         1 <0>         0.1239
     50 H12         9.0569    1.5962    5.3178 H         1 <0>         0.1351
     51 H13         7.9470    2.8635    5.9412 H         1 <0>         0.1359
     52 H14         9.4106    4.4897    1.7732 H         1 <0>         0.0663
     53 H15        10.7489    3.3982    1.2791 H         1 <0>         0.1073
     54 H16         7.2082    3.9988    1.1607 H         1 <0>         0.1358
     55 H17         5.5933    2.5489    0.0003 H         1 <0>         0.1466
     56 H18         8.5625   -0.5152   -0.2838 H         1 <0>         0.1447
     57 H19         6.3979   -0.5903   -1.6569 H         1 <0>         0.4387
     58 H20         4.1917   -1.2745   -2.0166 H         1 <0>         0.4355
     59 H21         1.8775   -0.6959   -2.9771 H         1 <0>         0.1334
     60 H22        -0.5220   -0.4960   -2.4689 H         1 <0>         0.1303
     61 H23         0.3932   -0.0371    1.6801 H         1 <0>         0.1327
     62 H24         2.7931   -0.2369    1.1740 H         1 <0>         0.1442
     63 H25        -4.1646   -0.2205    0.1982 H         1 <0>         0.1466
     64 H26        -2.0315   -4.4515   -0.8058 H         1 <0>         0.2000
     65 H27        -6.4030   -3.2246   -0.1053 H         1 <0>         0.4376
     66 H28        -7.5762   -1.2091    0.3856 H         1 <0>         0.0864
     67 H29        -6.3028   -0.3146   -0.5117 H         1 <0>         0.0603
     68 H30        -6.1096   -0.6302    1.2461 H         1 <0>         0.0599
     69 H31         9.7882    4.4332    6.0188 H         1 <0>         0.4364
@<TRIPOS>BOND
     1    1    2 1
     2    1   39 1
     3    1   40 1
     4    1   41 1
     5    2    3 1
     6    2   42 1
     7    2   43 1
     8    3    8 1
     9    3    4 1
    10    3   69 1
    11    4    5 1
    12    4   44 1
    13    4   45 1
    14    5    6 1
    15    5   46 1
    16    5   47 1
    17    6    7 1
    18    6    9 1
    19    7    8 1
    20    7   48 1
    21    7   49 1
    22    8   50 1
    23    8   51 1
    24    9   10 1
    25    9   52 1
    26    9   53 1
    27   10   15 ar
    28   10   11 ar
    29   11   12 ar
    30   11   54 1
    31   12   13 ar
    32   12   55 1
    33   13   14 ar
    34   13   20 1
    35   14   15 ar
    36   14   56 1
    37   15   16 1
    38   16   17 1
    39   16   18 1
    40   16   19 1
    41   20   21 am
    42   20   57 1
    43   21   22 2
    44   21   23 am
    45   23   24 1
    46   23   58 1
    47   24   29 ar
    48   24   25 ar
    49   25   26 ar
    50   25   59 1
    51   26   27 ar
    52   26   60 1
    53   27   28 ar
    54   27   30 1
    55   28   29 ar
    56   28   61 1
    57   29   62 1
    58   30   31 1
    59   31   36 ar
    60   31   32 ar
    61   32   33 ar
    62   32   63 1
    63   33   34 ar
    64   33   37 1
    65   34   35 ar
    66   35   36 ar
    67   35   64 1
    68   37   38 1
    69   37   65 1
    70   38   66 1
    71   38   67 1
    72   38   68 1
@<TRIPOS>MOLECULE
ZINC23247639
   69    72     0     0     0
SMALL
USER_CHARGES
1-[4-[(4-ethylpiperazin-1-yl)methyl]-3-(trifluoromethyl)phenyl]-3-[4-(6-methylaminopyrimidin-4-yl)oxyphenyl]urea
@<TRIPOS>ATOM
      1 C1          8.9417    3.3719    8.2172 C.3       1 <0>        -0.1569
      2 C2         10.1498    2.9102    7.3997 C.3       1 <0>         0.0486
      3 N1          9.9972    3.3533    6.0075 N.3       1 <0>        -0.5379
      4 C3         11.2367    3.1387    5.2477 C.3       1 <0>         0.0250
      5 C4         11.0629    3.6845    3.8284 C.3       1 <0>         0.0004
      6 N2          9.9288    3.0094    3.1822 N.4       1 <0>        -0.4202
      7 C5          8.6893    3.2240    3.9420 C.3       1 <0>        -0.0009
      8 C6          8.8631    2.6781    5.3612 C.3       1 <0>         0.0222
      9 C7          9.7762    3.4524    1.7899 C.3       1 <0>         0.0266
     10 C8          8.7879    2.5601    1.0842 C.ar      1 <0>        -0.1272
     11 C9          7.5022    3.0092    0.8434 C.ar      1 <0>        -0.0630
     12 C10         6.5958    2.1959    0.1923 C.ar      1 <0>        -0.0846
     13 C11         6.9731    0.9214   -0.2106 C.ar      1 <0>         0.2154
     14 C12         8.2646    0.4735    0.0326 C.ar      1 <0>        -0.0955
     15 C13         9.1683    1.2940    0.6793 C.ar      1 <0>        -0.1507
     16 C14        10.5702    0.8086    0.9441 C.3       1 <0>         0.5109
     17 F1         10.7250   -0.4786    0.4184 F         1 <0>        -0.1491
     18 F2         11.4860    1.6739    0.3362 F         1 <0>        -0.1584
     19 F3         10.8008    0.7797    2.3237 F         1 <0>        -0.1724
     20 N3          6.0552    0.0926   -0.8655 N.am      1 <0>        -0.6988
     21 C15         4.7513    0.1311   -0.5266 C.2       1 <0>         0.7114
     22 O1          4.3858    0.8194    0.4067 O.2       1 <0>        -0.5584
     23 N4          3.8526   -0.5934   -1.2222 N.am      1 <0>        -0.6858
     24 C16         2.4863   -0.4790   -0.9335 C.ar      1 <0>         0.1577
     25 C17         1.5516   -0.5518   -1.9576 C.ar      1 <0>        -0.1240
     26 C18         0.2052   -0.4394   -1.6724 C.ar      1 <0>        -0.0926
     27 C19        -0.2137   -0.2543   -0.3628 C.ar      1 <0>         0.0883
     28 C20         0.7198   -0.1815    0.6609 C.ar      1 <0>        -0.0957
     29 C21         2.0665   -0.2932    0.3769 C.ar      1 <0>        -0.1046
     30 O2         -1.5393   -0.1385   -0.0833 O.3       1 <0>        -0.2426
     31 C22        -2.3129   -1.2454   -0.1983 C.ar      1 <0>         0.3832
     32 C23        -3.6894   -1.1637   -0.0277 C.ar      1 <0>        -0.3126
     33 C24        -4.4409   -2.3284   -0.1601 C.ar      1 <0>         0.4635
     34 N5         -3.8165   -3.4721   -0.4341 N.ar      1 <0>        -0.5931
     35 C25        -2.5082   -3.5081   -0.5840 C.ar      1 <0>         0.3762
     36 N6         -1.7644   -2.4263   -0.4707 N.ar      1 <0>        -0.6049
     37 N7         -5.8178   -2.2988   -0.0034 N.pl3     1 <0>        -0.7212
     38 C26        -6.4937   -1.0344    0.2979 C.3       1 <0>         0.0887
     39 H1          9.0560    3.0401    9.2597 H         1 <0>         0.0714
     40 H2          8.0243    2.9380    7.7928 H         1 <0>         0.0562
     41 H3          8.8763    4.4695    8.1868 H         1 <0>         0.0696
     42 H4         11.0672    3.3441    7.8241 H         1 <0>         0.0895
     43 H5         10.2153    1.8126    7.4301 H         1 <0>         0.0455
     44 H6         12.0665    3.6630    5.7442 H         1 <0>         0.1253
     45 H7         11.4577    2.0621    5.2031 H         1 <0>         0.0582
     46 H8         10.8699    4.7665    3.8728 H         1 <0>         0.1369
     47 H9         11.9796    3.4990    3.2494 H         1 <0>         0.1329
     48 H10         8.4684    4.3007    3.9867 H         1 <0>         0.1355
     49 H11         7.8594    2.6998    3.4455 H         1 <0>         0.1312
     50 H12         9.0569    1.5962    5.3178 H         1 <0>         0.0572
     51 H13         7.9470    2.8635    5.9412 H         1 <0>         0.1266
     52 H14         9.4106    4.4897    1.7732 H         1 <0>         0.1472
     53 H15        10.7489    3.3982    1.2791 H         1 <0>         0.1420
     54 H16         7.2082    3.9988    1.1607 H         1 <0>         0.1512
     55 H17         5.5933    2.5489    0.0003 H         1 <0>         0.1583
     56 H18         8.5625   -0.5152   -0.2838 H         1 <0>         0.1556
     57 H19         6.3979   -0.5903   -1.6569 H         1 <0>         0.4440
     58 H20         4.1917   -1.2745   -2.0166 H         1 <0>         0.4371
     59 H21         1.8775   -0.6959   -2.9771 H         1 <0>         0.1338
     60 H22        -0.5220   -0.4960   -2.4689 H         1 <0>         0.1313
     61 H23         0.3932   -0.0371    1.6801 H         1 <0>         0.1341
     62 H24         2.7931   -0.2369    1.1740 H         1 <0>         0.1440
     63 H25        -4.1646   -0.2205    0.1982 H         1 <0>         0.1470
     64 H26        -2.0315   -4.4515   -0.8058 H         1 <0>         0.2001
     65 H27        -6.4030   -3.2246   -0.1053 H         1 <0>         0.4380
     66 H28        -7.5762   -1.2091    0.3856 H         1 <0>         0.0868
     67 H29        -6.3028   -0.3146   -0.5117 H         1 <0>         0.0604
     68 H30        -6.1096   -0.6302    1.2461 H         1 <0>         0.0603
     69 H31        10.1379    1.9295    3.1711 H         1 <0>         0.4253
@<TRIPOS>BOND
     1    1    2 1
     2    1   39 1
     3    1   40 1
     4    1   41 1
     5    2    3 1
     6    2   42 1
     7    2   43 1
     8    3    8 1
     9    3    4 1
    10    4    5 1
    11    4   44 1
    12    4   45 1
    13    5    6 1
    14    5   46 1
    15    5   47 1
    16    6    7 1
    17    6    9 1
    18    6   69 1
    19    7    8 1
    20    7   48 1
    21    7   49 1
    22    8   50 1
    23    8   51 1
    24    9   10 1
    25    9   52 1
    26    9   53 1
    27   10   15 ar
    28   10   11 ar
    29   11   12 ar
    30   11   54 1
    31   12   13 ar
    32   12   55 1
    33   13   14 ar
    34   13   20 1
    35   14   15 ar
    36   14   56 1
    37   15   16 1
    38   16   17 1
    39   16   18 1
    40   16   19 1
    41   20   21 am
    42   20   57 1
    43   21   22 2
    44   21   23 am
    45   23   24 1
    46   23   58 1
    47   24   29 ar
    48   24   25 ar
    49   25   26 ar
    50   25   59 1
    51   26   27 ar
    52   26   60 1
    53   27   28 ar
    54   27   30 1
    55   28   29 ar
    56   28   61 1
    57   29   62 1
    58   30   31 1
    59   31   36 ar
    60   31   32 ar
    61   32   33 ar
    62   32   63 1
    63   33   34 ar
    64   33   37 1
    65   34   35 ar
    66   35   36 ar
    67   35   64 1
    68   37   38 1
    69   37   65 1
    70   38   66 1
    71   38   67 1
    72   38   68 1
@<TRIPOS>MOLECULE
ZINC23247639
   68    71     0     0     0
SMALL
USER_CHARGES
1-[4-[(4-ethylpiperazin-1-yl)methyl]-3-(trifluoromethyl)phenyl]-3-[4-(6-methylaminopyrimidin-4-yl)oxyphenyl]urea
@<TRIPOS>ATOM
      1 C1          8.9417    3.3719    8.2172 C.3       1 <0>        -0.1510
      2 C2         10.1498    2.9102    7.3997 C.3       1 <0>         0.0499
      3 N1          9.9972    3.3533    6.0075 N.3       1 <0>        -0.5402
      4 C3         11.2367    3.1387    5.2477 C.3       1 <0>         0.0569
      5 C4         11.0629    3.6845    3.8284 C.3       1 <0>         0.0590
      6 N2          9.9288    3.0094    3.1822 N.3       1 <0>        -0.5268
      7 C5          8.6893    3.2240    3.9420 C.3       1 <0>         0.0561
      8 C6          8.8631    2.6781    5.3612 C.3       1 <0>         0.0550
      9 C7          9.7762    3.4524    1.7899 C.3       1 <0>         0.0729
     10 C8          8.7879    2.5601    1.0842 C.ar      1 <0>        -0.0447
     11 C9          7.5022    3.0092    0.8434 C.ar      1 <0>        -0.0942
     12 C10         6.5958    2.1959    0.1923 C.ar      1 <0>        -0.0884
     13 C11         6.9731    0.9214   -0.2106 C.ar      1 <0>         0.1720
     14 C12         8.2646    0.4735    0.0326 C.ar      1 <0>        -0.1038
     15 C13         9.1683    1.2940    0.6793 C.ar      1 <0>        -0.1404
     16 C14        10.5702    0.8086    0.9441 C.3       1 <0>         0.5095
     17 F1         10.7250   -0.4786    0.4184 F         1 <0>        -0.1841
     18 F2         11.4860    1.6739    0.3362 F         1 <0>        -0.1795
     19 F3         10.8008    0.7797    2.3237 F         1 <0>        -0.1519
     20 N3          6.0552    0.0926   -0.8655 N.am      1 <0>        -0.6948
     21 C15         4.7513    0.1311   -0.5266 C.2       1 <0>         0.7096
     22 O1          4.3858    0.8194    0.4067 O.2       1 <0>        -0.5587
     23 N4          3.8526   -0.5934   -1.2222 N.am      1 <0>        -0.6930
     24 C16         2.4863   -0.4790   -0.9335 C.ar      1 <0>         0.1697
     25 C17         1.5516   -0.5518   -1.9576 C.ar      1 <0>        -0.1297
     26 C18         0.2052   -0.4394   -1.6724 C.ar      1 <0>        -0.0930
     27 C19        -0.2137   -0.2543   -0.3628 C.ar      1 <0>         0.0783
     28 C20         0.7198   -0.1815    0.6609 C.ar      1 <0>        -0.0936
     29 C21         2.0665   -0.2932    0.3769 C.ar      1 <0>        -0.1059
     30 O2         -1.5393   -0.1385   -0.0833 O.3       1 <0>        -0.2412
     31 C22        -2.3129   -1.2454   -0.1983 C.ar      1 <0>         0.3851
     32 C23        -3.6894   -1.1637   -0.0277 C.ar      1 <0>        -0.3141
     33 C24        -4.4409   -2.3284   -0.1601 C.ar      1 <0>         0.4620
     34 N5         -3.8165   -3.4721   -0.4341 N.ar      1 <0>        -0.5954
     35 C25        -2.5082   -3.5081   -0.5840 C.ar      1 <0>         0.3753
     36 N6         -1.7644   -2.4263   -0.4707 N.ar      1 <0>        -0.6017
     37 N7         -5.8178   -2.2988   -0.0034 N.pl3     1 <0>        -0.7231
     38 C26        -6.4937   -1.0344    0.2979 C.3       1 <0>         0.0898
     39 H1          9.0560    3.0401    9.2597 H         1 <0>         0.0595
     40 H2          8.0243    2.9380    7.7928 H         1 <0>         0.0547
     41 H3          8.8763    4.4695    8.1868 H         1 <0>         0.0631
     42 H4         11.0672    3.3441    7.8241 H         1 <0>         0.0746
     43 H5         10.2153    1.8126    7.4301 H         1 <0>         0.0335
     44 H6         12.0665    3.6630    5.7442 H         1 <0>         0.0800
     45 H7         11.4577    2.0621    5.2031 H         1 <0>         0.0441
     46 H8         10.8699    4.7665    3.8728 H         1 <0>         0.0445
     47 H9         11.9796    3.4990    3.2494 H         1 <0>         0.0809
     48 H10         8.4684    4.3007    3.9867 H         1 <0>         0.0435
     49 H11         7.8594    2.6998    3.4455 H         1 <0>         0.0808
     50 H12         9.0569    1.5962    5.3178 H         1 <0>         0.0425
     51 H13         7.9470    2.8635    5.9412 H         1 <0>         0.0819
     52 H14         9.4106    4.4897    1.7732 H         1 <0>         0.0550
     53 H15        10.7489    3.3982    1.2791 H         1 <0>         0.0962
     54 H16         7.2082    3.9988    1.1607 H         1 <0>         0.1355
     55 H17         5.5933    2.5489    0.0003 H         1 <0>         0.1427
     56 H18         8.5625   -0.5152   -0.2838 H         1 <0>         0.1409
     57 H19         6.3979   -0.5903   -1.6569 H         1 <0>         0.4343
     58 H20         4.1917   -1.2745   -2.0166 H         1 <0>         0.4332
     59 H21         1.8775   -0.6959   -2.9771 H         1 <0>         0.1323
     60 H22        -0.5220   -0.4960   -2.4689 H         1 <0>         0.1282
     61 H23         0.3932   -0.0371    1.6801 H         1 <0>         0.1328
     62 H24         2.7931   -0.2369    1.1740 H         1 <0>         0.1466
     63 H25        -4.1646   -0.2205    0.1982 H         1 <0>         0.1463
     64 H26        -2.0315   -4.4515   -0.8058 H         1 <0>         0.1996
     65 H27        -6.4030   -3.2246   -0.1053 H         1 <0>         0.4362
     66 H28        -7.5762   -1.2091    0.3856 H         1 <0>         0.0851
     67 H29        -6.3028   -0.3146   -0.5117 H         1 <0>         0.0598
     68 H30        -6.1096   -0.6302    1.2461 H         1 <0>         0.0599
@<TRIPOS>BOND
     1    1    2 1
     2    1   39 1
     3    1   40 1
     4    1   41 1
     5    2    3 1
     6    2   42 1
     7    2   43 1
     8    3    8 1
     9    3    4 1
    10    4    5 1
    11    4   44 1
    12    4   45 1
    13    5    6 1
    14    5   46 1
    15    5   47 1
    16    6    7 1
    17    6    9 1
    18    7    8 1
    19    7   48 1
    20    7   49 1
    21    8   50 1
    22    8   51 1
    23    9   10 1
    24    9   52 1
    25    9   53 1
    26   10   15 ar
    27   10   11 ar
    28   11   12 ar
    29   11   54 1
    30   12   13 ar
    31   12   55 1
    32   13   14 ar
    33   13   20 1
    34   14   15 ar
    35   14   56 1
    36   15   16 1
    37   16   17 1
    38   16   18 1
    39   16   19 1
    40   20   21 am
    41   20   57 1
    42   21   22 2
    43   21   23 am
    44   23   24 1
    45   23   58 1
    46   24   29 ar
    47   24   25 ar
    48   25   26 ar
    49   25   59 1
    50   26   27 ar
    51   26   60 1
    52   27   28 ar
    53   27   30 1
    54   28   29 ar
    55   28   61 1
    56   29   62 1
    57   30   31 1
    58   31   36 ar
    59   31   32 ar
    60   32   33 ar
    61   32   63 1
    62   33   34 ar
    63   33   37 1
    64   34   35 ar
    65   35   36 ar
    66   35   64 1
    67   37   38 1
    68   37   65 1
    69   38   66 1
    70   38   67 1
    71   38   68 1
@<TRIPOS>MOLECULE
ZINC00602803
   57    59     0     0     0
SMALL
USER_CHARGES

@<TRIPOS>ATOM
      1 C1         -1.3402   -4.8618    1.2145 C.3       1 <0>        -0.1534
      2 C2         -0.8181   -3.6495    0.4408 C.3       1 <0>         0.0511
      3 O1         -0.7742   -2.5142    1.3074 O.3       1 <0>        -0.3148
      4 C3         -0.3304   -1.3470    0.7727 C.ar      1 <0>         0.1525
      5 C4          0.0498   -1.3049   -0.5488 C.ar      1 <0>        -0.1831
      6 C5          0.5092   -0.1023   -1.1071 C.ar      1 <0>         0.1876
      7 C6          0.5748    1.0570   -0.2965 C.ar      1 <0>        -0.1304
      8 C7          0.1883    0.9932    1.0499 C.ar      1 <0>        -0.0592
      9 C8         -0.2650   -0.1967    1.5740 C.ar      1 <0>         0.1185
     10 N1         -0.6575   -0.2608    2.9161 N.am      1 <0>        -0.6449
     11 C9         -0.1566    0.6173    3.8075 C.2       1 <0>         0.5328
     12 O2          0.7152    1.3957    3.4703 O.2       1 <0>        -0.5071
     13 C10        -0.6641    0.6344    5.1877 C.2       1 <0>        -0.1271
     14 C11        -0.1697    1.5011    6.0673 C.2       1 <0>        -0.1492
     15 C12        -0.6897    1.5186    7.4817 C.3       1 <0>         0.0302
     16 C13         1.3312    2.5206    8.3617 C.3       1 <0>        -0.0486
     17 C14        -0.0528    1.1357    9.7861 C.3       1 <0>        -0.0433
     18 C15         1.0386    2.2666   -0.8642 C.ar      1 <0>         0.2844
     19 C16         1.4144    2.2536   -2.2161 C.ar      1 <0>        -0.1029
     20 C17         1.3165    1.0573   -2.9447 C.ar      1 <0>         0.2010
     21 N2          0.8834   -0.0478   -2.3940 N.ar      1 <0>        -0.4743
     22 C18         1.8922    3.4476   -2.8459 C.1       1 <0>         0.2469
     23 N3          2.2712    4.3948   -3.3456 N.1       1 <0>        -0.3851
     24 N4          1.1194    3.4219   -0.1130 N.pl3     1 <0>        -0.6979
     25 C19         2.3677    3.9814    0.1773 C.ar      1 <0>         0.1846
     26 C20         3.4715    3.1592    0.3659 C.ar      1 <0>        -0.1231
     27 C21         4.7048    3.7137    0.6463 C.ar      1 <0>        -0.1069
     28 C22         4.8398    5.0877    0.7520 C.ar      1 <0>         0.0844
     29 C23         3.7394    5.9099    0.5700 C.ar      1 <0>        -0.0407
     30 C24         2.5044    5.3592    0.2831 C.ar      1 <0>        -0.1222
     31 Cl1         3.9119    7.6322    0.7020 Cl        1 <0>        -0.0373
     32 F1          6.0462    5.6274    1.0324 F         1 <0>        -0.1244
     33 H1         -2.3423   -4.6506    1.5877 H         1 <0>         0.0676
     34 H2         -1.3737   -5.7279    0.5535 H         1 <0>         0.0859
     35 H3         -0.6765   -5.0706    2.0536 H         1 <0>         0.0665
     36 H4         -1.4818   -3.4407   -0.3983 H         1 <0>         0.0727
     37 H5          0.1840   -3.8607    0.0676 H         1 <0>         0.0719
     38 H6         -0.0049   -2.1965   -1.1558 H         1 <0>         0.1557
     39 H7          0.2375    1.8756    1.6707 H         1 <0>         0.1646
     40 H8         -1.2900   -0.9373    3.2047 H         1 <0>         0.4221
     41 H9         -1.4381   -0.0567    5.4870 H         1 <0>         0.1454
     42 H10         0.6043    2.1922    5.7680 H         1 <0>         0.1533
     43 H11        -1.1915    2.4672    7.6726 H         1 <0>         0.1468
     44 H12        -1.3959    0.6999    7.6193 H         1 <0>         0.1366
     45 H13         0.7789    3.4221    8.6269 H         1 <0>         0.1257
     46 H14         2.1523    2.3777    9.0642 H         1 <0>         0.1250
     47 H15         1.7302    2.6227    7.3524 H         1 <0>         0.1232
     48 H16        -0.6601    0.2309    9.8124 H         1 <0>         0.1226
     49 H17         0.7976    1.0222   10.4584 H         1 <0>         0.1252
     50 H18        -0.6553    1.9870   10.1029 H         1 <0>         0.1250
     51 H19         1.6056    1.0492   -3.9853 H         1 <0>         0.1765
     52 H20         0.3102    3.8456    0.2136 H         1 <0>         0.4201
     53 H21         3.3660    2.0871    0.2888 H         1 <0>         0.1375
     54 H22         5.5639    3.0747    0.7881 H         1 <0>         0.1500
     55 H23         1.6466    6.0000    0.1416 H         1 <0>         0.1457
     56 N5          0.4465    1.3376    8.4096 N.4       1 <0>        -0.3970
     57 H24         0.9816    0.5092    8.1241 H         1 <0>         0.4334
@<TRIPOS>BOND
     1    1    2 1
     2    1   33 1
     3    1   34 1
     4    1   35 1
     5    2    3 1
     6    2   36 1
     7    2   37 1
     8    3    4 1
     9    4    9 ar
    10    4    5 ar
    11    5    6 ar
    12    5   38 1
    13    6   21 ar
    14    6    7 ar
    15    7    8 ar
    16    7   18 ar
    17    8    9 ar
    18    8   39 1
    19    9   10 1
    20   10   11 am
    21   10   40 1
    22   11   12 2
    23   11   13 1
    24   13   14 2
    25   13   41 1
    26   14   15 1
    27   14   42 1
    28   15   43 1
    29   15   44 1
    30   15   56 1
    31   16   45 1
    32   16   46 1
    33   16   47 1
    34   16   56 1
    35   17   48 1
    36   17   49 1
    37   17   50 1
    38   17   56 1
    39   18   19 ar
    40   18   24 1
    41   19   20 ar
    42   19   22 1
    43   20   21 ar
    44   20   51 1
    45   22   23 3
    46   24   25 1
    47   24   52 1
    48   25   30 ar
    49   25   26 ar
    50   26   27 ar
    51   26   53 1
    52   27   28 ar
    53   27   54 1
    54   28   29 ar
    55   28   32 1
    56   29   30 ar
    57   29   31 1
    58   30   55 1
    59   56   57 1
@<TRIPOS>MOLECULE
ZINC03812168
   64    69     0     0     0
SMALL
USER_CHARGES
dimethylaminomethylBLAHdione
@<TRIPOS>ATOM
      1 C1         -3.6591   -3.4932   -0.5238 C.3       1 <0>        -0.0551
      2 C2         -2.4926   -2.9550   -2.5762 C.3       1 <0>        -0.0445
      3 C3         -2.6578   -1.3072   -0.8098 C.3       1 <0>        -0.0358
      4 C4         -2.4673   -1.1012    0.6860 C.3       1 <0>         0.0654
      5 H1         -3.1645   -1.7751    1.2185 H         1 <0>         0.0947
      6 C5         -2.7230    0.3270    1.1457 C.3       1 <0>        -0.1345
      7 C6         -2.5225    1.3892    0.0793 C.3       1 <0>         0.1021
      8 N1         -1.1339    1.8402    0.0096 N.pl3     1 <0>        -0.4782
      9 C7         -0.0126    1.0747    0.0080 C.2       1 <0>         0.0759
     10 C8          1.1009    1.8532    0.0015 C.2       1 <0>        -0.1124
     11 C9          0.6150    3.2557   -0.0375 C.ar      1 <0>        -0.0829
     12 C10        -0.7846    3.1777   -0.0610 C.ar      1 <0>         0.0902
     13 C11        -1.5354    4.3459   -0.1576 C.ar      1 <0>        -0.1369
     14 C12        -0.9089    5.5725   -0.1941 C.ar      1 <0>        -0.0870
     15 C13         0.4756    5.6497   -0.1263 C.ar      1 <0>        -0.1387
     16 C14         1.2312    4.5008   -0.0317 C.ar      1 <0>        -0.0542
     17 C15         2.5293    1.4989    0.0288 C.2       1 <0>        -0.0575
     18 C16         3.2121    0.4058    0.5546 C.2       1 <0>        -0.0318
     19 C17         2.7061   -0.7744    1.2787 C.2       1 <0>        -0.1258
     20 C18         1.4206   -1.0272    1.6582 C.2       1 <0>         0.1002
     21 N2          1.3169   -2.2819    2.1682 N.pl3     1 <0>        -0.4767
     22 C19         2.5720   -2.8515    2.2654 C.ar      1 <0>         0.0850
     23 C20         3.5031   -1.9214    1.7684 C.ar      1 <0>        -0.0774
     24 C21         4.8560   -2.2219    1.8708 C.ar      1 <0>        -0.0704
     25 C22         5.2705   -3.4529    2.3343 C.ar      1 <0>        -0.1401
     26 C23         4.3436   -4.3996    2.7389 C.ar      1 <0>        -0.0882
     27 C24         3.0009   -4.0952    2.7142 C.ar      1 <0>        -0.1389
     28 C25         0.0751   -2.9597    2.5494 C.3       1 <0>         0.1083
     29 C26        -0.9464   -2.8428    1.4151 C.3       1 <0>         0.0261
     30 O1         -1.1329   -1.4683    1.0718 O.3       1 <0>        -0.3787
     31 C27         4.6407    0.6399    0.2297 C.2       1 <0>         0.5576
     32 O2          5.5801   -0.0982    0.4313 O.2       1 <0>        -0.4501
     33 N3          4.7726    1.8285   -0.3761 N.am      1 <0>        -0.6884
     34 C28         3.5684    2.3701   -0.5773 C.2       1 <0>         0.5496
     35 O3          3.3676    3.4021   -1.1909 O.2       1 <0>        -0.4507
     36 H2         -4.6064   -3.1194   -0.9125 H         1 <0>         0.1320
     37 H3         -3.5558   -4.5494   -0.7723 H         1 <0>         0.1292
     38 H4         -3.6371   -3.3709    0.5591 H         1 <0>         0.1176
     39 H5         -1.6226   -2.4415   -2.9853 H         1 <0>         0.1242
     40 H6         -2.4140   -4.0227   -2.7812 H         1 <0>         0.1266
     41 H7         -3.3976   -2.5618   -3.0392 H         1 <0>         0.1281
     42 H8         -3.6420   -0.9427   -1.1043 H         1 <0>         0.1512
     43 H9         -1.8892   -0.7576   -1.3530 H         1 <0>         0.1401
     44 H10        -3.7581    0.3948    1.5248 H         1 <0>         0.1133
     45 H11        -2.0693    0.5478    1.9998 H         1 <0>         0.1111
     46 H12        -2.8851    1.1097   -0.8943 H         1 <0>         0.0847
     47 H13        -3.1227    2.2722    0.3811 H         1 <0>         0.1001
     48 H14         0.0021   -0.0041    0.0020 H         1 <0>         0.1790
     49 H15        -2.6150    4.2937   -0.2077 H         1 <0>         0.1188
     50 H16        -1.4958    6.4773   -0.2780 H         1 <0>         0.1308
     51 H17         0.9608    6.6157   -0.1385 H         1 <0>         0.1284
     52 H18         2.3072    4.5814    0.0562 H         1 <0>         0.1320
     53 H19         0.6104   -0.3170    1.5917 H         1 <0>         0.1871
     54 H20         5.6126   -1.4944    1.6337 H         1 <0>         0.1514
     55 H21         6.3257   -3.6782    2.3787 H         1 <0>         0.1280
     56 H22         4.6724   -5.3687    3.0799 H         1 <0>         0.1300
     57 H23         2.2783   -4.8297    3.0422 H         1 <0>         0.1175
     58 H24         0.2774   -4.0129    2.7458 H         1 <0>         0.1169
     59 H25        -0.3264   -2.4933    3.4522 H         1 <0>         0.0971
     60 H26        -0.5876   -3.3893    0.5423 H         1 <0>         0.0664
     61 H27        -1.8985   -3.2659    1.7424 H         1 <0>         0.0864
     62 H28         5.6204    2.2247   -0.6318 H         1 <0>         0.4332
     63 N4         -2.5268   -2.7479   -1.1131 N.4       1 <0>        -0.4048
     64 H29        -1.6507   -3.0961   -0.7064 H         1 <0>         0.4232
@<TRIPOS>BOND
     1    1   36 1
     2    1   37 1
     3    1   38 1
     4    1   63 1
     5    2   39 1
     6    2   40 1
     7    2   41 1
     8    2   63 1
     9    3    4 1
    10    3   42 1
    11    3   43 1
    12    3   63 1
    13    4    5 1
    14    4   30 1
    15    4    6 1
    16    6    7 1
    17    6   44 1
    18    6   45 1
    19    7    8 1
    20    7   46 1
    21    7   47 1
    22    8   12 1
    23    8    9 1
    24    9   10 2
    25    9   48 1
    26   10   11 1
    27   10   17 1
    28   11   16 ar
    29   11   12 ar
    30   12   13 ar
    31   13   14 ar
    32   13   49 1
    33   14   15 ar
    34   14   50 1
    35   15   16 ar
    36   15   51 1
    37   16   52 1
    38   17   34 1
    39   17   18 2
    40   18   19 1
    41   18   31 1
    42   19   23 1
    43   19   20 2
    44   20   21 1
    45   20   53 1
    46   21   22 1
    47   21   28 1
    48   22   27 ar
    49   22   23 ar
    50   23   24 ar
    51   24   25 ar
    52   24   54 1
    53   25   26 ar
    54   25   55 1
    55   26   27 ar
    56   26   56 1
    57   27   57 1
    58   28   29 1
    59   28   58 1
    60   28   59 1
    61   29   30 1
    62   29   60 1
    63   29   61 1
    64   31   32 2
    65   31   33 am
    66   33   34 am
    67   33   62 1
    68   34   35 2
    69   63   64 1
@<TRIPOS>MOLECULE
ZINC19632614
   55    58     0     0     0
SMALL
USER_CHARGES

@<TRIPOS>ATOM
      1 C1         -0.7374    1.4118    0.5253 C.3       1 <0>         0.0199
      2 O1         -0.7263   -0.0171    0.5247 O.3       1 <0>        -0.2961
      3 C2          0.0734   -0.6280    1.4373 C.ar      1 <0>         0.1647
      4 C3          0.8188    0.1348    2.3090 C.ar      1 <0>        -0.1833
      5 C4          1.6420   -0.4976    3.2485 C.ar      1 <0>         0.2017
      6 C5          1.6952   -1.9130    3.2874 C.ar      1 <0>        -0.1805
      7 C6          0.9277   -2.6653    2.3903 C.ar      1 <0>        -0.1504
      8 C7          0.1268   -2.0280    1.4855 C.ar      1 <0>         0.1167
      9 O2         -0.6229   -2.7597    0.6185 O.3       1 <0>        -0.2957
     10 C8         -0.5255   -4.1819    0.7171 C.3       1 <0>         0.0569
     11 C9         -1.4334   -4.8292   -0.3307 C.3       1 <0>        -0.1162
     12 C10        -1.3291   -6.3519   -0.2252 C.3       1 <0>         0.0590
     13 N1         -2.2008   -6.9733   -1.2311 N.3       1 <0>        -0.5361
     14 C11        -3.6165   -6.7053   -0.9393 C.3       1 <0>         0.0126
     15 C12        -4.4841   -7.3184   -2.0416 C.3       1 <0>         0.0623
     16 O3         -4.2065   -8.7181   -2.1368 O.3       1 <0>        -0.3850
     17 C13        -2.8368   -9.0154   -2.4209 C.3       1 <0>         0.0626
     18 C14        -1.9524   -8.4195   -1.3224 C.3       1 <0>         0.0175
     19 C15         2.5361   -2.5234    4.2482 C.ar      1 <0>         0.4639
     20 N2          3.2308   -1.7396    5.0625 N.ar      1 <0>        -0.5813
     21 C16         3.1493   -0.4206    4.9892 C.ar      1 <0>         0.3427
     22 N3          2.3876    0.1999    4.1200 N.ar      1 <0>        -0.5394
     23 N4          2.6306   -3.8977    4.3362 N.pl3     1 <0>        -0.6396
     24 C17         3.3713   -4.4833    5.3684 C.ar      1 <0>         0.1586
     25 C18         3.4039   -3.8902    6.6240 C.ar      1 <0>        -0.0764
     26 C19         4.1353   -4.4698    7.6421 C.ar      1 <0>        -0.1191
     27 C20         4.8362   -5.6416    7.4124 C.ar      1 <0>         0.0961
     28 C21         4.8054   -6.2354    6.1608 C.ar      1 <0>        -0.0542
     29 C22         4.0703   -5.6613    5.1406 C.ar      1 <0>        -0.1133
     30 Cl1         5.6852   -7.7046    5.8756 Cl        1 <0>        -0.0422
     31 F1          5.5513   -6.2065    8.4097 F         1 <0>        -0.1250
     32 H1          0.2683    1.7831    0.3285 H         1 <0>         0.0625
     33 H2         -1.4151    1.7702   -0.2495 H         1 <0>         0.1078
     34 H3         -1.0740    1.7722    1.4974 H         1 <0>         0.0624
     35 H4          0.7687    1.2128    2.2678 H         1 <0>         0.1567
     36 H5          0.9651   -3.7443    2.4164 H         1 <0>         0.1382
     37 H6          0.5060   -4.4884    0.5431 H         1 <0>         0.0655
     38 H7         -0.8359   -4.4993    1.7126 H         1 <0>         0.0633
     39 H8         -2.4649   -4.5227   -0.1568 H         1 <0>         0.0772
     40 H9         -1.1230   -4.5118   -1.3262 H         1 <0>         0.0870
     41 H10        -0.2976   -6.6584   -0.3991 H         1 <0>         0.0806
     42 H11        -1.6394   -6.6693    0.7704 H         1 <0>         0.0394
     43 H12        -3.8805   -7.1489    0.0207 H         1 <0>         0.0445
     44 H13        -3.7829   -5.6288   -0.9016 H         1 <0>         0.0906
     45 H14        -5.5369   -7.1717   -1.8001 H         1 <0>         0.0996
     46 H15        -4.2579   -6.8370   -2.9930 H         1 <0>         0.0614
     47 H16        -2.6980  -10.0960   -2.4536 H         1 <0>         0.0999
     48 H17        -2.5626   -8.5833   -3.3833 H         1 <0>         0.0613
     49 H18        -0.9041   -8.5942   -1.5643 H         1 <0>         0.0880
     50 H19        -2.1898   -8.8905   -0.3685 H         1 <0>         0.0446
     51 H20         3.7361    0.1714    5.6759 H         1 <0>         0.1991
     52 H21         2.1833   -4.4574    3.6823 H         1 <0>         0.4215
     53 H22         2.8578   -2.9760    6.8040 H         1 <0>         0.1516
     54 H23         4.1608   -4.0084    8.6183 H         1 <0>         0.1509
     55 H24         4.0430   -6.1262    4.1662 H         1 <0>         0.1452
@<TRIPOS>BOND
     1    1    2 1
     2    1   32 1
     3    1   33 1
     4    1   34 1
     5    2    3 1
     6    3    8 ar
     7    3    4 ar
     8    4    5 ar
     9    4   35 1
    10    5   22 ar
    11    5    6 ar
    12    6    7 ar
    13    6   19 ar
    14    7    8 ar
    15    7   36 1
    16    8    9 1
    17    9   10 1
    18   10   11 1
    19   10   37 1
    20   10   38 1
    21   11   12 1
    22   11   39 1
    23   11   40 1
    24   12   13 1
    25   12   41 1
    26   12   42 1
    27   13   18 1
    28   13   14 1
    29   14   15 1
    30   14   43 1
    31   14   44 1
    32   15   16 1
    33   15   45 1
    34   15   46 1
    35   16   17 1
    36   17   18 1
    37   17   47 1
    38   17   48 1
    39   18   49 1
    40   18   50 1
    41   19   20 ar
    42   19   23 1
    43   20   21 ar
    44   21   22 ar
    45   21   51 1
    46   23   24 1
    47   23   52 1
    48   24   29 ar
    49   24   25 ar
    50   25   26 ar
    51   25   53 1
    52   26   27 ar
    53   26   54 1
    54   27   28 ar
    55   27   31 1
    56   28   29 ar
    57   28   30 1
    58   29   55 1
@<TRIPOS>MOLECULE
ZINC19632614
   57    60     0     0     0
SMALL
USER_CHARGES

@<TRIPOS>ATOM
      1 C1          0.4957    0.6763   -1.2292 C.3       1 <0>         0.0097
      2 O1          0.3708   -0.6717   -0.7717 O.3       1 <0>        -0.2780
      3 C2         -0.8861   -1.1806   -0.6878 C.ar      1 <0>         0.2175
      4 C3         -1.9704   -0.3964   -1.0449 C.ar      1 <0>        -0.2163
      5 C4         -3.2517   -0.9159   -0.9595 C.ar      1 <0>         0.2109
      6 C5         -3.4429   -2.2355   -0.5110 C.ar      1 <0>        -0.1696
      7 C6         -2.3484   -3.0191   -0.1533 C.ar      1 <0>        -0.1343
      8 C7         -1.0748   -2.4922   -0.2475 C.ar      1 <0>         0.1172
      9 O2         -0.0002   -3.2528    0.0951 O.3       1 <0>        -0.2792
     10 C8         -0.2516   -4.6209    0.4223 C.3       1 <0>         0.0522
     11 C9          1.0783   -5.3474    0.6333 C.3       1 <0>        -0.1519
     12 C10         0.8148   -6.8369    0.8638 C.3       1 <0>        -0.0151
     13 N1          2.0946   -7.5463    0.9928 N.4       1 <0>        -0.3820
     14 C11         2.8253   -7.4743   -0.2800 C.3       1 <0>        -0.0514
     15 C12         4.1584   -8.2140   -0.1429 C.3       1 <0>         0.0361
     16 O3          3.9086   -9.5683    0.2435 O.3       1 <0>        -0.3530
     17 C13         3.1775   -9.6905    1.4668 C.3       1 <0>         0.0362
     18 C14         1.8426   -8.9535    1.3327 C.3       1 <0>        -0.0460
     19 C15        -4.8247   -2.7457   -0.4360 C.cat     1 <0>         0.5319
     20 N2         -5.0725   -3.9771   -0.0222 N.pl3     1 <0>        -0.5604
     21 C16        -4.2014   -4.6012    0.8249 C.ar      1 <0>         0.0974
     22 C17        -3.7272   -3.9360    1.9592 C.ar      1 <0>        -0.0816
     23 C18        -2.8483   -4.5713    2.8111 C.ar      1 <0>        -0.1175
     24 C19        -2.4343   -5.8665    2.5448 C.ar      1 <0>         0.1198
     25 C20        -2.9002   -6.5323    1.4212 C.ar      1 <0>        -0.0716
     26 C21        -3.7851   -5.9094    0.5642 C.ar      1 <0>        -0.0825
     27 Cl1        -2.3754   -8.1547    1.0956 Cl        1 <0>        -0.0183
     28 F1         -1.5728   -6.4831    3.3830 F         1 <0>        -0.1112
     29 N3         -5.8317   -1.9199   -0.8014 N.2       1 <0>        -0.5495
     30 C22        -5.6076   -0.7054   -1.2106 C.2       1 <0>         0.4712
     31 N4         -4.3672   -0.1695   -1.3053 N.pl3     1 <0>        -0.5812
     32 H1         -4.2589    0.7427   -1.6168 H         1 <0>         0.4503
     33 H2          1.5487    0.9571   -1.2491 H         1 <0>         0.1245
     34 H3          0.0784    0.7596   -2.2327 H         1 <0>         0.0727
     35 H4         -0.0447    1.3405   -0.5547 H         1 <0>         0.0731
     36 H5         -1.8176    0.6161   -1.3882 H         1 <0>         0.1754
     37 H6         -2.4939   -4.0322    0.1915 H         1 <0>         0.1665
     38 H7         -0.8431   -4.6731    1.3364 H         1 <0>         0.0710
     39 H8         -0.7992   -5.0947   -0.3924 H         1 <0>         0.0775
     40 H9          1.7051   -5.2217   -0.2495 H         1 <0>         0.1094
     41 H10         1.5867   -4.9297    1.5023 H         1 <0>         0.1099
     42 H11         0.2340   -6.9660    1.7771 H         1 <0>         0.1336
     43 H12         0.2581   -7.2423    0.0189 H         1 <0>         0.1350
     44 H13         2.2311   -7.9385   -1.0671 H         1 <0>         0.1411
     45 H14         3.0128   -6.4308   -0.5330 H         1 <0>         0.1444
     46 H15         4.6829   -8.1989   -1.0982 H         1 <0>         0.1447
     47 H16         4.7692   -7.7256    0.6163 H         1 <0>         0.0840
     48 H17         2.9923  -10.7439    1.6765 H         1 <0>         0.1456
     49 H18         3.7548   -9.2526    2.2811 H         1 <0>         0.0847
     50 H19         1.3007   -9.0081    2.2769 H         1 <0>         0.1448
     51 H20         1.2488   -9.4172    0.5450 H         1 <0>         0.1398
     52 H21        -4.0484   -2.9261    2.1679 H         1 <0>         0.1559
     53 H22        -2.4815   -4.0580    3.6876 H         1 <0>         0.1719
     54 H23        -4.1514   -6.4303   -0.3081 H         1 <0>         0.1696
     55 H24        -6.4530   -0.0939   -1.4891 H         1 <0>         0.2492
     56 H25        -5.8728   -4.4370   -0.3202 H         1 <0>         0.4487
     57 H26         2.6450   -7.1175    1.7216 H         1 <0>         0.4269
@<TRIPOS>BOND
     1    1    2 1
     2    1   33 1
     3    1   34 1
     4    1   35 1
     5    2    3 1
     6    3    8 ar
     7    3    4 ar
     8    4    5 ar
     9    4   36 1
    10    5   31 1
    11    5    6 ar
    12    6    7 ar
    13    6   19 1
    14    7    8 ar
    15    7   37 1
    16    8    9 1
    17    9   10 1
    18   10   11 1
    19   10   38 1
    20   10   39 1
    21   11   12 1
    22   11   40 1
    23   11   41 1
    24   12   13 1
    25   12   42 1
    26   12   43 1
    27   13   18 1
    28   13   14 1
    29   13   57 1
    30   14   15 1
    31   14   44 1
    32   14   45 1
    33   15   16 1
    34   15   46 1
    35   15   47 1
    36   16   17 1
    37   17   18 1
    38   17   48 1
    39   17   49 1
    40   18   50 1
    41   18   51 1
    42   19   20 2
    43   19   29 1
    44   20   21 1
    45   20   56 1
    46   21   26 ar
    47   21   22 ar
    48   22   23 ar
    49   22   52 1
    50   23   24 ar
    51   23   53 1
    52   24   25 ar
    53   24   28 1
    54   25   26 ar
    55   25   27 1
    56   26   54 1
    57   29   30 2
    58   30   31 1
    59   30   55 1
    60   31   32 1
