@<TRIPOS>MOLECULE
ZINC13613346
   70    73     0     0     0
SMALL
USER_CHARGES
1-(5-acetyl-4-methyl-thiazol-2-yl)-3-[(1R,2S)-2-[[(3S)-3-[(4-fluorophenyl)methyl]-1-piperidyl]methyl]cyclohexyl]urea
@<TRIPOS>ATOM
      1 C1         -5.6728    3.5355   10.4423 C.3       1 <0>        -0.0985
      2 C2         -4.6582    2.4944   10.0451 C.2       1 <0>         0.1933
      3 C3         -3.7716    1.9589   10.9773 C.2       1 <0>        -0.3113
      4 S1         -2.8609    0.8186    9.9455 S.3       1 <0>         0.1442
      5 C4         -3.6901    1.1481    8.4559 C.2       1 <0>         0.3169
      6 N1         -4.5788    2.0630    8.8160 N.2       1 <0>        -0.5137
      7 N2         -3.4800    0.5913    7.2086 N.am      1 <0>        -0.6248
      8 C5         -4.2380    0.9759    6.1626 C.2       1 <0>         0.6890
      9 O1         -5.1064    1.8126    6.3164 O.2       1 <0>        -0.4745
     10 N3         -4.0331    0.4330    4.9462 N.am      1 <0>        -0.7457
     11 C6         -4.8570    0.8510    3.8092 C.3       1 <0>         0.1464
     12 H1         -5.0943    1.9108    3.9027 H         1 <0>         0.1167
     13 C7         -6.1528    0.0378    3.7921 C.3       1 <0>        -0.1315
     14 C8         -7.0133    0.4744    2.6047 C.3       1 <0>        -0.1229
     15 C9         -6.2447    0.2367    1.3032 C.3       1 <0>        -0.1247
     16 C10        -4.9489    1.0500    1.3204 C.3       1 <0>        -0.1077
     17 C11        -4.0884    0.6134    2.5078 C.3       1 <0>        -0.1184
     18 H2         -3.8511   -0.4464    2.4143 H         1 <0>         0.1014
     19 C12        -2.7926    1.4266    2.5249 C.3       1 <0>        -0.0042
     20 C13        -1.3448   -0.3944    3.1945 C.3       1 <0>        -0.0167
     21 C14        -0.5437   -0.9679    4.3656 C.3       1 <0>        -0.1472
     22 C15         0.5823    0.0038    4.7329 C.3       1 <0>        -0.1376
     23 C16        -0.0241    1.3672    5.0765 C.3       1 <0>        -0.1063
     24 H3         -0.6734    1.2679    5.9463 H         1 <0>         0.0863
     25 C17        -0.8401    1.8730    3.8848 C.3       1 <0>        -0.0032
     26 C18         1.0969    2.3613    5.3868 C.3       1 <0>        -0.0692
     27 C19         1.8243    1.9254    6.6325 C.ar      1 <0>        -0.1091
     28 C20         1.4045    2.3751    7.8705 C.ar      1 <0>        -0.0849
     29 C21         2.0679    1.9722    9.0140 C.ar      1 <0>        -0.1488
     30 C22         3.1598    1.1261    8.9185 C.ar      1 <0>         0.1092
     31 C23         3.5825    0.6806    7.6776 C.ar      1 <0>        -0.1504
     32 C24         2.9144    1.0806    6.5359 C.ar      1 <0>        -0.0842
     33 F1          3.8119    0.7354   10.0353 F         1 <0>        -0.1325
     34 C25        -3.6351    2.2352   12.3519 C.2       1 <0>         0.4350
     35 O2         -4.3618    3.0514   12.8826 O.2       1 <0>        -0.4405
     36 C26        -2.5875    1.5183   13.1641 C.3       1 <0>        -0.1890
     37 H4         -6.5941    3.0442   10.7553 H         1 <0>         0.0902
     38 H5         -5.2797    4.1299   11.2671 H         1 <0>         0.1003
     39 H6         -5.8785    4.1855    9.5918 H         1 <0>         0.0817
     40 H7         -2.7871   -0.0763    7.0859 H         1 <0>         0.4219
     41 H8         -3.3401   -0.2346    4.8235 H         1 <0>         0.3858
     42 H9         -6.7004    0.2071    4.7192 H         1 <0>         0.0818
     43 H10        -5.9155   -1.0220    3.6986 H         1 <0>         0.0717
     44 H11        -7.2506    1.5341    2.6981 H         1 <0>         0.0725
     45 H12        -7.9365   -0.1050    2.5924 H         1 <0>         0.0786
     46 H13        -6.8577    0.5478    0.4573 H         1 <0>         0.0807
     47 H14        -6.0074   -0.8230    1.2097 H         1 <0>         0.0694
     48 H15        -5.1862    2.1097    1.4138 H         1 <0>         0.0813
     49 H16        -4.4013    0.8806    0.3932 H         1 <0>         0.0849
     50 H17        -3.0228    2.4727    2.7269 H         1 <0>         0.1320
     51 H18        -2.2987    1.3436    1.5568 H         1 <0>         0.1388
     52 H19        -2.1556   -1.0770    2.9402 H         1 <0>         0.1264
     53 H20        -0.6897   -0.2715    2.3320 H         1 <0>         0.1378
     54 H21        -1.2013   -1.1039    5.2242 H         1 <0>         0.0746
     55 H22        -0.1160   -1.9284    4.0782 H         1 <0>         0.1198
     56 H23         1.2618    0.1101    3.8873 H         1 <0>         0.0892
     57 H24         1.1288   -0.3794    5.5946 H         1 <0>         0.1011
     58 H25        -1.2845    2.8372    4.1319 H         1 <0>         0.1269
     59 H26        -0.1875    1.9851    3.0190 H         1 <0>         0.1349
     60 H27         1.7955    2.3937    4.5507 H         1 <0>         0.0889
     61 H28         0.6708    3.3523    5.5428 H         1 <0>         0.0863
     62 H29         0.5554    3.0383    7.9444 H         1 <0>         0.1302
     63 H30         1.7372    2.3204    9.9814 H         1 <0>         0.1395
     64 H31         4.4339    0.0203    7.6019 H         1 <0>         0.1399
     65 H32         3.2442    0.7335    5.5679 H         1 <0>         0.1333
     66 H33        -1.7354    2.0413   13.1451 H         1 <0>         0.0904
     67 H34        -2.9307    1.4200   14.1940 H         1 <0>         0.0983
     68 H35        -2.4155    0.5280   12.7424 H         1 <0>         0.0792
     69 N4         -1.9210    0.9057    3.5983 N.4       1 <0>        -0.4126
     70 H36        -2.4820    0.7719    4.4478 H         1 <0>         0.4031
@<TRIPOS>BOND
     1    1    2 1
     2    1   37 1
     3    1   38 1
     4    1   39 1
     5    2    6 1
     6    2    3 2
     7    3    4 1
     8    3   34 1
     9    4    5 1
    10    5    6 2
    11    5    7 1
    12    7    8 am
    13    7   40 1
    14    8    9 2
    15    8   10 am
    16   10   11 1
    17   10   41 1
    18   11   12 1
    19   11   17 1
    20   11   13 1
    21   13   14 1
    22   13   42 1
    23   13   43 1
    24   14   15 1
    25   14   44 1
    26   14   45 1
    27   15   16 1
    28   15   46 1
    29   15   47 1
    30   16   17 1
    31   16   48 1
    32   16   49 1
    33   17   18 1
    34   17   19 1
    35   19   50 1
    36   19   51 1
    37   19   69 1
    38   20   21 1
    39   20   52 1
    40   20   53 1
    41   20   69 1
    42   21   22 1
    43   21   54 1
    44   21   55 1
    45   22   23 1
    46   22   56 1
    47   22   57 1
    48   23   24 1
    49   23   25 1
    50   23   26 1
    51   25   58 1
    52   25   59 1
    53   25   69 1
    54   26   27 1
    55   26   60 1
    56   26   61 1
    57   27   32 ar
    58   27   28 ar
    59   28   29 ar
    60   28   62 1
    61   29   30 ar
    62   29   63 1
    63   30   31 ar
    64   30   33 1
    65   31   32 ar
    66   31   64 1
    67   32   65 1
    68   34   35 2
    69   34   36 1
    70   36   66 1
    71   36   67 1
    72   36   68 1
    73   69   70 1
@<TRIPOS>MOLECULE
ZINC49792299
   52    54     0     0     0
SMALL
NO_CHARGES

@<TRIPOS>ATOM
      1 C1          0.0194    3.9934   -0.9948 C.3       1 <0>        -0.1608
      2 C2          0.3607    2.5334   -0.6900 C.3       1 <0>        -0.1122
      3 C3          1.0850    1.9179   -1.8889 C.3       1 <0>         0.1371
      4 H1          1.9554    2.5248   -2.1383 H         1 <0>         0.0953
      5 C4          1.5295    0.5200   -1.5437 C.2       1 <0>        -0.0179
      6 C5          2.7691    0.1594   -1.1660 C.2       1 <0>        -0.1849
      7 C6          2.7396   -1.2364   -0.9428 C.2       1 <0>        -0.2134
      8 C7          1.4837   -1.6453   -1.1976 C.2       1 <0>        -0.0029
      9 O1          0.7538   -0.5763   -1.5556 O.3       1 <0>        -0.1582
     10 C8          0.9799   -3.0618   -1.0936 C.3       1 <0>        -0.0762
     11 N1          0.1766    1.8719   -3.0373 N.2       1 <0>        -0.3588
     12 C9          0.4781    2.4994   -4.1242 C.2       1 <0>         0.0757
     13 C10        -0.1601    2.7048   -5.4810 C.3       1 <0>         0.1518
     14 C11         0.6400    3.9880   -5.5404 C.2       1 <0>         0.3176
     15 O2          0.5418    5.0554   -6.0973 O.2       1 <0>        -0.3384
     16 C12         1.6035    3.3471   -4.5979 C.2       1 <0>         0.3006
     17 O3          2.7813    3.4671   -4.3351 O.2       1 <0>        -0.3504
     18 N2          0.2409    1.7109   -6.4799 N.pl3     1 <0>        -0.7062
     19 C13        -0.5990    1.4296   -7.5638 C.ar      1 <0>         0.1847
     20 C14        -1.8078    2.0954   -7.6956 C.ar      1 <0>        -0.1578
     21 C15        -2.6432    1.8223   -8.7656 C.ar      1 <0>        -0.0796
     22 C16        -2.2818    0.8863   -9.7102 C.ar      1 <0>        -0.1233
     23 C17        -1.0664    0.2058   -9.5916 C.ar      1 <0>        -0.1082
     24 C18        -0.2181    0.4847   -8.5139 C.ar      1 <0>         0.0918
     25 O4          0.9670   -0.1662   -8.3920 O.3       1 <0>        -0.4781
     26 C19        -0.6770   -0.7972  -10.6012 C.2       1 <0>         0.5597
     27 O5          0.3868   -0.6949  -11.1811 O.2       1 <0>        -0.5144
     28 N3         -1.5004   -1.8270  -10.8806 N.am      1 <0>        -0.6176
     29 C20        -1.0769   -2.8699  -11.8182 C.3       1 <0>         0.0839
     30 C21        -2.8190   -1.9033  -10.2468 C.3       1 <0>         0.0644
     31 H2          0.9374    4.5482   -1.1887 H         1 <0>         0.0566
     32 H3         -0.6257    4.0402   -1.8722 H         1 <0>         0.0562
     33 H4         -0.4966    4.4319   -0.1407 H         1 <0>         0.0714
     34 H5          1.0057    2.4866    0.1874 H         1 <0>         0.0872
     35 H6         -0.5573    1.9786   -0.4961 H         1 <0>         0.0849
     36 H7          3.6232    0.8110   -1.0550 H         1 <0>         0.1507
     37 H8          3.5668   -1.8556   -0.6285 H         1 <0>         0.1518
     38 H9          0.6063   -3.2414   -0.0855 H         1 <0>         0.0840
     39 H10         0.1746   -3.2147   -1.8122 H         1 <0>         0.0776
     40 H11         1.7943   -3.7538   -1.3079 H         1 <0>         0.0906
     41 H12        -1.2383    2.8597   -5.4414 H         1 <0>         0.1562
     42 H13         1.0885    1.2478   -6.3902 H         1 <0>         0.4141
     43 H14        -2.0995    2.8303   -6.9599 H         1 <0>         0.1348
     44 H15        -3.5833    2.3454   -8.8602 H         1 <0>         0.1374
     45 H16        -2.9380    0.6781  -10.5423 H         1 <0>         0.1333
     46 H17         0.9140   -0.9882   -7.8855 H         1 <0>         0.3846
     47 H18        -0.5668   -3.6637  -11.2725 H         1 <0>         0.0566
     48 H19        -1.9509   -3.2804  -12.3241 H         1 <0>         0.0723
     49 H20        -0.3980   -2.4417  -12.5557 H         1 <0>         0.0791
     50 H21        -2.9160   -1.1035   -9.5126 H         1 <0>         0.0892
     51 H22        -3.5938   -1.7956  -11.0059 H         1 <0>         0.0640
     52 H23        -2.9282   -2.8675   -9.7503 H         1 <0>         0.0643
@<TRIPOS>BOND
     1    1    2 1
     2    1   31 1
     3    1   32 1
     4    1   33 1
     5    2    3 1
     6    2   34 1
     7    2   35 1
     8    3    4 1
     9    3    5 1
    10    3   11 1
    11    5    9 1
    12    5    6 2
    13    6    7 1
    14    6   36 1
    15    7    8 2
    16    7   37 1
    17    8    9 1
    18    8   10 1
    19   10   38 1
    20   10   39 1
    21   10   40 1
    22   11   12 2
    23   12   16 1
    24   12   13 1
    25   13   14 1
    26   13   18 1
    27   13   41 1
    28   14   15 2
    29   14   16 1
    30   16   17 2
    31   18   19 1
    32   18   42 1
    33   19   24 ar
    34   19   20 ar
    35   20   21 ar
    36   20   43 1
    37   21   22 ar
    38   21   44 1
    39   22   23 ar
    40   22   45 1
    41   23   24 ar
    42   23   26 1
    43   24   25 1
    44   25   46 1
    45   26   27 2
    46   26   28 am
    47   28   29 1
    48   28   30 1
    49   29   47 1
    50   29   48 1
    51   29   49 1
    52   30   50 1
    53   30   51 1
    54   30   52 1
@<TRIPOS>MOLECULE
ZINC49792299
   52    54     0     0     0
SMALL
NO_CHARGES

@<TRIPOS>ATOM
      1 C1          0.3156    1.3300   -1.7355 C.3       1 <0>        -0.1569
      2 C2          0.4263   -0.1931   -1.8308 C.3       1 <0>        -0.1111
      3 C3          1.5068   -0.5632   -2.8488 C.3       1 <0>         0.1420
      4 H1          2.4433   -0.0755   -2.5783 H         1 <0>         0.0949
      5 C4          1.7017   -2.0576   -2.8535 C.2       1 <0>        -0.0209
      6 C5          2.6848   -2.7246   -2.2226 C.2       1 <0>        -0.1874
      7 C6          2.4870   -4.0981   -2.4932 C.2       1 <0>        -0.2148
      8 C7          1.3948   -4.1883   -3.2733 C.2       1 <0>        -0.0010
      9 O1          0.9200   -2.9497   -3.4835 O.3       1 <0>        -0.1577
     10 C8          0.8014   -5.4633   -3.8149 C.3       1 <0>        -0.0779
     11 N1          1.0932   -0.1206   -4.1827 N.2       1 <0>        -0.3626
     12 C9          1.8180    0.7244   -4.8358 C.2       1 <0>         0.0762
     13 C10         3.1159    1.4654   -4.5974 C.3       1 <0>         0.0916
     14 C11         3.2402    1.5081   -6.1051 C.2       1 <0>         0.3258
     15 O2          4.1398    1.5905   -6.9069 O.2       1 <0>        -0.3378
     16 C12         1.7528    1.3976   -6.1595 C.2       1 <0>         0.3556
     17 O3          0.8799    1.7150   -6.9393 O.2       1 <0>        -0.3393
     18 N2          2.9403    2.7827   -3.9808 N.pl3     1 <0>        -0.7055
     19 C13         3.9806    3.3513   -3.2365 C.ar      1 <0>         0.1835
     20 C14         5.1791    2.6709   -3.0874 C.ar      1 <0>        -0.1602
     21 C15         6.2124    3.2279   -2.3528 C.ar      1 <0>        -0.0793
     22 C16         6.0600    4.4637   -1.7626 C.ar      1 <0>        -0.1231
     23 C17         4.8575    5.1627   -1.9030 C.ar      1 <0>        -0.1072
     24 C18         3.8141    4.6039   -2.6499 C.ar      1 <0>         0.0923
     25 O4          2.6441    5.2764   -2.7974 O.3       1 <0>        -0.4767
     26 C19         4.6913    6.4860   -1.2718 C.2       1 <0>         0.5591
     27 O5          4.3672    7.4446   -1.9459 O.2       1 <0>        -0.5133
     28 N3          4.8988    6.6321    0.0518 N.am      1 <0>        -0.6174
     29 C20         4.6496    7.9250    0.6940 C.3       1 <0>         0.0837
     30 C21         5.3737    5.4980    0.8484 C.3       1 <0>         0.0646
     31 H2          1.2721    1.7445   -1.4172 H         1 <0>         0.0573
     32 H3          0.0501    1.7367   -2.7113 H         1 <0>         0.0557
     33 H4         -0.4542    1.5937   -1.0103 H         1 <0>         0.0681
     34 H5          0.6918   -0.5998   -0.8550 H         1 <0>         0.0867
     35 H6         -0.5302   -0.6076   -2.1491 H         1 <0>         0.0830
     36 H7          3.4741   -2.2936   -1.6246 H         1 <0>         0.1508
     37 H8          3.0961   -4.9177   -2.1414 H         1 <0>         0.1516
     38 H9          0.0673   -5.8510   -3.1086 H         1 <0>         0.0841
     39 H10         0.3158   -5.2612   -4.7695 H         1 <0>         0.0783
     40 H11         1.5921   -6.1998   -3.9582 H         1 <0>         0.0910
     41 H12         3.8829    0.8640   -4.1095 H         1 <0>         0.1472
     42 H13         2.1032    3.2608   -4.0883 H         1 <0>         0.4152
     43 H14         5.3075    1.7016   -3.5460 H         1 <0>         0.1324
     44 H15         7.1426    2.6906   -2.2415 H         1 <0>         0.1367
     45 H16         6.8699    4.8924   -1.1911 H         1 <0>         0.1333
     46 H17         1.9921    5.0872   -2.1087 H         1 <0>         0.3840
     47 H18         3.6156    7.9673    1.0364 H         1 <0>         0.0569
     48 H19         5.3195    8.0428    1.5457 H         1 <0>         0.0724
     49 H20         4.8282    8.7269   -0.0223 H         1 <0>         0.0793
     50 H21         5.4051    4.6042    0.2253 H         1 <0>         0.0886
     51 H22         6.3732    5.7127    1.2265 H         1 <0>         0.0640
     52 H23         4.6960    5.3333    1.6861 H         1 <0>         0.0643
@<TRIPOS>BOND
     1    1    2 1
     2    1   31 1
     3    1   32 1
     4    1   33 1
     5    2    3 1
     6    2   34 1
     7    2   35 1
     8    3    4 1
     9    3    5 1
    10    3   11 1
    11    5    9 1
    12    5    6 2
    13    6    7 1
    14    6   36 1
    15    7    8 2
    16    7   37 1
    17    8    9 1
    18    8   10 1
    19   10   38 1
    20   10   39 1
    21   10   40 1
    22   11   12 2
    23   12   16 1
    24   12   13 1
    25   13   14 1
    26   13   18 1
    27   13   41 1
    28   14   15 2
    29   14   16 1
    30   16   17 2
    31   18   19 1
    32   18   42 1
    33   19   24 ar
    34   19   20 ar
    35   20   21 ar
    36   20   43 1
    37   21   22 ar
    38   21   44 1
    39   22   23 ar
    40   22   45 1
    41   23   24 ar
    42   23   26 1
    43   24   25 1
    44   25   46 1
    45   26   27 2
    46   26   28 am
    47   28   29 1
    48   28   30 1
    49   29   47 1
    50   29   48 1
    51   29   49 1
    52   30   50 1
    53   30   51 1
    54   30   52 1
@<TRIPOS>MOLECULE
ZINC03936850
   31    32     0     0     0
SMALL
USER_CHARGES

@<TRIPOS>ATOM
      1 C1          0.1626    1.3725    0.6234 C.ar      1 <0>        -0.0792
      2 C2          1.1773    2.0847    0.0104 C.ar      1 <0>        -0.1291
      3 C3          2.2116    1.4175   -0.6192 C.ar      1 <0>        -0.0674
      4 C4          2.2346    0.0357   -0.6374 C.ar      1 <0>        -0.1258
      5 C5          1.2168   -0.6823   -0.0220 C.ar      1 <0>         0.1890
      6 C6          0.1795   -0.0085    0.6090 C.ar      1 <0>        -0.1251
      7 N1          1.2365   -2.0818   -0.0387 N.am      1 <0>        -0.6717
      8 C7          0.0862   -2.7734    0.0835 C.2       1 <0>         0.7091
      9 O1         -0.9777   -2.1849    0.1052 O.2       1 <0>        -0.5422
     10 N2          0.1151   -4.1173    0.1816 N.am      1 <0>        -0.6700
     11 C8         -1.0826   -4.8452    0.1898 C.ar      1 <0>         0.1995
     12 C9         -2.2228   -4.3147   -0.3954 C.ar      1 <0>        -0.1201
     13 C10        -3.4027   -5.0343   -0.3861 C.ar      1 <0>        -0.0343
     14 C11        -3.4502   -6.2830    0.2059 C.ar      1 <0>        -0.0558
     15 C12        -2.3178   -6.8182    0.7911 C.ar      1 <0>        -0.0564
     16 C13        -1.1296   -6.1057    0.7805 C.ar      1 <0>         0.0768
     17 O2         -0.0135   -6.6332    1.3508 O.3       1 <0>        -0.4815
     18 N3         -4.7171   -7.0485    0.2136 N.pl3     1 <0>         0.0357
     19 O3         -5.7085   -6.5819   -0.2973 O.2       1 <0>        -0.1539
     20 O4         -4.7605   -8.1404    0.7308 O.3       1 <0>        -0.1579
     21 Br1         3.6492   -0.8764   -1.4992 Br        1 <0>        -0.0430
     22 H1         -0.6417    1.8968    1.1179 H         1 <0>         0.1360
     23 H2          1.1615    3.1645    0.0233 H         1 <0>         0.1358
     24 H3          3.0022    1.9765   -1.0976 H         1 <0>         0.1392
     25 H4         -0.6134   -0.5637    1.0880 H         1 <0>         0.1562
     26 H5          2.0780   -2.5538   -0.1382 H         1 <0>         0.4140
     27 H6          0.9647   -4.5807    0.2465 H         1 <0>         0.4214
     28 H7         -2.1887   -3.3393   -0.8580 H         1 <0>         0.1756
     29 H8         -4.2899   -4.6202   -0.8421 H         1 <0>         0.1620
     30 H9         -2.3583   -7.7936    1.2531 H         1 <0>         0.1654
     31 H10         0.0899   -6.4160    2.2874 H         1 <0>         0.3979
@<TRIPOS>BOND
     1    1    6 ar
     2    1    2 ar
     3    1   22 1
     4    2    3 ar
     5    2   23 1
     6    3    4 ar
     7    3   24 1
     8    4    5 ar
     9    4   21 1
    10    5    6 ar
    11    5    7 1
    12    6   25 1
    13    7    8 am
    14    7   26 1
    15    8    9 2
    16    8   10 am
    17   10   11 1
    18   10   27 1
    19   11   16 ar
    20   11   12 ar
    21   12   13 ar
    22   12   28 1
    23   13   14 ar
    24   13   29 1
    25   14   15 ar
    26   14   18 1
    27   15   16 ar
    28   15   30 1
    29   16   17 1
    30   17   31 1
    31   18   19 2
    32   18   20 1
@<TRIPOS>MOLECULE
ZINC03948733
   30    31     0     0     0
SMALL
USER_CHARGES
3-(3-bromo-4-cyano-2-hydroxy-phenyl)-1-(2-bromophenyl)-urea
@<TRIPOS>ATOM
      1 C1          5.9559   -4.9066    0.3182 C.ar      1 <0>        -0.0797
      2 C2          6.0381   -6.1443   -0.2932 C.ar      1 <0>        -0.1310
      3 C3          4.9211   -6.7000   -0.8891 C.ar      1 <0>        -0.0679
      4 C4          3.7183   -6.0194   -0.8753 C.ar      1 <0>        -0.1270
      5 C5          3.6329   -4.7759   -0.2618 C.ar      1 <0>         0.1921
      6 C6          4.7583   -4.2188    0.3310 C.ar      1 <0>        -0.1250
      7 N1          2.4165   -4.0835   -0.2462 N.am      1 <0>        -0.6738
      8 C7          2.4070   -2.7405   -0.1332 C.2       1 <0>         0.7093
      9 O1          3.4535   -2.1217   -0.1484 O.2       1 <0>        -0.5459
     10 N2          1.2374   -2.0835   -0.0032 N.am      1 <0>        -0.6722
     11 C8          1.2192   -0.6863    0.0152 C.ar      1 <0>         0.1760
     12 C9          2.2647    0.0132    0.6064 C.ar      1 <0>        -0.0941
     13 C10         2.2519    1.3904    0.6268 C.ar      1 <0>        -0.0501
     14 C11         1.1854    2.0884    0.0530 C.ar      1 <0>         0.0011
     15 C12         0.1332    1.3854   -0.5425 C.ar      1 <0>        -0.0641
     16 C13         0.1523    0.0032   -0.5601 C.ar      1 <0>         0.1093
     17 O2         -0.8689   -0.6839   -1.1387 O.3       1 <0>        -0.4768
     18 Br1        -1.3083    2.3235   -1.3286 Br        1 <0>        -0.0081
     19 C14         1.1709    3.5201    0.0736 C.1       1 <0>         0.2431
     20 N3          1.1594    4.6560    0.0899 N.1       1 <0>        -0.3834
     21 Br2         2.1910   -6.7796   -1.6909 Br        1 <0>        -0.0442
     22 H1          6.8305   -4.4752    0.7824 H         1 <0>         0.1353
     23 H2          6.9771   -6.6779   -0.3056 H         1 <0>         0.1348
     24 H3          4.9886   -7.6666   -1.3661 H         1 <0>         0.1382
     25 H4          4.6961   -3.2505    0.8052 H         1 <0>         0.1567
     26 H5          1.5804   -4.5702   -0.3168 H         1 <0>         0.4133
     27 H6          0.4083   -2.5804    0.0775 H         1 <0>         0.4195
     28 H7          3.0894   -0.5245    1.0505 H         1 <0>         0.1646
     29 H8          3.0659    1.9311    1.0866 H         1 <0>         0.1522
     30 H9         -0.7369   -0.8668   -2.0790 H         1 <0>         0.3981
@<TRIPOS>BOND
     1    1    6 ar
     2    1    2 ar
     3    1   22 1
     4    2    3 ar
     5    2   23 1
     6    3    4 ar
     7    3   24 1
     8    4    5 ar
     9    4   21 1
    10    5    6 ar
    11    5    7 1
    12    6   25 1
    13    7    8 am
    14    7   26 1
    15    8    9 2
    16    8   10 am
    17   10   11 1
    18   10   27 1
    19   11   16 ar
    20   11   12 ar
    21   12   13 ar
    22   12   28 1
    23   13   14 ar
    24   13   29 1
    25   14   15 ar
    26   14   19 1
    27   15   16 ar
    28   15   18 1
    29   16   17 1
    30   17   30 1
    31   19   20 3
@<TRIPOS>MOLECULE
ZINC03936851
   31    32     0     0     0
SMALL
USER_CHARGES
3-(2-hydroxy-4-nitro-phenyl)-1-phenyl-urea
@<TRIPOS>ATOM
      1 C1          0.0063    1.0966    0.3270 C.ar      1 <0>        -0.1305
      2 C2          0.9528    1.8367    1.0115 C.ar      1 <0>        -0.0990
      3 C3          0.9371    3.2159    0.9399 C.ar      1 <0>        -0.1422
      4 C4         -0.0375    3.8597    0.1888 C.ar      1 <0>         0.1534
      5 C5         -0.9901    3.1137   -0.4928 C.ar      1 <0>        -0.1189
      6 C6         -0.9655    1.7346   -0.4218 C.ar      1 <0>        -0.0990
      7 N1         -0.0599    5.2571    0.1192 N.am      1 <0>        -0.6748
      8 C7         -1.2361    5.9083    0.0245 C.2       1 <0>         0.7056
      9 O1         -2.2808    5.2904    0.0976 O.2       1 <0>        -0.5447
     10 N2         -1.2544    7.2445   -0.1512 N.am      1 <0>        -0.6704
     11 C8         -2.4730    7.9367   -0.1361 C.ar      1 <0>         0.2021
     12 C9         -3.5853    7.3733    0.4717 C.ar      1 <0>        -0.1271
     13 C10        -4.7857    8.0579    0.4858 C.ar      1 <0>        -0.0332
     14 C11        -4.8814    9.3047   -0.1044 C.ar      1 <0>        -0.0538
     15 C12        -3.7769    9.8727   -0.7117 C.ar      1 <0>        -0.0553
     16 C13        -2.5688    9.1947   -0.7262 C.ar      1 <0>         0.0728
     17 O2         -1.4803    9.7542   -1.3190 O.3       1 <0>        -0.4818
     18 N3         -6.1698   10.0333   -0.0857 N.pl3     1 <0>         0.0306
     19 O3         -7.1438    9.5345    0.4492 O.2       1 <0>        -0.1559
     20 O4         -6.2559   11.1316   -0.6051 O.3       1 <0>        -0.1599
     21 H1          0.0234    0.0181    0.3810 H         1 <0>         0.1259
     22 H2          1.7078    1.3356    1.5990 H         1 <0>         0.1289
     23 H3          1.6791    3.7933    1.4713 H         1 <0>         0.1266
     24 H4         -1.7492    3.6114   -1.0781 H         1 <0>         0.1348
     25 H5         -1.7063    1.1539   -0.9513 H         1 <0>         0.1279
     26 H6          0.7710    5.7571    0.1391 H         1 <0>         0.4117
     27 H7         -0.4241    7.7270   -0.2882 H         1 <0>         0.4205
     28 H8         -3.5132    6.3999    0.9341 H         1 <0>         0.1819
     29 H9         -5.6511    7.6182    0.9593 H         1 <0>         0.1616
     30 H10        -3.8548   10.8470   -1.1712 H         1 <0>         0.1650
     31 H11        -1.3895    9.5392   -2.2574 H         1 <0>         0.3972
@<TRIPOS>BOND
     1    1    6 ar
     2    1    2 ar
     3    1   21 1
     4    2    3 ar
     5    2   22 1
     6    3    4 ar
     7    3   23 1
     8    4    5 ar
     9    4    7 1
    10    5    6 ar
    11    5   24 1
    12    6   25 1
    13    7    8 am
    14    7   26 1
    15    8    9 2
    16    8   10 am
    17   10   11 1
    18   10   27 1
    19   11   16 ar
    20   11   12 ar
    21   12   13 ar
    22   12   28 1
    23   13   14 ar
    24   13   29 1
    25   14   15 ar
    26   14   18 1
    27   15   16 ar
    28   15   30 1
    29   16   17 1
    30   17   31 1
    31   18   19 2
    32   18   20 1
@<TRIPOS>MOLECULE
ZINC00603064
   30    32     0     0     0
SMALL
USER_CHARGES

@<TRIPOS>ATOM
      1 C1          0.1636    1.3717    0.6348 C.ar      1 <0>        -0.0800
      2 C2          1.1770    2.0851    0.0211 C.ar      1 <0>        -0.1411
      3 C3          2.2101    1.4191   -0.6119 C.ar      1 <0>        -0.0697
      4 C4          2.2330    0.0373   -0.6327 C.ar      1 <0>        -0.1325
      5 C5          1.2165   -0.6818   -0.0166 C.ar      1 <0>         0.2065
      6 C6          0.1805   -0.0092    0.6178 C.ar      1 <0>        -0.1269
      7 N1          1.2361   -2.0813   -0.0360 N.am      1 <0>        -0.6807
      8 C7          0.0861   -2.7731    0.0870 C.2       1 <0>         0.7036
      9 O1         -0.9776   -2.1847    0.1126 O.2       1 <0>        -0.5475
     10 N2          0.1151   -4.1173    0.1816 N.am      1 <0>        -0.6578
     11 C8         -1.0731   -4.8395    0.1897 C.ar      1 <0>         0.2441
     12 C9         -2.2076   -4.3125   -0.3921 C.ar      1 <0>        -0.1819
     13 C10        -3.4083   -5.0048   -0.4026 C.ar      1 <0>        -0.0466
     14 C11        -3.5238   -6.2620    0.1734 C.ar      1 <0>        -0.0197
     15 C12        -2.3546   -6.8729    0.8058 C.ar      1 <0>         0.0111
     16 C13        -1.1231   -6.1578    0.8072 C.ar      1 <0>        -0.0612
     17 N3         -0.2598   -6.9427    1.4298 N.2       1 <0>        -0.3536
     18 N4         -0.8648   -8.0260    1.7769 N.2       1 <0>        -0.1294
     19 N5         -2.1050   -8.0093    1.4283 N.2       1 <0>        -0.3603
     20 C14        -4.7767   -6.9551    0.1493 C.1       1 <0>         0.2841
     21 N6         -5.7705   -7.5049    0.1302 N.1       1 <0>        -0.4624
     22 Br1         3.6458   -0.8732   -1.4992 Br        1 <0>        -0.0496
     23 H1         -0.6397    1.8951    1.1320 H         1 <0>         0.1322
     24 H2          1.1612    3.1649    0.0360 H         1 <0>         0.1301
     25 H3          2.9996    1.9790   -1.0909 H         1 <0>         0.1338
     26 H4         -0.6112   -0.5654    1.0977 H         1 <0>         0.1599
     27 H5          2.0775   -2.5531   -0.1380 H         1 <0>         0.4109
     28 H6          0.9649   -4.5808    0.2440 H         1 <0>         0.4134
     29 H7         -2.1591   -3.3358   -0.8506 H         1 <0>         0.1469
     30 H8         -4.2728   -4.5559   -0.8689 H         1 <0>         0.1244
@<TRIPOS>BOND
     1    1    6 ar
     2    1    2 ar
     3    1   23 1
     4    2    3 ar
     5    2   24 1
     6    3    4 ar
     7    3   25 1
     8    4    5 ar
     9    4   22 1
    10    5    6 ar
    11    5    7 1
    12    6   26 1
    13    7    8 am
    14    7   27 1
    15    8    9 2
    16    8   10 am
    17   10   11 1
    18   10   28 1
    19   11   16 ar
    20   11   12 ar
    21   12   13 ar
    22   12   29 1
    23   13   14 ar
    24   13   30 1
    25   14   15 ar
    26   14   20 1
    27   15   16 ar
    28   15   19 2
    29   16   17 2
    30   17   18 1
    31   18   19 1
    32   20   21 3
@<TRIPOS>MOLECULE
ZINC00603064
   31    33     0     0     0
SMALL
USER_CHARGES
1-(2-bromophenyl)-3-(7-cyano-1H-benzotriazol-4-yl)urea
@<TRIPOS>ATOM
      1 C1          3.8347   -0.4180   -0.4003 C.ar      1 <0>        -0.0836
      2 C2          4.8492    0.1999    0.3079 C.ar      1 <0>        -0.1283
      3 C3          4.6257    1.4194    0.9198 C.ar      1 <0>        -0.0722
      4 C4          3.3870    2.0249    0.8250 C.ar      1 <0>        -0.1211
      5 C5          2.3662    1.4066    0.1138 C.ar      1 <0>         0.1936
      6 C6          2.5929    0.1792   -0.4946 C.ar      1 <0>        -0.1163
      7 N1          1.1104    2.0169    0.0155 N.am      1 <0>        -0.6892
      8 C7         -0.0062    1.2623    0.0008 C.2       1 <0>         0.7137
      9 O1          0.0797    0.0496   -0.0142 O.2       1 <0>        -0.5480
     10 N2         -1.2181    1.8521   -0.0030 N.am      1 <0>        -0.6804
     11 C8         -2.3704    1.0763    0.0952 C.ar      1 <0>         0.3009
     12 C9         -2.3162   -0.1707    0.6953 C.ar      1 <0>        -0.1728
     13 C10        -3.4499   -0.9527    0.8013 C.ar      1 <0>         0.0284
     14 C11        -4.6699   -0.4961    0.3032 C.ar      1 <0>        -0.0726
     15 C12        -4.7420    0.7675   -0.3094 C.ar      1 <0>         0.1448
     16 C13        -3.5914    1.5624   -0.4104 C.ar      1 <0>        -0.0503
     17 N3         -3.9402    2.7121   -1.0207 N.2       1 <0>        -0.2085
     18 N4         -5.1968    2.7057   -1.2968 N.2       1 <0>         0.0173
     19 N5         -5.7601    1.4947   -0.8680 N.pl3     1 <0>        -0.5007
     20 C14        -5.8428   -1.3100    0.4146 C.1       1 <0>         0.2492
     21 N6         -6.7733   -1.9556    0.5029 N.1       1 <0>        -0.4087
     22 Br1         3.0817    3.6926    1.6627 Br        1 <0>        -0.0437
     23 H1          4.0125   -1.3707   -0.8769 H         1 <0>         0.1342
     24 H2          5.8180   -0.2713    0.3834 H         1 <0>         0.1340
     25 H3          5.4198    1.8991    1.4728 H         1 <0>         0.1371
     26 H4          1.8000   -0.3063   -1.0441 H         1 <0>         0.1507
     27 H5          1.0349    3.1124   -0.0498 H         1 <0>         0.4363
     28 H6         -1.2970    2.9463   -0.0837 H         1 <0>         0.4473
     29 H7         -1.3774   -0.5355    1.0849 H         1 <0>         0.1722
     30 H8         -3.3913   -1.9226    1.2726 H         1 <0>         0.1533
     31 H9         -6.7778    1.0788   -0.9037 H         1 <0>         0.4834
@<TRIPOS>BOND
     1    1    6 ar
     2    1    2 ar
     3    1   23 1
     4    2    3 ar
     5    2   24 1
     6    3    4 ar
     7    3   25 1
     8    4    5 ar
     9    4   22 1
    10    5    6 ar
    11    5    7 1
    12    6   26 1
    13    7    8 am
    14    7   27 1
    15    8    9 2
    16    8   10 am
    17   10   11 1
    18   10   28 1
    19   11   16 ar
    20   11   12 ar
    21   12   13 ar
    22   12   29 1
    23   13   14 ar
    24   13   30 1
    25   14   15 ar
    26   14   20 1
    27   15   16 ar
    28   15   19 1
    29   16   17 1
    30   17   18 2
    31   18   19 1
    32   19   31 1
    33   20   21 3
@<TRIPOS>MOLECULE
ZINC04620459
   52    54     0     0     0
SMALL
NO_CHARGES

@<TRIPOS>ATOM
      1 C1          0.6308    1.3820   -2.4466 C.3       1 <0>        -0.1593
      2 C2          0.7178   -0.1434   -2.5278 C.3       1 <0>        -0.1095
      3 C3          1.7964   -0.5397   -3.5380 C.3       1 <0>         0.1373
      4 H1          1.5884   -0.0646   -4.4967 H         1 <0>         0.0957
      5 C4          1.7984   -2.0369   -3.7093 C.2       1 <0>        -0.0201
      6 C5          1.2316   -2.7133   -4.7245 C.2       1 <0>        -0.1872
      7 C6          1.4723   -4.0861   -4.4869 C.2       1 <0>        -0.2137
      8 C7          2.1720   -4.1665   -3.3409 C.2       1 <0>        -0.0023
      9 O1          2.3716   -2.9218   -2.8774 O.3       1 <0>        -0.1574
     10 C8          2.6548   -5.4372   -2.6903 C.3       1 <0>        -0.0764
     11 N1          3.1067   -0.1022   -3.0503 N.2       1 <0>        -0.3593
     12 C9          3.8111    0.7253   -3.7466 C.2       1 <0>         0.0766
     13 C10         5.1618    1.3947   -3.6115 C.3       1 <0>         0.1518
     14 C11         5.1494    1.4760   -5.1227 C.2       1 <0>         0.3173
     15 O2          5.9748    1.5381   -6.0023 O.2       1 <0>        -0.3387
     16 C12         3.6596    1.4399   -5.0413 C.2       1 <0>         0.3008
     17 O3          2.7364    1.8226   -5.7283 O.2       1 <0>        -0.3504
     18 N2          5.1113    2.7001   -2.9485 N.pl3     1 <0>        -0.7060
     19 C13         6.2433    3.1948   -2.2901 C.ar      1 <0>         0.1846
     20 C14         7.4139    2.4525   -2.2702 C.ar      1 <0>        -0.1575
     21 C15         8.5374    2.9363   -1.6212 C.ar      1 <0>        -0.0796
     22 C16         8.5034    4.1601   -0.9887 C.ar      1 <0>        -0.1231
     23 C17         7.3307    4.9209   -0.9991 C.ar      1 <0>        -0.1083
     24 C18         6.1958    4.4361   -1.6595 C.ar      1 <0>         0.0918
     25 O4          5.0533    5.1691   -1.6806 O.3       1 <0>        -0.4779
     26 C19         7.2912    6.2314   -0.3223 C.2       1 <0>         0.5597
     27 O5          6.9563    7.2243   -0.9390 O.2       1 <0>        -0.5144
     28 N3          7.6263    6.3278    0.9796 N.am      1 <0>        -0.6176
     29 C20         7.5038    7.6118    1.6744 C.3       1 <0>         0.0839
     30 C21         8.1132    5.1487    1.7000 C.3       1 <0>         0.0644
     31 H2          1.5925    1.7843   -2.1280 H         1 <0>         0.0544
     32 H3          0.3756    1.7840   -3.4271 H         1 <0>         0.0596
     33 H4         -0.1375    1.6643   -1.7269 H         1 <0>         0.0696
     34 H5          0.9731   -0.5455   -1.5473 H         1 <0>         0.0837
     35 H6         -0.2438   -0.5457   -2.8464 H         1 <0>         0.0875
     36 H7          0.6949   -2.2892   -5.5602 H         1 <0>         0.1504
     37 H8          1.1551   -4.9118   -5.1066 H         1 <0>         0.1519
     38 H9          3.6487   -5.6822   -3.0649 H         1 <0>         0.0836
     39 H10         2.6975   -5.2988   -1.6100 H         1 <0>         0.0784
     40 H11         1.9674   -6.2497   -2.9256 H         1 <0>         0.0909
     41 H12         5.9383    0.7423   -3.2122 H         1 <0>         0.1558
     42 H13         4.2936    3.2215   -2.9657 H         1 <0>         0.4140
     43 H14         7.4497    1.4922   -2.7629 H         1 <0>         0.1346
     44 H15         9.4450    2.3512   -1.6103 H         1 <0>         0.1373
     45 H16         9.3832    4.5315   -0.4843 H         1 <0>         0.1333
     46 H17         4.4584    4.9916   -0.9393 H         1 <0>         0.3845
     47 H18         6.5091    7.6943    2.1124 H         1 <0>         0.0567
     48 H19         8.2540    7.6713    2.4628 H         1 <0>         0.0723
     49 H20         7.6570    8.4249    0.9648 H         1 <0>         0.0791
     50 H21         8.0415    4.2733    1.0545 H         1 <0>         0.0892
     51 H22         9.1529    5.3030    1.9887 H         1 <0>         0.0639
     52 H23         7.5076    4.9926    2.5926 H         1 <0>         0.0643
@<TRIPOS>BOND
     1    1    2 1
     2    1   31 1
     3    1   32 1
     4    1   33 1
     5    2    3 1
     6    2   34 1
     7    2   35 1
     8    3    4 1
     9    3    5 1
    10    3   11 1
    11    5    9 1
    12    5    6 2
    13    6    7 1
    14    6   36 1
    15    7    8 2
    16    7   37 1
    17    8    9 1
    18    8   10 1
    19   10   38 1
    20   10   39 1
    21   10   40 1
    22   11   12 2
    23   12   16 1
    24   12   13 1
    25   13   14 1
    26   13   18 1
    27   13   41 1
    28   14   15 2
    29   14   16 1
    30   16   17 2
    31   18   19 1
    32   18   42 1
    33   19   24 ar
    34   19   20 ar
    35   20   21 ar
    36   20   43 1
    37   21   22 ar
    38   21   44 1
    39   22   23 ar
    40   22   45 1
    41   23   24 ar
    42   23   26 1
    43   24   25 1
    44   25   46 1
    45   26   27 2
    46   26   28 am
    47   28   29 1
    48   28   30 1
    49   29   47 1
    50   29   48 1
    51   29   49 1
    52   30   50 1
    53   30   51 1
    54   30   52 1
@<TRIPOS>MOLECULE
ZINC04620459
   52    54     0     0     0
SMALL
NO_CHARGES

@<TRIPOS>ATOM
      1 C1          0.0302    3.2313   -0.6389 C.3       1 <0>        -0.1604
      2 C2          0.4027    1.7713   -0.3729 C.3       1 <0>        -0.1142
      3 C3          1.1276    1.1996   -1.5930 C.3       1 <0>         0.1413
      4 H1          0.5089    1.3356   -2.4800 H         1 <0>         0.0942
      5 C4          1.3856   -0.2700   -1.3810 C.2       1 <0>        -0.0168
      6 C5          0.6610   -1.2785   -1.8980 C.2       1 <0>        -0.1860
      7 C6          1.2514   -2.4809   -1.4457 C.2       1 <0>        -0.2151
      8 C7          2.3015   -2.1352   -0.6794 C.2       1 <0>        -0.0004
      9 O1          2.3814   -0.7949   -0.6485 O.3       1 <0>        -0.1579
     10 C8          3.2336   -3.0900    0.0210 C.3       1 <0>        -0.0780
     11 N1          2.4025    1.8979   -1.7752 N.2       1 <0>        -0.3620
     12 C9          2.6350    2.5418   -2.8693 C.2       1 <0>         0.0752
     13 C10         1.8867    2.8183   -4.1554 C.3       1 <0>         0.0916
     14 C11         2.7428    4.0621   -4.2568 C.2       1 <0>         0.3260
     15 O2          2.6490    5.1490   -4.7752 O.2       1 <0>        -0.3374
     16 C12         3.7544    3.3472   -3.4243 C.2       1 <0>         0.3555
     17 O3          4.9560    3.4017   -3.2692 O.2       1 <0>        -0.3390
     18 N2          2.1429    1.8361   -5.2118 N.pl3     1 <0>        -0.7058
     19 C13         1.1938    1.6285   -6.2196 C.ar      1 <0>         0.1834
     20 C14         0.0139    2.3562   -6.2217 C.ar      1 <0>        -0.1607
     21 C15        -0.9290    2.1561   -7.2159 C.ar      1 <0>        -0.0794
     22 C16        -0.7042    1.2320   -8.2131 C.ar      1 <0>        -0.1234
     23 C17         0.4803    0.4897   -8.2252 C.ar      1 <0>        -0.1070
     24 C18         1.4370    0.6947   -7.2243 C.ar      1 <0>         0.0925
     25 O4          2.5933   -0.0167   -7.2295 O.3       1 <0>        -0.4773
     26 C19         0.7235   -0.5008   -9.2914 C.2       1 <0>         0.5591
     27 O5          1.7336   -0.4334   -9.9649 O.2       1 <0>        -0.5133
     28 N3         -0.1739   -1.4803   -9.5187 N.am      1 <0>        -0.6175
     29 C20         0.1078   -2.5145  -10.5174 C.3       1 <0>         0.0838
     30 C21        -1.4310   -1.5109   -8.7671 C.3       1 <0>         0.0647
     31 H2          0.9353    3.8087   -0.8274 H         1 <0>         0.0564
     32 H3         -0.6239    3.2866   -1.5091 H         1 <0>         0.0579
     33 H4         -0.4862    3.6386    0.2303 H         1 <0>         0.0703
     34 H5          1.0568    1.7160    0.4972 H         1 <0>         0.0836
     35 H6         -0.5023    1.1939   -0.1844 H         1 <0>         0.0870
     36 H7         -0.2059   -1.1872   -2.5356 H         1 <0>         0.1494
     37 H8          0.9223   -3.4843   -1.6718 H         1 <0>         0.1509
     38 H9          4.0669   -3.3335   -0.6382 H         1 <0>         0.0836
     39 H10         3.6137   -2.6252    0.9306 H         1 <0>         0.0786
     40 H11         2.6944   -4.0021    0.2770 H         1 <0>         0.0911
     41 H12         0.8260    3.0245   -4.0118 H         1 <0>         0.1472
     42 H13         2.9702    1.3297   -5.2129 H         1 <0>         0.4153
     43 H14        -0.1711    3.0823   -5.4439 H         1 <0>         0.1324
     44 H15        -1.8456    2.7271   -7.2096 H         1 <0>         0.1370
     45 H16        -1.4437    1.0809   -8.9855 H         1 <0>         0.1335
     46 H17         2.5447   -0.8498   -6.7410 H         1 <0>         0.3846
     47 H18         0.6242   -3.3481  -10.0415 H         1 <0>         0.0568
     48 H19        -0.8288   -2.8665  -10.9499 H         1 <0>         0.0724
     49 H20         0.7374   -2.0982  -11.3038 H         1 <0>         0.0793
     50 H21        -1.4191   -0.7295   -8.0072 H         1 <0>         0.0885
     51 H22        -2.2655   -1.3429   -9.4479 H         1 <0>         0.0641
     52 H23        -1.5437   -2.4829   -8.2869 H         1 <0>         0.0642
@<TRIPOS>BOND
     1    1    2 1
     2    1   31 1
     3    1   32 1
     4    1   33 1
     5    2    3 1
     6    2   34 1
     7    2   35 1
     8    3    4 1
     9    3    5 1
    10    3   11 1
    11    5    9 1
    12    5    6 2
    13    6    7 1
    14    6   36 1
    15    7    8 2
    16    7   37 1
    17    8    9 1
    18    8   10 1
    19   10   38 1
    20   10   39 1
    21   10   40 1
    22   11   12 2
    23   12   16 1
    24   12   13 1
    25   13   14 1
    26   13   18 1
    27   13   41 1
    28   14   15 2
    29   14   16 1
    30   16   17 2
    31   18   19 1
    32   18   42 1
    33   19   24 ar
    34   19   20 ar
    35   20   21 ar
    36   20   43 1
    37   21   22 ar
    38   21   44 1
    39   22   23 ar
    40   22   45 1
    41   23   24 ar
    42   23   26 1
    43   24   25 1
    44   25   46 1
    45   26   27 2
    46   26   28 am
    47   28   29 1
    48   28   30 1
    49   29   47 1
    50   29   48 1
    51   29   49 1
    52   30   50 1
    53   30   51 1
    54   30   52 1
@<TRIPOS>MOLECULE
ZINC03917497
   31    32     0     0     0
SMALL
USER_CHARGES
3-(5-chloro-2-hydroxy-4-nitro-phenyl)-1-phenyl-urea
@<TRIPOS>ATOM
      1 C1         -0.1502   -4.8417    0.0350 C.ar      1 <0>        -0.1300
      2 C2          0.8333   -3.9604    0.4453 C.ar      1 <0>        -0.0991
      3 C3          0.5901   -2.6008    0.4403 C.ar      1 <0>        -0.1181
      4 C4         -0.6438   -2.1192    0.0230 C.ar      1 <0>         0.1532
      5 C5         -1.6314   -3.0072   -0.3826 C.ar      1 <0>        -0.1419
      6 C6         -1.3798   -4.3653   -0.3811 C.ar      1 <0>        -0.0992
      7 N1         -0.8933   -0.7423    0.0166 N.am      1 <0>        -0.6738
      8 C7          0.1025    0.1217   -0.2629 C.2       1 <0>         0.7048
      9 O1          1.1933   -0.2963   -0.6006 O.2       1 <0>        -0.5453
     10 N2         -0.1106    1.4492   -0.1681 N.am      1 <0>        -0.6728
     11 C8          0.9492    2.3449   -0.3649 C.ar      1 <0>         0.2092
     12 C9          1.9665    2.0335   -1.2549 C.ar      1 <0>        -0.1096
     13 C10         3.0113    2.9191   -1.4473 C.ar      1 <0>         0.0297
     14 C11         3.0443    4.1159   -0.7535 C.ar      1 <0>        -0.0464
     15 C12         2.0335    4.4317    0.1353 C.ar      1 <0>        -0.0472
     16 C13         0.9806    3.5524    0.3285 C.ar      1 <0>         0.0842
     17 O2         -0.0173    3.8649    1.1981 O.3       1 <0>        -0.4780
     18 N3          4.1648    5.0601   -0.9632 N.pl3     1 <0>         0.0286
     19 O3          4.1954    6.1140   -0.3533 O.2       1 <0>        -0.1600
     20 O4          5.0563    4.7832   -1.7455 O.3       1 <0>        -0.1320
     21 Cl1         4.2837    2.5286   -2.5619 Cl        1 <0>         0.0084
     22 H1          0.0425   -5.9044    0.0399 H         1 <0>         0.1260
     23 H2          1.7926   -4.3355    0.7698 H         1 <0>         0.1279
     24 H3          1.3585   -1.9130    0.7608 H         1 <0>         0.1344
     25 H4         -2.5935   -2.6360   -0.7035 H         1 <0>         0.1267
     26 H5         -2.1458   -5.0562   -0.7010 H         1 <0>         0.1290
     27 H6         -1.7830   -0.4098    0.2133 H         1 <0>         0.4118
     28 H7         -0.9984    1.7847    0.0323 H         1 <0>         0.4224
     29 H8          1.9429    1.0998   -1.7972 H         1 <0>         0.1827
     30 H9          2.0623    5.3664    0.6755 H         1 <0>         0.1740
     31 H10         0.1432    3.5677    2.1042 H         1 <0>         0.4005
@<TRIPOS>BOND
     1    1    6 ar
     2    1    2 ar
     3    1   22 1
     4    2    3 ar
     5    2   23 1
     6    3    4 ar
     7    3   24 1
     8    4    5 ar
     9    4    7 1
    10    5    6 ar
    11    5   25 1
    12    6   26 1
    13    7    8 am
    14    7   27 1
    15    8    9 2
    16    8   10 am
    17   10   11 1
    18   10   28 1
    19   11   16 ar
    20   11   12 ar
    21   12   13 ar
    22   12   29 1
    23   13   14 ar
    24   13   21 1
    25   14   15 ar
    26   14   18 1
    27   15   16 ar
    28   15   30 1
    29   16   17 1
    30   17   31 1
    31   18   19 2
    32   18   20 1
