@<TRIPOS>MOLECULE
ZINC33359231
   54    57     0     0     0
SMALL
USER_CHARGES

@<TRIPOS>ATOM
      1 C1         -0.6668    0.9728   -2.2228 C.ar      1 <0>        -0.0989
      2 C2          0.4340    1.8150   -2.1542 C.ar      1 <0>        -0.1282
      3 C3          1.6491    1.3418   -1.7472 C.ar      1 <0>        -0.0610
      4 C4          1.7901   -0.0031   -1.3949 C.ar      1 <0>         0.0563
      5 C5          0.6757   -0.8562   -1.4637 C.ar      1 <0>         0.0521
      6 C6         -0.5512   -0.3574   -1.8800 C.ar      1 <0>        -0.1141
      7 N1          1.1219   -2.0991   -1.0613 N.pl3     1 <0>        -0.5863
      8 H1          0.5906   -2.9083   -0.9992 H         1 <0>         0.4189
      9 C7          2.4449   -1.9788   -0.7685 C.2       1 <0>         0.2937
     10 N2          2.8363   -0.7534   -0.9633 N.2       1 <0>        -0.4744
     11 C8          3.3283   -3.1012   -0.2880 C.3       1 <0>         0.1184
     12 N3          4.0036   -3.7190   -1.4371 N.3       1 <0>        -0.5119
     13 C9          4.5505   -5.0351   -1.0811 C.3       1 <0>         0.0545
     14 C10         5.0334   -5.7461   -2.3468 C.3       1 <0>        -0.1160
     15 C11         5.4847   -7.1649   -1.9942 C.3       1 <0>        -0.1503
     16 C12         6.0816   -7.8332   -3.2343 C.3       1 <0>        -0.0093
     17 N4          6.4060   -9.2328   -2.9280 N.4       1 <0>        -0.6385
     18 C13         5.0535   -2.8384   -1.9665 C.3       1 <0>         0.1448
     19 C14         5.8594   -2.2608   -0.8050 C.3       1 <0>        -0.1583
     20 C15         6.8041   -1.1866   -1.3568 C.3       1 <0>        -0.1115
     21 C16         5.9651    0.0134   -1.7930 C.3       1 <0>        -0.0780
     22 C17         4.8409   -0.4269   -2.6913 C.ar      1 <0>        -0.0771
     23 C18         4.4170   -1.7340   -2.7709 C.ar      1 <0>         0.1427
     24 N5          3.4156   -2.0607   -3.5776 N.ar      1 <0>        -0.4611
     25 C19         2.7956   -1.1744   -4.3260 C.ar      1 <0>         0.0893
     26 C20         3.1712    0.1553   -4.2995 C.ar      1 <0>        -0.1588
     27 C21         4.2106    0.5393   -3.4694 C.ar      1 <0>        -0.0806
     28 H2         -1.6217    1.3632   -2.5426 H         1 <0>         0.1290
     29 H3          0.3291    2.8550   -2.4257 H         1 <0>         0.1276
     30 H4          2.4994    2.0058   -1.6982 H         1 <0>         0.1221
     31 H5         -1.4112   -1.0085   -1.9348 H         1 <0>         0.1194
     32 H6          4.0737   -2.7067    0.4025 H         1 <0>         0.0874
     33 H7          2.7208   -3.8491    0.2215 H         1 <0>         0.0921
     34 H8          5.3873   -4.9072   -0.3945 H         1 <0>         0.0429
     35 H9          3.7754   -5.6331   -0.6017 H         1 <0>         0.0801
     36 H10         4.2193   -5.7931   -3.0702 H         1 <0>         0.0883
     37 H11         5.8699   -5.1950   -2.7765 H         1 <0>         0.0743
     38 H12         6.2374   -7.1216   -1.2070 H         1 <0>         0.0879
     39 H13         4.6283   -7.7428   -1.6467 H         1 <0>         0.0883
     40 H14         5.3589   -7.7977   -4.0496 H         1 <0>         0.1349
     41 H15         6.9889   -7.3063   -3.5299 H         1 <0>         0.1337
     42 H16         7.0749   -9.2657   -2.1734 H         1 <0>         0.4351
     43 H17         5.5661   -9.7206   -2.6545 H         1 <0>         0.4353
     44 H18         5.7161   -3.4163   -2.6108 H         1 <0>         0.0913
     45 H19         5.1831   -1.8144   -0.0760 H         1 <0>         0.0897
     46 H20         6.4410   -3.0527   -0.3330 H         1 <0>         0.0653
     47 H21         7.5062   -0.8812   -0.5809 H         1 <0>         0.0716
     48 H22         7.3510   -1.5828   -2.2124 H         1 <0>         0.0616
     49 H23         5.5505    0.5018   -0.9112 H         1 <0>         0.0848
     50 H24         6.5989    0.7192   -2.3297 H         1 <0>         0.0716
     51 H25         1.9855   -1.4887   -4.9675 H         1 <0>         0.1402
     52 H26         2.6631    0.8822   -4.9159 H         1 <0>         0.1253
     53 H27         4.5270    1.5710   -3.4267 H         1 <0>         0.1252
     54 H28         6.7996   -9.6736   -3.7459 H         1 <0>         0.4387
@<TRIPOS>BOND
     1    1    6 ar
     2    1    2 ar
     3    1   28 1
     4    2    3 ar
     5    2   29 1
     6    3    4 ar
     7    3   30 1
     8    4   10 1
     9    4    5 ar
    10    5    6 ar
    11    5    7 1
    12    6   31 1
    13    7    8 1
    14    7    9 1
    15    9   10 2
    16    9   11 1
    17   11   12 1
    18   11   32 1
    19   11   33 1
    20   12   13 1
    21   12   18 1
    22   13   14 1
    23   13   34 1
    24   13   35 1
    25   14   15 1
    26   14   36 1
    27   14   37 1
    28   15   16 1
    29   15   38 1
    30   15   39 1
    31   16   17 1
    32   16   40 1
    33   16   41 1
    34   17   42 1
    35   17   43 1
    36   17   54 1
    37   18   23 1
    38   18   19 1
    39   18   44 1
    40   19   20 1
    41   19   45 1
    42   19   46 1
    43   20   21 1
    44   20   47 1
    45   20   48 1
    46   21   22 1
    47   21   49 1
    48   21   50 1
    49   22   27 ar
    50   22   23 ar
    51   23   24 ar
    52   24   25 ar
    53   25   26 ar
    54   25   51 1
    55   26   27 ar
    56   26   52 1
    57   27   53 1
@<TRIPOS>MOLECULE
ZINC33359231
   55    58     0     0     0
SMALL
USER_CHARGES

@<TRIPOS>ATOM
      1 C1         -0.6661    0.9736   -2.2197 C.ar      1 <0>        -0.0837
      2 C2          0.4349    1.8156   -2.1516 C.ar      1 <0>        -0.1131
      3 C3          1.6502    1.3421   -1.7454 C.ar      1 <0>        -0.0723
      4 C4          1.7911   -0.0029   -1.3933 C.ar      1 <0>         0.0355
      5 C5          0.6765   -0.8557   -1.4616 C.ar      1 <0>         0.0515
      6 C6         -0.5506   -0.3567   -1.8771 C.ar      1 <0>        -0.1119
      7 N1          1.1227   -2.0988   -1.0596 N.pl3     1 <0>        -0.5878
      8 H1          0.5912   -2.9078   -0.9973 H         1 <0>         0.4263
      9 C7          2.4459   -1.9788   -0.7676 C.2       1 <0>         0.2625
     10 N2          2.8374   -0.7534   -0.9625 N.2       1 <0>        -0.4842
     11 C8          3.3294   -3.1014   -0.2878 C.3       1 <0>         0.1099
     12 N3          4.0037   -3.7193   -1.4372 N.3       1 <0>        -0.5454
     13 C9          4.5507   -5.0355   -1.0816 C.3       1 <0>         0.0504
     14 C10         5.0328   -5.7465   -2.3477 C.3       1 <0>        -0.1210
     15 C11         5.4841   -7.1653   -1.9954 C.3       1 <0>        -0.1532
     16 C12         6.0803   -7.8337   -3.2359 C.3       1 <0>        -0.0084
     17 N4          6.4046   -9.2334   -2.9298 N.4       1 <0>        -0.6392
     18 C13         5.0533   -2.8389   -1.9676 C.3       1 <0>         0.1034
     19 C14         5.8598   -2.2608   -0.8066 C.3       1 <0>        -0.1569
     20 C15         6.8041   -1.1868   -1.3593 C.3       1 <0>        -0.1203
     21 C16         5.9649    0.0130   -1.7955 C.3       1 <0>        -0.0885
     22 C17         4.8402   -0.4277   -2.6931 C.ar      1 <0>        -0.0276
     23 C18         4.4163   -1.7349   -2.7720 C.ar      1 <0>         0.1798
     24 N5          3.4146   -2.0619   -3.5781 N.ar      1 <0>        -0.4339
     25 C19         2.7941   -1.1758   -4.3265 C.ar      1 <0>         0.1164
     26 C20         3.1697    0.1539   -4.3007 C.ar      1 <0>        -0.1141
     27 C21         4.2095    0.5382   -3.4712 C.ar      1 <0>        -0.0022
     28 H2         -1.6211    1.3642   -2.5389 H         1 <0>         0.1396
     29 H3          0.3300    2.8557   -2.4230 H         1 <0>         0.1385
     30 H4          2.5006    2.0059   -1.6968 H         1 <0>         0.1294
     31 H5         -1.4107   -1.0076   -1.9315 H         1 <0>         0.1284
     32 H6          4.0753   -2.7071    0.4023 H         1 <0>         0.1048
     33 H7          2.7220   -3.8492    0.2222 H         1 <0>         0.1100
     34 H8          5.3880   -4.9077   -0.3955 H         1 <0>         0.0621
     35 H9          3.7758   -5.6334   -0.6018 H         1 <0>         0.0962
     36 H10         4.2183   -5.7933   -3.0706 H         1 <0>         0.0843
     37 H11         5.8691   -5.1954   -2.7778 H         1 <0>         0.0759
     38 H12         6.2373   -7.1222   -1.2086 H         1 <0>         0.0938
     39 H13         4.6279   -7.7431   -1.6474 H         1 <0>         0.0933
     40 H14         5.3571   -7.7981   -4.0507 H         1 <0>         0.1335
     41 H15         6.9874   -7.3069   -3.5319 H         1 <0>         0.1341
     42 H16         5.5649   -9.7210   -2.6558 H         1 <0>         0.4373
     43 H17         6.7978   -9.6741   -3.7479 H         1 <0>         0.4424
     44 H18         5.7156   -3.4170   -2.6119 H         1 <0>         0.1240
     45 H19         5.1838   -1.8142   -0.0774 H         1 <0>         0.1007
     46 H20         6.4416   -3.0525   -0.3346 H         1 <0>         0.0886
     47 H21         7.5066   -0.8811   -0.5838 H         1 <0>         0.0933
     48 H22         7.3506   -1.5833   -2.2150 H         1 <0>         0.0724
     49 H23         5.5507    0.5018   -0.9136 H         1 <0>         0.1115
     50 H24         6.5984    0.7187   -2.3328 H         1 <0>         0.1007
     51 H25         1.9838   -1.4904   -4.9675 H         1 <0>         0.1995
     52 H26         2.6613    0.8805   -4.9171 H         1 <0>         0.1819
     53 H27         4.5259    1.5700   -3.4291 H         1 <0>         0.1725
     54 H28         7.0740   -9.2663   -2.1756 H         1 <0>         0.4377
     55 H29         3.1296   -2.9882   -3.6172 H         1 <0>         0.4417
@<TRIPOS>BOND
     1    1    6 ar
     2    1    2 ar
     3    1   28 1
     4    2    3 ar
     5    2   29 1
     6    3    4 ar
     7    3   30 1
     8    4   10 1
     9    4    5 ar
    10    5    6 ar
    11    5    7 1
    12    6   31 1
    13    7    8 1
    14    7    9 1
    15    9   10 2
    16    9   11 1
    17   11   12 1
    18   11   32 1
    19   11   33 1
    20   12   13 1
    21   12   18 1
    22   13   14 1
    23   13   34 1
    24   13   35 1
    25   14   15 1
    26   14   36 1
    27   14   37 1
    28   15   16 1
    29   15   38 1
    30   15   39 1
    31   16   17 1
    32   16   40 1
    33   16   41 1
    34   17   42 1
    35   17   43 1
    36   17   54 1
    37   18   23 1
    38   18   19 1
    39   18   44 1
    40   19   20 1
    41   19   45 1
    42   19   46 1
    43   20   21 1
    44   20   47 1
    45   20   48 1
    46   21   22 1
    47   21   49 1
    48   21   50 1
    49   22   27 ar
    50   22   23 ar
    51   23   24 ar
    52   24   25 ar
    53   24   55 1
    54   25   26 ar
    55   25   51 1
    56   26   27 ar
    57   26   52 1
    58   27   53 1
@<TRIPOS>MOLECULE
ZINC33359232
   54    57     0     0     0
SMALL
USER_CHARGES

@<TRIPOS>ATOM
      1 C1         -0.3217    0.8950    0.6487 C.ar      1 <0>        -0.0965
      2 C2          0.8376    1.6484    0.7680 C.ar      1 <0>        -0.1255
      3 C3          2.0655    1.0562    0.6808 C.ar      1 <0>        -0.0646
      4 C4          2.1605   -0.3219    0.4698 C.ar      1 <0>         0.0472
      5 C5          0.9870   -1.0852    0.3493 C.ar      1 <0>         0.0521
      6 C6         -0.2522   -0.4659    0.4402 C.ar      1 <0>        -0.1135
      7 N1          1.3986   -2.3879    0.1508 N.pl3     1 <0>        -0.5878
      8 H1          0.8242   -3.1603    0.0304 H         1 <0>         0.4218
      9 C7          2.7589   -2.3876    0.1548 C.2       1 <0>         0.2910
     10 N2          3.2052   -1.1797    0.3413 N.2       1 <0>        -0.4867
     11 C8          3.6231   -3.6083   -0.0294 C.3       1 <0>         0.1298
     12 N3          4.0093   -3.7263   -1.4418 N.3       1 <0>        -0.5107
     13 C9          4.5245   -5.0701   -1.7363 C.3       1 <0>         0.0463
     14 C10         4.5294   -5.2941   -3.2498 C.3       1 <0>        -0.1214
     15 C11         5.0660   -6.6937   -3.5565 C.3       1 <0>        -0.1516
     16 C12         5.0708   -6.9178   -5.0700 C.3       1 <0>        -0.0084
     17 N4          5.5860   -8.2616   -5.3644 N.4       1 <0>        -0.6378
     18 C13         4.9894   -2.6949   -1.8075 C.3       1 <0>         0.1265
     19 H2          4.6867   -1.7417   -1.3741 H         1 <0>         0.1218
     20 C14         6.3599   -3.0853   -1.2583 C.3       1 <0>        -0.1545
     21 C15         7.4041   -2.1169   -1.8264 C.3       1 <0>        -0.1193
     22 C16         7.5633   -2.4029   -3.3187 C.3       1 <0>        -0.0779
     23 C17         6.2206   -2.4270   -3.9980 C.ar      1 <0>        -0.1312
     24 C18         5.0381   -2.5654   -3.3084 C.ar      1 <0>         0.1509
     25 N5          3.8850   -2.5862   -3.9642 N.ar      1 <0>        -0.4535
     26 C19         3.8164   -2.4754   -5.2731 C.ar      1 <0>         0.0949
     27 C20         4.9647   -2.3303   -6.0283 C.ar      1 <0>        -0.1769
     28 C21         6.1880   -2.3045   -5.3837 C.ar      1 <0>        -0.0823
     29 H3         -1.2850    1.3775    0.7241 H         1 <0>         0.1323
     30 H4          0.7683    2.7138    0.9312 H         1 <0>         0.1315
     31 H5          2.9613    1.6522    0.7744 H         1 <0>         0.1288
     32 H6         -1.1575   -1.0477    0.3484 H         1 <0>         0.1234
     33 H7          4.5183   -3.5159    0.5855 H         1 <0>         0.0791
     34 H8          3.0664   -4.4962    0.2704 H         1 <0>         0.0978
     35 H9          5.5404   -5.1620   -1.3521 H         1 <0>         0.0551
     36 H10         3.8874   -5.8157   -1.2607 H         1 <0>         0.0782
     37 H11         3.5135   -5.2023   -3.6339 H         1 <0>         0.0854
     38 H12         5.1665   -4.5485   -3.7254 H         1 <0>         0.0807
     39 H13         6.0819   -6.7856   -3.1723 H         1 <0>         0.0856
     40 H14         4.4289   -7.4394   -3.0808 H         1 <0>         0.0883
     41 H15         4.0549   -6.8259   -5.4541 H         1 <0>         0.1343
     42 H16         5.7079   -6.1721   -5.5456 H         1 <0>         0.1310
     43 H17         6.5264   -8.3466   -5.0088 H         1 <0>         0.4349
     44 H18         4.9963   -8.9518   -4.9241 H         1 <0>         0.4355
     45 H19         6.3514   -3.0179   -0.1704 H         1 <0>         0.0790
     46 H20         6.6004   -4.1037   -1.5635 H         1 <0>         0.0736
     47 H21         7.0687   -1.0897   -1.6831 H         1 <0>         0.0732
     48 H22         8.3576   -2.2664   -1.3200 H         1 <0>         0.0764
     49 H23         8.1807   -1.6261   -3.7698 H         1 <0>         0.0804
     50 H24         8.0499   -3.3694   -3.4496 H         1 <0>         0.0743
     51 H25         2.8538   -2.4984   -5.7623 H         1 <0>         0.1535
     52 H26         4.9077   -2.2375   -7.1028 H         1 <0>         0.1338
     53 H27         7.1027   -2.1926   -5.9468 H         1 <0>         0.1329
     54 H28         5.5892   -8.4093   -6.3625 H         1 <0>         0.4384
@<TRIPOS>BOND
     1    1    6 ar
     2    1    2 ar
     3    1   29 1
     4    2    3 ar
     5    2   30 1
     6    3    4 ar
     7    3   31 1
     8    4   10 1
     9    4    5 ar
    10    5    6 ar
    11    5    7 1
    12    6   32 1
    13    7    8 1
    14    7    9 1
    15    9   10 2
    16    9   11 1
    17   11   12 1
    18   11   33 1
    19   11   34 1
    20   12   13 1
    21   12   18 1
    22   13   14 1
    23   13   35 1
    24   13   36 1
    25   14   15 1
    26   14   37 1
    27   14   38 1
    28   15   16 1
    29   15   39 1
    30   15   40 1
    31   16   17 1
    32   16   41 1
    33   16   42 1
    34   17   43 1
    35   17   44 1
    36   17   54 1
    37   18   19 1
    38   18   24 1
    39   18   20 1
    40   20   21 1
    41   20   45 1
    42   20   46 1
    43   21   22 1
    44   21   47 1
    45   21   48 1
    46   22   23 1
    47   22   49 1
    48   22   50 1
    49   23   28 ar
    50   23   24 ar
    51   24   25 ar
    52   25   26 ar
    53   26   27 ar
    54   26   51 1
    55   27   28 ar
    56   27   52 1
    57   28   53 1
@<TRIPOS>MOLECULE
ZINC33359232
   55    58     0     0     0
SMALL
USER_CHARGES

@<TRIPOS>ATOM
      1 C1         -0.3263    0.8925    0.6448 C.ar      1 <0>        -0.0839
      2 C2          0.8324    1.6469    0.7641 C.ar      1 <0>        -0.1185
      3 C3          2.0608    1.0558    0.6775 C.ar      1 <0>        -0.0633
      4 C4          2.1570   -0.3224    0.4673 C.ar      1 <0>         0.0402
      5 C5          0.9843   -1.0868    0.3469 C.ar      1 <0>         0.0550
      6 C6         -0.2555   -0.4685    0.4371 C.ar      1 <0>        -0.1166
      7 N1          1.3970   -2.3893    0.1492 N.pl3     1 <0>        -0.5889
      8 H1          0.8233   -3.1622    0.0291 H         1 <0>         0.4240
      9 C7          2.7573   -2.3877    0.1536 C.2       1 <0>         0.2599
     10 N2          3.2025   -1.1794    0.3396 N.2       1 <0>        -0.4806
     11 C8          3.6226   -3.6079   -0.0296 C.3       1 <0>         0.1345
     12 N3          4.0093   -3.7263   -1.4418 N.3       1 <0>        -0.5444
     13 C9          4.5256   -5.0699   -1.7354 C.3       1 <0>         0.0294
     14 C10         4.5315   -5.2945   -3.2488 C.3       1 <0>        -0.1280
     15 C11         5.0691   -6.6939   -3.5546 C.3       1 <0>        -0.1541
     16 C12         5.0751   -6.9186   -5.0680 C.3       1 <0>        -0.0083
     17 N4          5.5913   -8.2622   -5.3616 N.4       1 <0>        -0.6387
     18 C13         4.9888   -2.6944   -1.8077 C.3       1 <0>         0.0854
     19 H2          4.6858   -1.7414   -1.3741 H         1 <0>         0.1519
     20 C14         6.3597   -3.0842   -1.2590 C.3       1 <0>        -0.1521
     21 C15         7.4032   -2.1153   -1.8274 C.3       1 <0>        -0.1284
     22 C16         7.5620   -2.4010   -3.3198 C.3       1 <0>        -0.0894
     23 C17         6.2191   -2.4256   -3.9986 C.ar      1 <0>        -0.0793
     24 C18         5.0369   -2.5647   -3.3086 C.ar      1 <0>         0.1848
     25 N5          3.8835   -2.5860   -3.9640 N.ar      1 <0>        -0.4378
     26 C19         3.8145   -2.4750   -5.2729 C.ar      1 <0>         0.1282
     27 C20         4.9624   -2.3292   -6.0284 C.ar      1 <0>        -0.1288
     28 C21         6.1860   -2.3030   -5.3843 C.ar      1 <0>        -0.0024
     29 H3         -1.2900    1.3742    0.7196 H         1 <0>         0.1385
     30 H4          0.7621    2.7123    0.9266 H         1 <0>         0.1375
     31 H5          2.9561    1.6525    0.7711 H         1 <0>         0.1325
     32 H6         -1.1603   -1.0511    0.3454 H         1 <0>         0.1278
     33 H7          4.5175   -3.5144    0.5856 H         1 <0>         0.0945
     34 H8          3.0665   -4.4960    0.2705 H         1 <0>         0.1121
     35 H9          5.5413   -5.1610   -1.3506 H         1 <0>         0.0759
     36 H10         3.8886   -5.8158   -1.2599 H         1 <0>         0.0998
     37 H11         3.5157   -5.2035   -3.6336 H         1 <0>         0.0810
     38 H12         5.1684   -4.5487   -3.7244 H         1 <0>         0.0633
     39 H13         6.0849   -6.7850   -3.1698 H         1 <0>         0.0954
     40 H14         4.4322   -7.4398   -3.0791 H         1 <0>         0.0994
     41 H15         4.0593   -6.8275   -5.4528 H         1 <0>         0.1340
     42 H16         5.7120   -6.1727   -5.5436 H         1 <0>         0.1284
     43 H17         5.0017   -8.9526   -4.9214 H         1 <0>         0.4399
     44 H18         5.5952   -8.4103   -6.3597 H         1 <0>         0.4432
     45 H19         6.3515   -3.0170   -0.1712 H         1 <0>         0.1012
     46 H20         6.6005   -4.1025   -1.5644 H         1 <0>         0.0857
     47 H21         7.0674   -1.0883   -1.6838 H         1 <0>         0.0834
     48 H22         8.3570   -2.2644   -1.3213 H         1 <0>         0.0980
     49 H23         8.1789   -1.6239   -3.7710 H         1 <0>         0.1088
     50 H24         8.0491   -3.3673   -3.4510 H         1 <0>         0.1018
     51 H25         2.8517   -2.4984   -5.7617 H         1 <0>         0.2101
     52 H26         4.9049   -2.2364   -7.1029 H         1 <0>         0.1883
     53 H27         7.1004   -2.1906   -5.9477 H         1 <0>         0.1785
     54 H28         6.5315   -8.3465   -5.0054 H         1 <0>         0.4384
     55 H29         3.0612   -2.6874   -3.4596 H         1 <0>         0.4529
@<TRIPOS>BOND
     1    1    6 ar
     2    1    2 ar
     3    1   29 1
     4    2    3 ar
     5    2   30 1
     6    3    4 ar
     7    3   31 1
     8    4   10 1
     9    4    5 ar
    10    5    6 ar
    11    5    7 1
    12    6   32 1
    13    7    8 1
    14    7    9 1
    15    9   10 2
    16    9   11 1
    17   11   12 1
    18   11   33 1
    19   11   34 1
    20   12   13 1
    21   12   18 1
    22   13   14 1
    23   13   35 1
    24   13   36 1
    25   14   15 1
    26   14   37 1
    27   14   38 1
    28   15   16 1
    29   15   39 1
    30   15   40 1
    31   16   17 1
    32   16   41 1
    33   16   42 1
    34   17   43 1
    35   17   44 1
    36   17   54 1
    37   18   19 1
    38   18   24 1
    39   18   20 1
    40   20   21 1
    41   20   45 1
    42   20   46 1
    43   21   22 1
    44   21   47 1
    45   21   48 1
    46   22   23 1
    47   22   49 1
    48   22   50 1
    49   23   28 ar
    50   23   24 ar
    51   24   25 ar
    52   25   26 ar
    53   25   55 1
    54   26   27 ar
    55   26   51 1
    56   27   28 ar
    57   27   52 1
    58   28   53 1
@<TRIPOS>MOLECULE
ZINC22443609
   93    95     0     0     0
SMALL
USER_CHARGES

@<TRIPOS>ATOM
      1 C1         -0.0167    1.3781    0.0096 C.ar      1 <0>        -0.0955
      2 C2          1.1709    2.0855    0.0021 C.ar      1 <0>        -0.0934
      3 C3          2.3773    1.4107   -0.0130 C.ar      1 <0>        -0.1579
      4 C4          2.3960    0.0285   -0.0201 C.ar      1 <0>        -0.0881
      5 C5          1.2085   -0.6789   -0.0117 C.ar      1 <0>        -0.1026
      6 C6          0.0021   -0.0041    0.0020 C.ar      1 <0>        -0.0409
      7 C7         -1.2926   -0.7753    0.0107 C.3       1 <0>         0.0794
      8 N1         -1.7270   -1.0184   -1.3714 N.3       1 <0>        -0.5332
      9 C8         -3.0940   -1.5550   -1.4069 C.3       1 <0>         0.0419
     10 C9         -4.0830   -0.4150   -1.6584 C.3       1 <0>        -0.1436
     11 C10        -5.0537   -0.8180   -2.7703 C.3       1 <0>        -0.0140
     12 N2         -5.1326    0.2595   -3.7657 N.4       1 <0>        -0.5101
     13 C11        -5.0625   -0.3152   -5.1158 C.3       1 <0>        -0.0297
     14 C12        -4.1553    0.5507   -5.9922 C.3       1 <0>         0.0341
     15 N3         -3.2191   -0.3097   -6.7280 N.3       1 <0>        -0.6789
     16 C13        -1.8495    0.2160   -6.6512 C.3       1 <0>         0.0531
     17 C14        -0.8820   -0.9260   -6.3339 C.3       1 <0>        -0.1537
     18 C15         0.0784   -0.4878   -5.2264 C.3       1 <0>         0.0588
     19 N4          0.2449   -1.5826   -4.2612 N.3       1 <0>        -0.6897
     20 C16         0.1998   -1.0797   -2.8817 C.3       1 <0>         0.0645
     21 C17        -0.7922   -1.9127   -2.0674 C.3       1 <0>         0.0274
     22 C18         3.6720    2.1819   -0.0222 C.3       1 <0>         0.0393
     23 N5          4.1064    2.4260    1.3597 N.4       1 <0>        -0.3837
     24 C19         5.3024    3.2789    1.3536 C.3       1 <0>        -0.0180
     25 C20         4.9021    4.7209    1.6718 C.3       1 <0>        -0.1456
     26 C21         5.8648    5.3001    2.7104 C.3       1 <0>         0.0482
     27 N6          5.0965    5.8947    3.8123 N.3       1 <0>        -0.6955
     28 C22         5.6432    5.4892    5.1141 C.3       1 <0>         0.0265
     29 C23         4.4949    5.1429    6.0640 C.3       1 <0>        -0.0150
     30 N7          4.7901    3.8769    6.7481 N.4       1 <0>        -0.5116
     31 C24         3.5977    3.0191    6.7267 C.3       1 <0>        -0.0134
     32 C25         3.9997    1.5968    6.3313 C.3       1 <0>        -0.1659
     33 C26         3.0177    1.0608    5.2876 C.3       1 <0>         0.0514
     34 N8          3.7600    0.3607    4.2308 N.3       1 <0>        -0.6768
     35 C27         3.2528    0.7253    2.9012 C.3       1 <0>         0.0395
     36 C28         4.4213    1.1457    2.0074 C.3       1 <0>        -0.0361
     37 H1         -0.9591    1.9053    0.0259 H         1 <0>         0.1319
     38 H2          1.1563    3.1654    0.0076 H         1 <0>         0.1299
     39 H3          3.3385   -0.4987   -0.0326 H         1 <0>         0.1322
     40 H4          1.2231   -1.7588   -0.0179 H         1 <0>         0.1341
     41 H5         -1.1443   -1.7285    0.5180 H         1 <0>         0.0599
     42 H6         -2.0551   -0.1993    0.5352 H         1 <0>         0.0917
     43 H7         -3.1753   -2.2898   -2.2079 H         1 <0>         0.0812
     44 H8         -3.3226   -2.0305   -0.4531 H         1 <0>         0.0694
     45 H9         -4.6415   -0.2103   -0.7450 H         1 <0>         0.1006
     46 H10        -3.5375    0.4796   -1.9589 H         1 <0>         0.0957
     47 H11        -4.6987   -1.7302   -3.2496 H         1 <0>         0.1306
     48 H12        -6.0419   -0.9922   -2.3444 H         1 <0>         0.1392
     49 H13        -6.0044    0.7555   -3.6561 H         1 <0>         0.4356
     50 H14        -4.6572   -1.3255   -5.0601 H         1 <0>         0.1309
     51 H15        -6.0622   -0.3481   -5.5490 H         1 <0>         0.1464
     52 H16        -4.7636    1.1141   -6.6997 H         1 <0>         0.1116
     53 H17        -3.5951    1.2425   -5.3631 H         1 <0>         0.0652
     54 H18        -3.2610   -1.2601   -6.3918 H         1 <0>         0.3463
     55 H19        -1.5792    0.6664   -7.6063 H         1 <0>         0.0891
     56 H20        -1.7930    0.9691   -5.8653 H         1 <0>         0.0515
     57 H21        -1.4455   -1.7981   -6.0022 H         1 <0>         0.0687
     58 H22        -0.3133   -1.1796   -7.2286 H         1 <0>         0.0879
     59 H23         1.0456   -0.2374   -5.6622 H         1 <0>         0.0781
     60 H24        -0.3282    0.3863   -4.7177 H         1 <0>         0.0452
     61 H25        -0.4479   -2.3016   -4.4068 H         1 <0>         0.3406
     62 H26         1.1909   -1.1557   -2.4347 H         1 <0>         0.0703
     63 H27        -0.1182   -0.0371   -2.8853 H         1 <0>         0.0622
     64 H28        -0.2494   -2.5114   -1.3360 H         1 <0>         0.0599
     65 H29        -1.3481   -2.5708   -2.7352 H         1 <0>         0.0755
     66 H30         4.4344    1.6056   -0.5463 H         1 <0>         0.1407
     67 H31         3.5237    3.1349   -0.5302 H         1 <0>         0.1396
     68 H32         6.0064    2.9229    2.1057 H         1 <0>         0.1280
     69 H33         5.7710    3.2405    0.3702 H         1 <0>         0.1401
     70 H34         4.9462    5.3195    0.7619 H         1 <0>         0.1052
     71 H35         3.8870    4.7371    2.0685 H         1 <0>         0.0959
     72 H36         6.5014    4.5051    3.0988 H         1 <0>         0.0754
     73 H37         6.4841    6.0665    2.2443 H         1 <0>         0.0782
     74 H38         5.0655    6.8999    3.7304 H         1 <0>         0.3734
     75 H39         6.2826    4.6161    4.9836 H         1 <0>         0.0836
     76 H40         6.2275    6.3081    5.5338 H         1 <0>         0.0910
     77 H41         4.3819    5.9370    6.8021 H         1 <0>         0.1404
     78 H42         3.5707    5.0415    5.4950 H         1 <0>         0.1408
     79 H43         5.5496    3.4090    6.2766 H         1 <0>         0.4191
     80 H44         3.1419    3.0059    7.7167 H         1 <0>         0.1435
     81 H45         2.8825    3.4092    6.0026 H         1 <0>         0.1318
     82 H46         5.0058    1.6069    5.9120 H         1 <0>         0.0851
     83 H47         3.9796    0.9553    7.2123 H         1 <0>         0.1162
     84 H48         2.3235    0.3684    5.7638 H         1 <0>         0.1015
     85 H49         2.4615    1.8909    4.8520 H         1 <0>         0.0580
     86 H50         4.7498    0.5429    4.3028 H         1 <0>         0.3465
     87 H51         2.7463   -0.1320    2.4579 H         1 <0>         0.1138
     88 H52         2.5507    1.5538    2.9948 H         1 <0>         0.0700
     89 H53         4.5880    0.3843    1.2454 H         1 <0>         0.1424
     90 H54         5.3206    1.2565    2.6132 H         1 <0>         0.1293
     91 H55         3.3670    2.8873    1.8682 H         1 <0>         0.4166
     92 H56        -4.3631    0.8982   -3.6317 H         1 <0>         0.4218
     93 H57         5.0524    4.0644    7.7042 H         1 <0>         0.4398
@<TRIPOS>BOND
     1    1    6 ar
     2    1    2 ar
     3    1   37 1
     4    2    3 ar
     5    2   38 1
     6    3    4 ar
     7    3   22 1
     8    4    5 ar
     9    4   39 1
    10    5    6 ar
    11    5   40 1
    12    6    7 1
    13    7    8 1
    14    7   41 1
    15    7   42 1
    16    8   21 1
    17    8    9 1
    18    9   10 1
    19    9   43 1
    20    9   44 1
    21   10   11 1
    22   10   45 1
    23   10   46 1
    24   11   12 1
    25   11   47 1
    26   11   48 1
    27   12   13 1
    28   12   49 1
    29   12   92 1
    30   13   14 1
    31   13   50 1
    32   13   51 1
    33   14   15 1
    34   14   52 1
    35   14   53 1
    36   15   16 1
    37   15   54 1
    38   16   17 1
    39   16   55 1
    40   16   56 1
    41   17   18 1
    42   17   57 1
    43   17   58 1
    44   18   19 1
    45   18   59 1
    46   18   60 1
    47   19   20 1
    48   19   61 1
    49   20   21 1
    50   20   62 1
    51   20   63 1
    52   21   64 1
    53   21   65 1
    54   22   23 1
    55   22   66 1
    56   22   67 1
    57   23   36 1
    58   23   24 1
    59   23   91 1
    60   24   25 1
    61   24   68 1
    62   24   69 1
    63   25   26 1
    64   25   70 1
    65   25   71 1
    66   26   27 1
    67   26   72 1
    68   26   73 1
    69   27   28 1
    70   27   74 1
    71   28   29 1
    72   28   75 1
    73   28   76 1
    74   29   30 1
    75   29   77 1
    76   29   78 1
    77   30   31 1
    78   30   79 1
    79   30   93 1
    80   31   32 1
    81   31   80 1
    82   31   81 1
    83   32   33 1
    84   32   82 1
    85   32   83 1
    86   33   34 1
    87   33   84 1
    88   33   85 1
    89   34   35 1
    90   34   86 1
    91   35   36 1
    92   35   87 1
    93   35   88 1
    94   36   89 1
    95   36   90 1
@<TRIPOS>MOLECULE
ZINC28863086
   41    43     0     0     0
SMALL
USER_CHARGES
N-[[4-[(2-pyridylamino)methyl]phenyl]methyl]pyridin-2-amine
@<TRIPOS>ATOM
      1 C1         -1.2206    1.7609    0.0174 C.ar      1 <0>         0.0348
      2 C2         -0.0126    1.0758    0.0080 C.ar      1 <0>        -0.1778
      3 C3          1.1691    1.7890    0.0005 C.ar      1 <0>         0.1541
      4 N1          1.1632    3.1087    0.0073 N.ar      1 <0>        -0.5223
      5 C4          0.0327    3.7978    0.0218 C.ar      1 <0>         0.4469
      6 C5         -1.1952    3.1436    0.0304 C.ar      1 <0>        -0.2049
      7 N2          0.0730    5.1872    0.0289 N.pl3     1 <0>        -0.7100
      8 C6         -1.1739    5.9561    0.0450 C.3       1 <0>         0.1593
      9 C7         -0.8557    7.4291    0.0499 C.ar      1 <0>        -0.1244
     10 C8         -0.7039    8.0995    1.2493 C.ar      1 <0>        -0.0947
     11 C9         -0.4081    9.4498    1.2537 C.ar      1 <0>        -0.0980
     12 C10        -0.2723   10.1316    0.0589 C.ar      1 <0>        -0.0783
     13 C11        -0.4292    9.4624   -1.1404 C.ar      1 <0>        -0.0980
     14 C12        -0.7212    8.1112   -1.1449 C.ar      1 <0>        -0.0947
     15 C13         0.0465   11.6045    0.0638 C.3       1 <0>         0.1674
     16 N3         -1.2002   12.3738    0.0791 N.pl3     1 <0>        -0.7366
     17 C14        -1.1594   13.7632    0.0861 C.ar      1 <0>         0.4024
     18 C15         0.0689   14.4170    0.0843 C.ar      1 <0>        -0.2448
     19 C16         0.0947   15.7997    0.0865 C.ar      1 <0>        -0.0321
     20 C17        -1.1131   16.4852    0.1009 C.ar      1 <0>        -0.2323
     21 C18        -2.2950   15.7724    0.1074 C.ar      1 <0>         0.1505
     22 N4         -2.2895   14.4527    0.0999 N.ar      1 <0>        -0.5455
     23 H1         -2.1588    1.2259    0.0188 H         1 <0>         0.1711
     24 H2          0.0021   -0.0041    0.0020 H         1 <0>         0.1778
     25 H3          2.1107    1.2603   -0.0114 H         1 <0>         0.2032
     26 H4         -2.1160    3.7079    0.0419 H         1 <0>         0.1737
     27 H5          1.0411    5.7094    0.0224 H         1 <0>         0.4443
     28 H6         -1.7667    5.7120   -0.8488 H         1 <0>         0.0947
     29 H7         -1.7496    5.7023    0.9473 H         1 <0>         0.0947
     30 H8         -0.8133    7.5675    2.1828 H         1 <0>         0.1284
     31 H9         -0.2858    9.9727    2.1908 H         1 <0>         0.1324
     32 H10        -0.3235    9.9951   -2.0739 H         1 <0>         0.1324
     33 H11        -0.8438    7.5884   -2.0820 H         1 <0>         0.1284
     34 H12         0.6390   11.8484    0.9579 H         1 <0>         0.0730
     35 H13         0.6228   11.8580   -0.8382 H         1 <0>         0.0730
     36 H14        -2.1685   11.8519    0.0850 H         1 <0>         0.4258
     37 H15         0.9895   13.8523    0.0774 H         1 <0>         0.1270
     38 H16         1.0331   16.3344    0.0812 H         1 <0>         0.1331
     39 H17        -1.1273   17.5651    0.1075 H         1 <0>         0.1335
     40 H18        -3.2364   16.3015    0.1183 H         1 <0>         0.1570
     41 H19         2.1133    3.6630    0.0009 H         1 <0>         0.4752
@<TRIPOS>BOND
     1    1    6 ar
     2    1    2 ar
     3    1   23 1
     4    2    3 ar
     5    2   24 1
     6    3    4 ar
     7    3   25 1
     8    4    5 ar
     9    4   41 1
    10    5    6 ar
    11    5    7 1
    12    6   26 1
    13    7    8 1
    14    7   27 1
    15    8    9 1
    16    8   28 1
    17    8   29 1
    18    9   14 ar
    19    9   10 ar
    20   10   11 ar
    21   10   30 1
    22   11   12 ar
    23   11   31 1
    24   12   13 ar
    25   12   15 1
    26   13   14 ar
    27   13   32 1
    28   14   33 1
    29   15   16 1
    30   15   34 1
    31   15   35 1
    32   16   17 1
    33   16   36 1
    34   17   22 ar
    35   17   18 ar
    36   18   19 ar
    37   18   37 1
    38   19   20 ar
    39   19   38 1
    40   20   21 ar
    41   20   39 1
    42   21   22 ar
    43   21   40 1
@<TRIPOS>MOLECULE
ZINC28863086
   42    44     0     0     0
SMALL
USER_CHARGES
N-[[4-[(2-pyridylamino)methyl]phenyl]methyl]pyridin-2-amine
@<TRIPOS>ATOM
      1 C1         -1.2206    1.7609    0.0174 C.ar      1 <0>         0.0375
      2 C2         -0.0126    1.0758    0.0080 C.ar      1 <0>        -0.1729
      3 C3          1.1691    1.7890    0.0005 C.ar      1 <0>         0.1563
      4 N1          1.1632    3.1087    0.0073 N.ar      1 <0>        -0.5197
      5 C4          0.0327    3.7978    0.0218 C.ar      1 <0>         0.4452
      6 C5         -1.1952    3.1436    0.0304 C.ar      1 <0>        -0.2053
      7 N2          0.0730    5.1872    0.0289 N.pl3     1 <0>        -0.7168
      8 C6         -1.1739    5.9561    0.0450 C.3       1 <0>         0.1561
      9 C7         -0.8557    7.4291    0.0499 C.ar      1 <0>        -0.1054
     10 C8         -0.7039    8.0995    1.2493 C.ar      1 <0>        -0.0936
     11 C9         -0.4081    9.4498    1.2537 C.ar      1 <0>        -0.0937
     12 C10        -0.2723   10.1316    0.0589 C.ar      1 <0>        -0.1053
     13 C11        -0.4292    9.4624   -1.1404 C.ar      1 <0>        -0.0937
     14 C12        -0.7212    8.1112   -1.1449 C.ar      1 <0>        -0.0937
     15 C13         0.0465   11.6045    0.0638 C.3       1 <0>         0.1560
     16 N3         -1.2002   12.3738    0.0791 N.pl3     1 <0>        -0.7168
     17 C14        -1.1594   13.7632    0.0861 C.ar      1 <0>         0.4478
     18 C15         0.0689   14.4170    0.0843 C.ar      1 <0>        -0.2053
     19 C16         0.0947   15.7997    0.0865 C.ar      1 <0>         0.0374
     20 C17        -1.1131   16.4852    0.1009 C.ar      1 <0>        -0.1731
     21 C18        -2.2950   15.7724    0.1074 C.ar      1 <0>         0.1538
     22 N4         -2.2895   14.4527    0.0999 N.ar      1 <0>        -0.5204
     23 H1         -2.1588    1.2259    0.0188 H         1 <0>         0.1731
     24 H2          0.0021   -0.0041    0.0020 H         1 <0>         0.1806
     25 H3          2.1107    1.2603   -0.0114 H         1 <0>         0.2058
     26 H4         -2.1160    3.7079    0.0419 H         1 <0>         0.1731
     27 H5          1.0411    5.7094    0.0224 H         1 <0>         0.4433
     28 H6         -1.7667    5.7120   -0.8488 H         1 <0>         0.0963
     29 H7         -1.7496    5.7023    0.9473 H         1 <0>         0.0964
     30 H8         -0.8133    7.5675    2.1828 H         1 <0>         0.1340
     31 H9         -0.2858    9.9727    2.1908 H         1 <0>         0.1340
     32 H10        -0.3235    9.9951   -2.0739 H         1 <0>         0.1340
     33 H11        -0.8438    7.5884   -2.0820 H         1 <0>         0.1340
     34 H12         0.6390   11.8484    0.9579 H         1 <0>         0.0964
     35 H13         0.6228   11.8580   -0.8382 H         1 <0>         0.0963
     36 H14        -2.1685   11.8519    0.0850 H         1 <0>         0.4435
     37 H15         0.9895   13.8523    0.0774 H         1 <0>         0.1734
     38 H16         1.0331   16.3344    0.0812 H         1 <0>         0.1731
     39 H17        -1.1273   17.5651    0.1075 H         1 <0>         0.1803
     40 H18        -3.2364   16.3015    0.1183 H         1 <0>         0.2060
     41 H19         2.1133    3.6630    0.0009 H         1 <0>         0.4757
     42 H20        -3.2552   13.9259    0.1054 H         1 <0>         0.4765
@<TRIPOS>BOND
     1    1    6 ar
     2    1    2 ar
     3    1   23 1
     4    2    3 ar
     5    2   24 1
     6    3    4 ar
     7    3   25 1
     8    4    5 ar
     9    4   41 1
    10    5    6 ar
    11    5    7 1
    12    6   26 1
    13    7    8 1
    14    7   27 1
    15    8    9 1
    16    8   28 1
    17    8   29 1
    18    9   14 ar
    19    9   10 ar
    20   10   11 ar
    21   10   30 1
    22   11   12 ar
    23   11   31 1
    24   12   13 ar
    25   12   15 1
    26   13   14 ar
    27   13   32 1
    28   14   33 1
    29   15   16 1
    30   15   34 1
    31   15   35 1
    32   16   17 1
    33   16   36 1
    34   17   22 ar
    35   17   18 ar
    36   18   19 ar
    37   18   37 1
    38   19   20 ar
    39   19   38 1
    40   20   21 ar
    41   20   39 1
    42   21   22 ar
    43   21   40 1
    44   22   42 1
@<TRIPOS>MOLECULE
ZINC28863086
   40    42     0     0     0
SMALL
USER_CHARGES
N-[[4-[(2-pyridylamino)methyl]phenyl]methyl]pyridin-2-amine
@<TRIPOS>ATOM
      1 C1         -1.2206    1.7609    0.0174 C.ar      1 <0>        -0.0325
      2 C2         -0.0126    1.0758    0.0080 C.ar      1 <0>        -0.2388
      3 C3          1.1691    1.7890    0.0005 C.ar      1 <0>         0.1499
      4 N1          1.1632    3.1087    0.0073 N.ar      1 <0>        -0.5474
      5 C4          0.0327    3.7978    0.0218 C.ar      1 <0>         0.4058
      6 C5         -1.1952    3.1436    0.0304 C.ar      1 <0>        -0.2457
      7 N2          0.0730    5.1872    0.0289 N.pl3     1 <0>        -0.7330
      8 C6         -1.1739    5.9561    0.0450 C.3       1 <0>         0.1716
      9 C7         -0.8557    7.4291    0.0499 C.ar      1 <0>        -0.0973
     10 C8         -0.7039    8.0995    1.2493 C.ar      1 <0>        -0.0992
     11 C9         -0.4081    9.4498    1.2537 C.ar      1 <0>        -0.0992
     12 C10        -0.2723   10.1316    0.0589 C.ar      1 <0>        -0.0973
     13 C11        -0.4292    9.4624   -1.1404 C.ar      1 <0>        -0.0992
     14 C12        -0.7212    8.1112   -1.1449 C.ar      1 <0>        -0.0993
     15 C13         0.0465   11.6045    0.0638 C.3       1 <0>         0.1715
     16 N3         -1.2002   12.3738    0.0791 N.pl3     1 <0>        -0.7330
     17 C14        -1.1594   13.7632    0.0861 C.ar      1 <0>         0.4059
     18 C15         0.0689   14.4170    0.0843 C.ar      1 <0>        -0.2456
     19 C16         0.0947   15.7997    0.0865 C.ar      1 <0>        -0.0325
     20 C17        -1.1131   16.4852    0.1009 C.ar      1 <0>        -0.2388
     21 C18        -2.2950   15.7724    0.1074 C.ar      1 <0>         0.1499
     22 N4         -2.2895   14.4527    0.0999 N.ar      1 <0>        -0.5475
     23 H1         -2.1588    1.2259    0.0188 H         1 <0>         0.1311
     24 H2          0.0021   -0.0041    0.0020 H         1 <0>         0.1306
     25 H3          2.1107    1.2603   -0.0114 H         1 <0>         0.1545
     26 H4         -2.1160    3.7079    0.0419 H         1 <0>         0.1281
     27 H5          1.0411    5.7094    0.0224 H         1 <0>         0.4268
     28 H6         -1.7667    5.7120   -0.8488 H         1 <0>         0.0708
     29 H7         -1.7496    5.7023    0.9473 H         1 <0>         0.0708
     30 H8         -0.8133    7.5675    2.1828 H         1 <0>         0.1266
     31 H9         -0.2858    9.9727    2.1908 H         1 <0>         0.1266
     32 H10        -0.3235    9.9951   -2.0739 H         1 <0>         0.1266
     33 H11        -0.8438    7.5884   -2.0820 H         1 <0>         0.1266
     34 H12         0.6390   11.8484    0.9579 H         1 <0>         0.0708
     35 H13         0.6228   11.8580   -0.8382 H         1 <0>         0.0708
     36 H14        -2.1685   11.8519    0.0850 H         1 <0>         0.4268
     37 H15         0.9895   13.8523    0.0774 H         1 <0>         0.1281
     38 H16         1.0331   16.3344    0.0812 H         1 <0>         0.1311
     39 H17        -1.1273   17.5651    0.1075 H         1 <0>         0.1306
     40 H18        -3.2364   16.3015    0.1183 H         1 <0>         0.1545
@<TRIPOS>BOND
     1    1    6 ar
     2    1    2 ar
     3    1   23 1
     4    2    3 ar
     5    2   24 1
     6    3    4 ar
     7    3   25 1
     8    4    5 ar
     9    5    6 ar
    10    5    7 1
    11    6   26 1
    12    7    8 1
    13    7   27 1
    14    8    9 1
    15    8   28 1
    16    8   29 1
    17    9   14 ar
    18    9   10 ar
    19   10   11 ar
    20   10   30 1
    21   11   12 ar
    22   11   31 1
    23   12   13 ar
    24   12   15 1
    25   13   14 ar
    26   13   32 1
    27   14   33 1
    28   15   16 1
    29   15   34 1
    30   15   35 1
    31   16   17 1
    32   16   36 1
    33   17   22 ar
    34   17   18 ar
    35   18   19 ar
    36   18   37 1
    37   19   20 ar
    38   19   38 1
    39   20   21 ar
    40   20   39 1
    41   21   22 ar
    42   21   40 1
@<TRIPOS>MOLECULE
ZINC53276053
   63    66     0     0     0
SMALL
USER_CHARGES

@<TRIPOS>ATOM
      1 C1          1.7988    4.4420    0.8986 C.3       1 <0>        -0.1681
      2 C2          2.0248    3.0890    0.2209 C.3       1 <0>         0.1484
      3 C3          2.3149    2.0031    1.2664 C.3       1 <0>         0.0688
      4 N1          1.2121    1.0122    1.1155 N.pl3     1 <0>        -0.4647
      5 C4          0.9151   -0.1447    1.7387 C.2       1 <0>         0.0692
      6 C5         -0.1857   -0.8146    1.3487 C.2       1 <0>        -0.1533
      7 S1         -0.7876    0.2608    0.0597 S.3       1 <0>         0.4001
      8 C6          0.4175    1.4327    0.1594 C.cat     1 <0>         0.3011
      9 N2          0.7922    2.6238   -0.4275 N.pl3     1 <0>        -0.6136
     10 C7          1.7919   -0.6749    2.8438 C.3       1 <0>        -0.0847
     11 S2          1.2132   -0.0293    4.4372 S.3       1 <0>         0.0598
     12 C8          2.4177   -0.5984    5.5905 C.cat     1 <0>         0.4968
     13 N3          2.3683   -0.1943    6.8598 N.pl3     1 <0>        -0.5668
     14 C9          3.4000   -0.6252    7.8064 C.3       1 <0>         0.1027
     15 C10         2.8770   -1.8044    8.6291 C.3       1 <0>        -0.1329
     16 C11         3.9545   -2.2544    9.6177 C.3       1 <0>        -0.1172
     17 C12         4.3045   -1.0953   10.5531 C.3       1 <0>        -0.1319
     18 C13         4.8276    0.0839    9.7304 C.3       1 <0>        -0.1175
     19 C14         3.7500    0.5339    8.7418 C.3       1 <0>        -0.1317
     20 N4          3.3784   -1.4329    5.1936 N.pl3     1 <0>        -0.7313
     21 C15         3.0269   -2.7282    4.6063 C.3       1 <0>         0.1341
     22 C16         3.0557   -3.8054    5.6924 C.3       1 <0>        -0.1365
     23 C17         2.6886   -5.1581    5.0789 C.3       1 <0>        -0.1191
     24 C18         3.6963   -5.5115    3.9832 C.3       1 <0>        -0.1312
     25 C19         3.6675   -4.4343    2.8971 C.3       1 <0>        -0.1180
     26 C20         4.0346   -3.0816    3.5106 C.3       1 <0>        -0.1337
     27 C21         3.1681    3.1803   -0.7917 C.3       1 <0>        -0.1684
     28 H1          2.6909    4.7210    1.4593 H         1 <0>         0.0982
     29 H2          1.5946    5.1983    0.1408 H         1 <0>         0.0930
     30 H3          0.9498    4.3705    1.5785 H         1 <0>         0.0745
     31 H4          3.2770    1.5319    1.0653 H         1 <0>         0.1336
     32 H5          2.3063    2.4312    2.2688 H         1 <0>         0.1321
     33 H6         -0.5917   -1.7459    1.7149 H         1 <0>         0.2489
     34 H7          1.7448   -1.7638    2.8543 H         1 <0>         0.1569
     35 H8          2.8209   -0.3573    2.6752 H         1 <0>         0.1355
     36 H9          4.2910   -0.9314    7.2582 H         1 <0>         0.1125
     37 H10         1.9860   -1.4981    9.1773 H         1 <0>         0.0838
     38 H11         2.6276   -2.6301    7.9627 H         1 <0>         0.0786
     39 H12         3.5818   -3.0944   10.2038 H         1 <0>         0.0842
     40 H13         4.8454   -2.5606    9.0695 H         1 <0>         0.0700
     41 H14         3.4135   -0.7890   11.1013 H         1 <0>         0.0714
     42 H15         5.0721   -1.4159   11.2574 H         1 <0>         0.0803
     43 H16         5.0769    0.9096   10.3968 H         1 <0>         0.0853
     44 H17         5.7185   -0.2223    9.1822 H         1 <0>         0.0708
     45 H18         4.1227    1.3740    8.1557 H         1 <0>         0.0789
     46 H19         2.8591    0.8401    9.2900 H         1 <0>         0.0852
     47 H20         4.3102   -1.1826    5.2938 H         1 <0>         0.4326
     48 H21         2.0269   -2.6727    4.1760 H         1 <0>         0.0964
     49 H22         4.0557   -3.8609    6.1226 H         1 <0>         0.0833
     50 H23         2.3378   -3.5536    6.4730 H         1 <0>         0.0731
     51 H24         2.7092   -5.9255    5.8527 H         1 <0>         0.0825
     52 H25         1.6887   -5.1026    4.6487 H         1 <0>         0.0690
     53 H26         4.6963   -5.5670    4.4134 H         1 <0>         0.0713
     54 H27         3.4348   -6.4752    3.5462 H         1 <0>         0.0791
     55 H28         4.3854   -4.6860    2.1165 H         1 <0>         0.0828
     56 H29         2.6675   -4.3788    2.4669 H         1 <0>         0.0678
     57 H30         4.0140   -2.3141    2.7368 H         1 <0>         0.0711
     58 H31         5.0346   -3.1371    3.9408 H         1 <0>         0.0867
     59 H32         4.0864    3.4649   -0.2782 H         1 <0>         0.0989
     60 H33         3.3058    2.2118   -1.2725 H         1 <0>         0.0752
     61 H34         2.9265    3.9293   -1.5459 H         1 <0>         0.0927
     62 H35         0.3221    3.0763   -1.1453 H         1 <0>         0.4632
     63 H36         1.6491    0.3850    7.1567 H         1 <0>         0.4405
@<TRIPOS>BOND
     1    1    2 1
     2    1   28 1
     3    1   29 1
     4    1   30 1
     5    2    3 1
     6    2   27 1
     7    2    9 1
     8    3   31 1
     9    3   32 1
    10    3    4 1
    11    4    8 2
    12    4    5 1
    13    5   10 1
    14    5    6 2
    15    6   33 1
    16    6    7 1
    17    7    8 1
    18    8    9 1
    19    9   62 1
    20   10   11 1
    21   10   34 1
    22   10   35 1
    23   11   12 1
    24   12   13 2
    25   12   20 1
    26   13   14 1
    27   13   63 1
    28   14   19 1
    29   14   15 1
    30   14   36 1
    31   15   16 1
    32   15   37 1
    33   15   38 1
    34   16   17 1
    35   16   39 1
    36   16   40 1
    37   17   18 1
    38   17   41 1
    39   17   42 1
    40   18   19 1
    41   18   43 1
    42   18   44 1
    43   19   45 1
    44   19   46 1
    45   20   21 1
    46   20   47 1
    47   21   26 1
    48   21   22 1
    49   21   48 1
    50   22   23 1
    51   22   49 1
    52   22   50 1
    53   23   24 1
    54   23   51 1
    55   23   52 1
    56   24   25 1
    57   24   53 1
    58   24   54 1
    59   25   26 1
    60   25   55 1
    61   25   56 1
    62   26   57 1
    63   26   58 1
    64   27   59 1
    65   27   60 1
    66   27   61 1
@<TRIPOS>MOLECULE
ZINC19361903
   71    73     0     0     0
SMALL
USER_CHARGES
1-(2-pyridyl)-N-[[4-(1,4,8,11-tetrazacyclotetradec-1-ylmethyl)phenyl]methyl]methanamine
@<TRIPOS>ATOM
      1 C1        -11.4054    3.1741    2.2048 C.ar      1 <0>        -0.0665
      2 C2        -11.2690    3.9420    3.3515 C.ar      1 <0>        -0.1290
      3 C3        -10.2341    3.6691    4.2255 C.ar      1 <0>         0.1112
      4 N1         -9.3858    2.6891    3.9816 N.ar      1 <0>        -0.4692
      5 C4         -9.4819    1.9422    2.8993 C.ar      1 <0>         0.0421
      6 C5        -10.4915    2.1563    1.9798 C.ar      1 <0>        -0.1427
      7 C6         -8.4831    0.8382    2.6651 C.3       1 <0>         0.0643
      8 N2         -7.2911    1.3881    2.0058 N.4       1 <0>        -0.5354
      9 C7         -6.2933    0.3381    1.7611 C.3       1 <0>         0.0398
     10 C8         -5.0876    0.9385    1.0852 C.ar      1 <0>        -0.1424
     11 C9         -4.0433    1.4315    1.8450 C.ar      1 <0>        -0.0840
     12 C10        -2.9374    1.9822    1.2251 C.ar      1 <0>        -0.1384
     13 C11        -2.8753    2.0392   -0.1547 C.ar      1 <0>        -0.0828
     14 C12        -3.9217    1.5506   -0.9144 C.ar      1 <0>        -0.0891
     15 C13        -5.0258    0.9959   -0.2945 C.ar      1 <0>        -0.0823
     16 C14        -1.6696    2.6396   -0.8306 C.3       1 <0>         0.0561
     17 N3         -1.4137    1.9336   -2.0931 N.3       1 <0>        -0.5167
     18 C15        -0.4542    2.6726   -2.9245 C.3       1 <0>         0.0445
     19 C16        -0.2002    4.0498   -2.3082 C.3       1 <0>        -0.1994
     20 C17         1.3065    4.3052   -2.2338 C.3       1 <0>        -0.0115
     21 N4          1.6501    4.8238   -0.9031 N.4       1 <0>        -0.5428
     22 C18         2.8580    4.1718   -0.3798 C.3       1 <0>        -0.0271
     23 C19         2.6454    3.8095    1.0914 C.3       1 <0>         0.0230
     24 N5          3.0679    2.4213    1.3199 N.3       1 <0>        -0.6557
     25 C20         2.0557    1.6823    2.0863 C.3       1 <0>         0.0401
     26 C21         1.8266    0.3137    1.4417 C.3       1 <0>        -0.1645
     27 C22         0.3326   -0.0155    1.4611 C.3       1 <0>        -0.0083
     28 N6         -0.0684   -0.5486    0.1523 N.4       1 <0>        -0.5432
     29 C23        -1.2194    0.1884   -0.3861 C.3       1 <0>        -0.0669
     30 C24        -0.9484    0.5626   -1.8447 C.3       1 <0>         0.0269
     31 H1        -12.2044    3.3648    1.5037 H         1 <0>         0.1519
     32 H2        -11.9631    4.7430    3.5590 H         1 <0>         0.1541
     33 H3        -10.1210    4.2625    5.1207 H         1 <0>         0.1733
     34 H4        -10.5677    1.5383    1.0974 H         1 <0>         0.1440
     35 H5         -8.1963    0.3927    3.6291 H         1 <0>         0.1459
     36 H6         -8.9335    0.0662    2.0239 H         1 <0>         0.1451
     37 H7         -7.5780    1.8336    1.0418 H         1 <0>         0.4482
     38 H8         -5.9911   -0.1109    2.7188 H         1 <0>         0.1402
     39 H9         -6.7284   -0.4374    1.1136 H         1 <0>         0.1414
     40 H10        -4.0917    1.3866    2.9230 H         1 <0>         0.1405
     41 H11        -2.1216    2.3677    1.8187 H         1 <0>         0.1304
     42 H12        -3.8751    1.5991   -1.9923 H         1 <0>         0.1518
     43 H13        -5.8415    0.6104   -0.8882 H         1 <0>         0.1423
     44 H14        -1.8569    3.7037   -1.0370 H         1 <0>         0.1274
     45 H15        -0.7938    2.5425   -0.1722 H         1 <0>         0.0444
     46 H16         0.4920    2.1141   -2.9768 H         1 <0>         0.0700
     47 H17        -0.8646    2.7943   -3.9378 H         1 <0>         0.1135
     48 H18        -0.6729    4.8232   -2.9314 H         1 <0>         0.1196
     49 H19        -0.6282    4.0829   -1.2954 H         1 <0>         0.1090
     50 H20         1.8472    3.3638   -2.4113 H         1 <0>         0.1269
     51 H21         1.5918    5.0418   -2.9993 H         1 <0>         0.1452
     52 H22         1.8335    5.9065   -0.9677 H         1 <0>         0.4677
     53 H23         3.0605    3.2575   -0.9570 H         1 <0>         0.1283
     54 H24         3.7129    4.8583   -0.4685 H         1 <0>         0.1509
     55 H25         3.2414    4.4831    1.7247 H         1 <0>         0.1220
     56 H26         1.5802    3.9150    1.3448 H         1 <0>         0.0632
     57 H27         2.4055    1.5466    3.1203 H         1 <0>         0.1068
     58 H28         1.1126    2.2485    2.0896 H         1 <0>         0.0525
     59 H29         2.1842    0.3338    0.4016 H         1 <0>         0.0861
     60 H30         2.3785   -0.4536    2.0044 H         1 <0>         0.1197
     61 H31         0.1327   -0.7663    2.2397 H         1 <0>         0.1436
     62 H32        -0.2414    0.8978    1.6765 H         1 <0>         0.1196
     63 H33         0.7704   -0.4572   -0.5534 H         1 <0>         0.4403
     64 H34        -2.1180   -0.4436   -0.3306 H         1 <0>         0.1391
     65 H35        -1.3776    1.1032    0.2039 H         1 <0>         0.1614
     66 H36        -1.4850   -0.1324   -2.5073 H         1 <0>         0.1215
     67 H37         0.1314    0.4999   -2.0448 H         1 <0>         0.0723
     68 H38        -6.8407    2.1601    2.6470 H         1 <0>         0.4526
     69 H39         3.2143    1.9186    0.3525 H         1 <0>         0.3419
     70 H40        -0.3456   -1.6079    0.2571 H         1 <0>         0.4637
     71 H41         0.8179    4.6336   -0.2093 H         1 <0>         0.4316
@<TRIPOS>BOND
     1    1    6 ar
     2    1    2 ar
     3    1   31 1
     4    2    3 ar
     5    2   32 1
     6    3    4 ar
     7    3   33 1
     8    4    5 ar
     9    5    6 ar
    10    5    7 1
    11    6   34 1
    12    7    8 1
    13    7   35 1
    14    7   36 1
    15    8    9 1
    16    8   37 1
    17    8   68 1
    18    9   10 1
    19    9   38 1
    20    9   39 1
    21   10   15 ar
    22   10   11 ar
    23   11   12 ar
    24   11   40 1
    25   12   13 ar
    26   12   41 1
    27   13   14 ar
    28   13   16 1
    29   14   15 ar
    30   14   42 1
    31   15   43 1
    32   16   17 1
    33   16   44 1
    34   16   45 1
    35   17   30 1
    36   17   18 1
    37   18   19 1
    38   18   46 1
    39   18   47 1
    40   19   20 1
    41   19   48 1
    42   19   49 1
    43   20   21 1
    44   20   50 1
    45   20   51 1
    46   21   22 1
    47   21   52 1
    48   21   71 1
    49   22   23 1
    50   22   53 1
    51   22   54 1
    52   23   24 1
    53   23   55 1
    54   23   56 1
    55   24   25 1
    56   24   69 1
    57   25   26 1
    58   25   57 1
    59   25   58 1
    60   26   27 1
    61   26   59 1
    62   26   60 1
    63   27   28 1
    64   27   61 1
    65   27   62 1
    66   28   29 1
    67   28   63 1
    68   28   70 1
    69   29   30 1
    70   29   64 1
    71   29   65 1
    72   30   66 1
    73   30   67 1
@<TRIPOS>MOLECULE
ZINC19361903
   70    72     0     0     0
SMALL
USER_CHARGES

@<TRIPOS>ATOM
      1 C1         -5.9420  -11.1193  -10.8897 C.ar      1 <0>        -0.0736
      2 C2         -6.4198  -10.2042  -11.8155 C.ar      1 <0>        -0.1679
      3 C3         -6.5309   -8.8753  -11.4532 C.ar      1 <0>         0.1026
      4 N1         -6.1883   -8.4747  -10.2443 N.ar      1 <0>        -0.4657
      5 C4         -5.7303   -9.3166   -9.3387 C.ar      1 <0>         0.1231
      6 C5         -5.5924  -10.6610   -9.6289 C.ar      1 <0>        -0.1697
      7 C6         -5.3524   -8.8071   -7.9717 C.3       1 <0>         0.1081
      8 N2         -3.9729   -8.3030   -8.0011 N.3       1 <0>        -0.6719
      9 C7         -3.5691   -7.7969   -6.6825 C.3       1 <0>         0.0844
     10 C8         -2.1518   -7.2895   -6.7516 C.ar      1 <0>        -0.0563
     11 C9         -1.0977   -8.1461   -6.4950 C.ar      1 <0>        -0.1039
     12 C10         0.2024   -7.6807   -6.5585 C.ar      1 <0>        -0.1423
     13 C11         0.4483   -6.3587   -6.8789 C.ar      1 <0>        -0.1270
     14 C12        -0.6058   -5.5023   -7.1364 C.ar      1 <0>        -0.0927
     15 C13        -1.9057   -5.9688   -7.0772 C.ar      1 <0>        -0.0844
     16 C14         1.8656   -5.8510   -6.9471 C.3       1 <0>         0.0654
     17 N3          1.9461   -4.7529   -7.9195 N.3       1 <0>        -0.5185
     18 C15         3.2200   -4.0318   -7.7951 C.3       1 <0>         0.0484
     19 C16         3.8881   -4.4019   -6.4694 C.3       1 <0>        -0.2018
     20 C17         5.3570   -4.7501   -6.7183 C.3       1 <0>        -0.0160
     21 N4          5.6770   -6.0233   -6.0590 N.4       1 <0>        -0.5133
     22 C18         6.4538   -6.8679   -6.9761 C.3       1 <0>        -0.0318
     23 C19         5.9487   -8.3097   -6.8931 C.3       1 <0>         0.0299
     24 N5          5.7655   -8.8433   -8.2494 N.3       1 <0>        -0.6757
     25 C20         4.4770   -9.5380   -8.3723 C.3       1 <0>         0.0504
     26 C21         3.7851   -9.1042   -9.6661 C.3       1 <0>        -0.1666
     27 C22         2.3247   -8.7558   -9.3714 C.3       1 <0>        -0.0164
     28 N6          1.9508   -7.5447  -10.1140 N.4       1 <0>        -0.5114
     29 C23         1.1656   -6.6594   -9.2435 C.3       1 <0>        -0.0851
     30 C24         1.7527   -5.2473   -9.2892 C.3       1 <0>         0.0342
     31 H1         -5.8487  -12.1649  -11.1433 H         1 <0>         0.1371
     32 H2         -6.7013  -10.5259  -12.8073 H         1 <0>         0.1391
     33 H3         -6.9022   -8.1563  -12.1685 H         1 <0>         0.1596
     34 H4         -5.2170  -11.3457   -8.8828 H         1 <0>         0.1311
     35 H5         -6.0278   -8.0011   -7.6849 H         1 <0>         0.0971
     36 H6         -5.4273   -9.6187   -7.2480 H         1 <0>         0.0532
     37 H7         -4.2321   -6.9839   -6.3867 H         1 <0>         0.0929
     38 H8         -3.6316   -8.6015   -5.9498 H         1 <0>         0.0489
     39 H9         -1.2899   -9.1790   -6.2446 H         1 <0>         0.1292
     40 H10         1.0259   -8.3498   -6.3573 H         1 <0>         0.1187
     41 H11        -0.4136   -4.4693   -7.3865 H         1 <0>         0.1421
     42 H12        -2.7291   -5.3006   -7.2820 H         1 <0>         0.1362
     43 H13         2.1697   -5.4895   -5.9648 H         1 <0>         0.1201
     44 H14         2.5269   -6.6601   -7.2572 H         1 <0>         0.0343
     45 H15         3.8754   -4.3068   -8.6215 H         1 <0>         0.0614
     46 H16         3.0337   -2.9582   -7.8208 H         1 <0>         0.1099
     47 H17         3.8261   -3.5574   -5.7830 H         1 <0>         0.1199
     48 H18         3.3796   -5.2621   -6.0339 H         1 <0>         0.1158
     49 H19         5.5320   -4.8420   -7.7902 H         1 <0>         0.1306
     50 H20         5.9910   -3.9616   -6.3129 H         1 <0>         0.1458
     51 H21         6.2183   -5.8442   -5.2266 H         1 <0>         0.4417
     52 H22         6.3372   -6.5002   -7.9955 H         1 <0>         0.1306
     53 H23         7.5068   -6.8352   -6.6963 H         1 <0>         0.1516
     54 H24         6.6766   -8.9195   -6.3580 H         1 <0>         0.1197
     55 H25         4.9967   -8.3312   -6.3626 H         1 <0>         0.0682
     56 H26         5.8495   -8.1124   -8.9399 H         1 <0>         0.3459
     57 H27         4.6453  -10.6147   -8.3937 H         1 <0>         0.1056
     58 H28         3.8455   -9.2858   -7.5204 H         1 <0>         0.0604
     59 H29         4.2921   -8.2297  -10.0738 H         1 <0>         0.0858
     60 H30         3.8254   -9.9180  -10.3902 H         1 <0>         0.1171
     61 H31         1.6846   -9.5827   -9.6790 H         1 <0>         0.1452
     62 H32         2.2018   -8.5792   -8.3028 H         1 <0>         0.1247
     63 H33         2.7852   -7.0649  -10.4169 H         1 <0>         0.4162
     64 H34         0.1318   -6.6344   -9.5883 H         1 <0>         0.1453
     65 H35         1.1983   -7.0336   -8.2203 H         1 <0>         0.1838
     66 H36         1.0683   -4.5863   -9.8209 H         1 <0>         0.1215
     67 H37         2.7120   -5.2693   -9.8064 H         1 <0>         0.0675
     68 H38         4.8218   -6.4967   -5.8087 H         1 <0>         0.4178
     69 H39         1.3990   -7.8007  -10.9190 H         1 <0>         0.4374
     70 H40        -3.3350   -9.0138   -8.3265 H         1 <0>         0.3363
@<TRIPOS>BOND
     1    1    6 ar
     2    1    2 ar
     3    1   31 1
     4    2    3 ar
     5    2   32 1
     6    3    4 ar
     7    3   33 1
     8    4    5 ar
     9    5    6 ar
    10    5    7 1
    11    6   34 1
    12    7    8 1
    13    7   35 1
    14    7   36 1
    15    8    9 1
    16    8   70 1
    17    9   10 1
    18    9   37 1
    19    9   38 1
    20   10   15 ar
    21   10   11 ar
    22   11   12 ar
    23   11   39 1
    24   12   13 ar
    25   12   40 1
    26   13   14 ar
    27   13   16 1
    28   14   15 ar
    29   14   41 1
    30   15   42 1
    31   16   17 1
    32   16   43 1
    33   16   44 1
    34   17   30 1
    35   17   18 1
    36   18   19 1
    37   18   45 1
    38   18   46 1
    39   19   20 1
    40   19   47 1
    41   19   48 1
    42   20   21 1
    43   20   49 1
    44   20   50 1
    45   21   22 1
    46   21   51 1
    47   21   68 1
    48   22   23 1
    49   22   52 1
    50   22   53 1
    51   23   24 1
    52   23   54 1
    53   23   55 1
    54   24   25 1
    55   24   56 1
    56   25   26 1
    57   25   57 1
    58   25   58 1
    59   26   27 1
    60   26   59 1
    61   26   60 1
    62   27   28 1
    63   27   61 1
    64   27   62 1
    65   28   29 1
    66   28   63 1
    67   28   69 1
    68   29   30 1
    69   29   64 1
    70   29   65 1
    71   30   66 1
    72   30   67 1
