@<TRIPOS>MOLECULE
ZINC03830212
   61    63     0     0     0
SMALL
USER_CHARGES
(2-butylbenzofuran-3-yl)-[4-(2-diethylaminoethoxy)-3,5-diiodo-phenyl]-methanone
@<TRIPOS>ATOM
      1 C1         -4.1677    4.6447    4.0546 C.3       1 <0>        -0.1559
      2 C2         -2.9795    4.1958    4.9076 C.3       1 <0>        -0.1215
      3 C3         -2.2245    3.0795    4.1832 C.3       1 <0>        -0.1217
      4 C4         -1.0363    2.6306    5.0361 C.3       1 <0>        -0.0556
      5 C5         -0.2927    1.5310    4.3226 C.2       1 <0>         0.1031
      6 C6          0.7390    1.7197    3.4530 C.2       1 <0>        -0.2632
      7 C7          1.1431    0.3689    3.0136 C.ar      1 <0>        -0.0982
      8 C8          2.1157   -0.1196    2.1476 C.ar      1 <0>        -0.0789
      9 C9          2.2335   -1.4791    1.9520 C.ar      1 <0>        -0.1205
     10 C10         1.3877   -2.3551    2.6156 C.ar      1 <0>        -0.0885
     11 C11         0.4203   -1.8818    3.4760 C.ar      1 <0>        -0.0979
     12 C12         0.2862   -0.5146    3.6855 C.ar      1 <0>         0.0534
     13 O1         -0.5429    0.2233    4.4527 O.3       1 <0>        -0.1754
     14 C13         1.3271    3.0012    3.0377 C.2       1 <0>         0.4789
     15 O2          0.9433    3.5452    2.0190 O.2       1 <0>        -0.4115
     16 C14         2.3833    3.6285    3.8565 C.ar      1 <0>        -0.1423
     17 C15         2.9023    2.9553    4.9660 C.ar      1 <0>         0.0014
     18 C16         3.8914    3.5418    5.7244 C.ar      1 <0>        -0.1300
     19 C17         4.3655    4.8065    5.3942 C.ar      1 <0>         0.1789
     20 C18         3.8481    5.4816    4.2943 C.ar      1 <0>        -0.1306
     21 C19         2.8628    4.8995    3.5275 C.ar      1 <0>         0.0029
     22 I1          4.5683    7.3863    3.8021 I         1 <0>        -0.0105
     23 O3          5.3362    5.3834    6.1473 O.3       1 <0>        -0.3308
     24 C20         4.9106    6.1869    7.2496 C.3       1 <0>         0.0219
     25 C21         6.1355    6.7485    7.9743 C.3       1 <0>        -0.0014
     26 C22         6.0477    8.8560    6.7855 C.3       1 <0>        -0.0236
     27 C23         5.8232    9.6517    8.0729 C.3       1 <0>        -0.1842
     28 C24         8.1576    8.0399    7.6484 C.3       1 <0>        -0.0132
     29 C25         9.0268    8.6709    6.5589 C.3       1 <0>        -0.1896
     30 I2          4.6769    2.5302    7.3823 I         1 <0>         0.0118
     31 H1         -3.8070    5.0137    3.0946 H         1 <0>         0.0557
     32 H2         -4.8371    3.8002    3.8910 H         1 <0>         0.0574
     33 H3         -4.7056    5.4399    4.5707 H         1 <0>         0.0582
     34 H4         -3.3403    3.8267    5.8677 H         1 <0>         0.0666
     35 H5         -2.3101    5.0403    5.0713 H         1 <0>         0.0616
     36 H6         -2.8939    2.2350    4.0195 H         1 <0>         0.0747
     37 H7         -1.8638    3.4485    3.2231 H         1 <0>         0.0717
     38 H8         -0.3669    3.4751    5.1998 H         1 <0>         0.0938
     39 H9         -1.3971    2.2615    5.9962 H         1 <0>         0.0985
     40 H10         2.7746    0.5624    1.6307 H         1 <0>         0.1258
     41 H11         2.9870   -1.8632    1.2803 H         1 <0>         0.1358
     42 H12         1.4876   -3.4186    2.4564 H         1 <0>         0.1419
     43 H13        -0.2334   -2.5732    3.9869 H         1 <0>         0.1384
     44 H14         2.5311    1.9750    5.2260 H         1 <0>         0.1552
     45 H15         2.4616    5.4243    2.6731 H         1 <0>         0.1598
     46 H16         4.2961    7.0095    6.8838 H         1 <0>         0.0851
     47 H17         4.3279    5.5772    7.9401 H         1 <0>         0.1097
     48 H18         5.8148    7.2875    8.8658 H         1 <0>         0.1566
     49 H19         6.7945    5.9295    8.2624 H         1 <0>         0.1467
     50 H20         6.5703    9.4791    6.0597 H         1 <0>         0.1322
     51 H21         5.0854    8.5497    6.3753 H         1 <0>         0.1222
     52 H22         6.7760   10.0446    8.4280 H         1 <0>         0.0855
     53 H23         5.1406   10.4781    7.8749 H         1 <0>         0.1082
     54 H24         5.3932    8.9994    8.8329 H         1 <0>         0.0802
     55 H25         8.0090    8.7572    8.4556 H         1 <0>         0.1366
     56 H26         8.6530    7.1510    8.0390 H         1 <0>         0.1317
     57 H27        10.0246    8.8607    6.9545 H         1 <0>         0.1088
     58 H28         9.0959    7.9908    5.7099 H         1 <0>         0.0802
     59 H29         8.5791    9.6109    6.2359 H         1 <0>         0.0800
     60 N1          6.8605    7.6515    7.0557 N.4       1 <0>        -0.3989
     61 H30         7.0320    7.1595    6.1709 H         1 <0>         0.4328
@<TRIPOS>BOND
     1    1    2 1
     2    1   31 1
     3    1   32 1
     4    1   33 1
     5    2    3 1
     6    2   34 1
     7    2   35 1
     8    3    4 1
     9    3   36 1
    10    3   37 1
    11    4    5 1
    12    4   38 1
    13    4   39 1
    14    5   13 1
    15    5    6 2
    16    6    7 1
    17    6   14 1
    18    7   12 ar
    19    7    8 ar
    20    8    9 ar
    21    8   40 1
    22    9   10 ar
    23    9   41 1
    24   10   11 ar
    25   10   42 1
    26   11   12 ar
    27   11   43 1
    28   12   13 1
    29   14   15 2
    30   14   16 1
    31   16   21 ar
    32   16   17 ar
    33   17   18 ar
    34   17   44 1
    35   18   19 ar
    36   18   30 1
    37   19   20 ar
    38   19   23 1
    39   20   21 ar
    40   20   22 1
    41   21   45 1
    42   23   24 1
    43   24   25 1
    44   24   46 1
    45   24   47 1
    46   25   48 1
    47   25   49 1
    48   25   60 1
    49   26   27 1
    50   26   50 1
    51   26   51 1
    52   26   60 1
    53   27   52 1
    54   27   53 1
    55   27   54 1
    56   28   29 1
    57   28   55 1
    58   28   56 1
    59   28   60 1
    60   29   57 1
    61   29   58 1
    62   29   59 1
    63   60   61 1
@<TRIPOS>MOLECULE
ZINC19685792
   83    87     0     0     0
SMALL
USER_CHARGES

@<TRIPOS>ATOM
      1 C1         -2.3190    3.9615   -1.1507 C.3       1 <0>        -0.1024
      2 C2         -3.0498    3.6401   -2.4289 C.2       1 <0>         0.3032
      3 C3         -4.0177    2.6772   -2.4085 C.2       1 <0>        -0.3996
      4 C4         -4.7363    2.3761   -3.7110 C.3       1 <0>         0.1171
      5 H1         -5.8024    2.5444   -3.5586 H         1 <0>         0.0492
      6 C5         -4.2947    3.1903   -4.9143 C.2       1 <0>        -0.3902
      7 C6         -4.8696    3.0119   -6.1534 C.2       1 <0>         0.4758
      8 O1         -4.3666    3.6509   -7.2280 O.3       1 <0>        -0.6298
      9 O2         -5.9351    2.1984   -6.2910 O.3       1 <0>        -0.3383
     10 C7         -6.4804    2.0601   -7.6046 C.3       1 <0>         0.0410
     11 C8         -3.2808    4.1280   -4.7097 C.2       1 <0>         0.3191
     12 N1         -2.7331    4.3057   -3.5291 N.2       1 <0>        -0.6397
     13 C9         -2.8065    4.9616   -5.8721 C.3       1 <0>        -0.0978
     14 C10        -4.5342    0.9181   -4.0341 C.ar      1 <0>        -0.0400
     15 C11        -3.2552    0.4012   -4.1260 C.ar      1 <0>        -0.0509
     16 C12        -3.0698   -0.9360   -4.4224 C.ar      1 <0>        -0.1226
     17 C13        -4.1635   -1.7568   -4.6265 C.ar      1 <0>        -0.0758
     18 C14        -5.4421   -1.2403   -4.5337 C.ar      1 <0>        -0.0587
     19 C15        -5.6276    0.0963   -4.2331 C.ar      1 <0>        -0.0356
     20 N2         -6.6129   -2.1190   -4.7528 N.pl3     1 <0>         0.0404
     21 O3         -6.4550   -3.3058   -4.9209 O.2       1 <0>        -0.1760
     22 O4         -7.7272   -1.6500   -4.7635 O.3       1 <0>        -0.1690
     23 C16        -4.3366    1.9896   -1.2245 C.2       1 <0>         0.5292
     24 O5         -3.6740    2.1693   -0.2185 O.2       1 <0>        -0.5537
     25 O6         -5.3780    1.1297   -1.2025 O.3       1 <0>        -0.3515
     26 C17        -5.7148    0.5508    0.0598 C.3       1 <0>         0.0470
     27 C18        -6.8292   -0.4797   -0.1327 C.3       1 <0>        -0.0098
     28 N3         -7.2479   -0.9985    1.1763 N.4       1 <0>        -0.3806
     29 C19        -7.8715    0.0805    1.9536 C.3       1 <0>        -0.0087
     30 C20        -8.2908   -0.4549    3.3245 C.3       1 <0>         0.0284
     31 N4         -9.2387   -1.5638    3.1452 N.3       1 <0>        -0.5295
     32 C21        -8.6366   -2.6413    2.3473 C.3       1 <0>         0.0252
     33 C22        -8.2144   -2.0879    0.9845 C.3       1 <0>         0.0003
     34 C23        -9.7093   -2.0689    4.4418 C.3       1 <0>         0.1776
     35 C24       -10.4614   -0.9797    5.1623 C.ar      1 <0>        -0.0909
     36 C25       -11.3896   -0.2141    4.4816 C.ar      1 <0>        -0.0909
     37 C26       -12.0794    0.7851    5.1425 C.ar      1 <0>        -0.1215
     38 C27       -11.8415    1.0183    6.4841 C.ar      1 <0>        -0.1106
     39 C28       -10.9140    0.2521    7.1649 C.ar      1 <0>        -0.1176
     40 C29       -10.2272   -0.7499    6.5051 C.ar      1 <0>        -0.1105
     41 C30       -10.6219   -3.2476    4.2205 C.ar      1 <0>        -0.0926
     42 C31       -11.6057   -3.1877    3.2512 C.ar      1 <0>        -0.0952
     43 C32       -12.4427   -4.2688    3.0482 C.ar      1 <0>        -0.1204
     44 C33       -12.2957   -5.4102    3.8142 C.ar      1 <0>        -0.1104
     45 C34       -11.3114   -5.4704    4.7828 C.ar      1 <0>        -0.1167
     46 C35       -10.4715   -4.3908    4.9829 C.ar      1 <0>        -0.1104
     47 H2         -1.5888    4.7488   -1.3378 H         1 <0>         0.0609
     48 H3         -3.0328    4.2991   -0.3992 H         1 <0>         0.0747
     49 H4         -1.8071    3.0691   -0.7906 H         1 <0>         0.0807
     50 H5         -6.8075    3.0348   -7.9667 H         1 <0>         0.0560
     51 H6         -5.7186    1.6607   -8.2741 H         1 <0>         0.0519
     52 H7         -7.3312    1.3793   -7.5750 H         1 <0>         0.0871
     53 H8         -3.6548    5.4832   -6.3152 H         1 <0>         0.0836
     54 H9         -2.0746    5.6898   -5.5222 H         1 <0>         0.0546
     55 H10        -2.3469    4.3149   -6.6194 H         1 <0>         0.0847
     56 H11        -2.4009    1.0425   -3.9666 H         1 <0>         0.1330
     57 H12        -2.0707   -1.3396   -4.4948 H         1 <0>         0.1396
     58 H13        -4.0186   -2.8016   -4.8587 H         1 <0>         0.1434
     59 H14        -6.6268    0.4991   -4.1569 H         1 <0>         0.1442
     60 H15        -4.8365    0.0617    0.4812 H         1 <0>         0.0793
     61 H16        -6.0560    1.3325    0.7385 H         1 <0>         0.0774
     62 H17        -7.6793   -0.0077   -0.6253 H         1 <0>         0.1431
     63 H18        -6.4624   -1.3008   -0.7486 H         1 <0>         0.1354
     64 H19        -7.1576    0.8937    2.0841 H         1 <0>         0.1381
     65 H20        -8.7496    0.4494    1.4236 H         1 <0>         0.1416
     66 H21        -7.4111   -0.8114    3.8603 H         1 <0>         0.0618
     67 H22        -8.7671    0.3418    3.8959 H         1 <0>         0.1260
     68 H23        -7.7626   -3.0338    2.8670 H         1 <0>         0.0612
     69 H24        -9.3650   -3.4396    2.2058 H         1 <0>         0.1282
     70 H25        -9.0907   -1.7078    0.4594 H         1 <0>         0.1411
     71 H26        -7.7546   -2.8821    0.3964 H         1 <0>         0.1365
     72 H27        -8.8546   -2.3790    5.0429 H         1 <0>         0.0663
     73 H28       -11.5755   -0.3963    3.4335 H         1 <0>         0.1278
     74 H29       -12.8040    1.3837    4.6105 H         1 <0>         0.1243
     75 H30       -12.3799    1.7994    7.0002 H         1 <0>         0.1241
     76 H31       -10.7278    0.4345    8.2130 H         1 <0>         0.1246
     77 H32        -9.5053   -1.3510    7.0379 H         1 <0>         0.1196
     78 H33       -11.7205   -2.2960    2.6528 H         1 <0>         0.1285
     79 H34       -13.2118   -4.2217    2.2914 H         1 <0>         0.1252
     80 H35       -12.9502   -6.2546    3.6560 H         1 <0>         0.1247
     81 H36       -11.1968   -6.3620    5.3815 H         1 <0>         0.1250
     82 H37        -9.7001   -4.4393    5.7372 H         1 <0>         0.1201
     83 H38        -6.4419   -1.3478    1.6728 H         1 <0>         0.4203
@<TRIPOS>BOND
     1    1    2 1
     2    1   47 1
     3    1   48 1
     4    1   49 1
     5    2   12 1
     6    2    3 2
     7    3    4 1
     8    3   23 1
     9    4    5 1
    10    4    6 1
    11    4   14 1
    12    6    7 2
    13    6   11 1
    14    7    8 1
    15    7    9 1
    16    9   10 1
    17   10   50 1
    18   10   51 1
    19   10   52 1
    20   11   12 2
    21   11   13 1
    22   13   53 1
    23   13   54 1
    24   13   55 1
    25   14   19 ar
    26   14   15 ar
    27   15   16 ar
    28   15   56 1
    29   16   17 ar
    30   16   57 1
    31   17   18 ar
    32   17   58 1
    33   18   19 ar
    34   18   20 1
    35   19   59 1
    36   20   21 2
    37   20   22 1
    38   23   24 2
    39   23   25 1
    40   25   26 1
    41   26   27 1
    42   26   60 1
    43   26   61 1
    44   27   28 1
    45   27   62 1
    46   27   63 1
    47   28   33 1
    48   28   29 1
    49   28   83 1
    50   29   30 1
    51   29   64 1
    52   29   65 1
    53   30   31 1
    54   30   66 1
    55   30   67 1
    56   31   32 1
    57   31   34 1
    58   32   33 1
    59   32   68 1
    60   32   69 1
    61   33   70 1
    62   33   71 1
    63   34   35 1
    64   34   41 1
    65   34   72 1
    66   35   40 ar
    67   35   36 ar
    68   36   37 ar
    69   36   73 1
    70   37   38 ar
    71   37   74 1
    72   38   39 ar
    73   38   75 1
    74   39   40 ar
    75   39   76 1
    76   40   77 1
    77   41   46 ar
    78   41   42 ar
    79   42   43 ar
    80   42   78 1
    81   43   44 ar
    82   43   79 1
    83   44   45 ar
    84   44   80 1
    85   45   46 ar
    86   45   81 1
    87   46   82 1
@<TRIPOS>MOLECULE
ZINC19685792
   84    88     0     0     0
SMALL
USER_CHARGES

@<TRIPOS>ATOM
      1 C1          6.0756  -12.6175   -2.2573 C.3       1 <0>        -0.1212
      2 C2          4.9896  -11.6174   -1.9550 C.2       1 <0>         0.2481
      3 C3          4.6629  -10.6936   -2.8753 C.2       1 <0>        -0.2657
      4 C4          3.5814   -9.6824   -2.6205 C.3       1 <0>         0.0881
      5 H1          3.9187   -8.7030   -2.9597 H         1 <0>         0.1000
      6 C5          3.2527   -9.6125   -1.1561 C.2       1 <0>        -0.2378
      7 C6          3.6360  -10.5797   -0.3049 C.2       1 <0>         0.1970
      8 N1          4.3443  -11.6643   -0.7495 N.pl3     1 <0>        -0.6294
      9 C7          3.2768  -10.4718    1.1547 C.3       1 <0>        -0.1335
     10 C8          2.5248   -8.5051   -0.6626 C.2       1 <0>         0.5338
     11 O1          3.0877   -7.4433   -0.4717 O.2       1 <0>        -0.4902
     12 O2          1.2060   -8.6259   -0.4033 O.3       1 <0>        -0.3323
     13 C9          0.5557   -7.5002    0.1900 C.3       1 <0>         0.0636
     14 C10        -0.8925   -7.8649    0.5229 C.3       1 <0>         0.0573
     15 N2         -1.6140   -8.1851   -0.7160 N.3       1 <0>        -0.5306
     16 C11        -1.8763   -6.9709   -1.5016 C.3       1 <0>         0.0238
     17 C12        -2.5744   -7.3534   -2.8085 C.3       1 <0>         0.0005
     18 N3         -3.8353   -8.0438   -2.5064 N.4       1 <0>        -0.3822
     19 C13        -3.5551   -9.2669   -1.7428 C.3       1 <0>        -0.0051
     20 C14        -2.8651   -8.9002   -0.4271 C.3       1 <0>         0.0311
     21 C15        -4.5138   -8.3948   -3.7611 C.3       1 <0>         0.1330
     22 C16        -5.7832   -9.1461   -3.4525 C.ar      1 <0>        -0.1281
     23 C17        -6.5796   -8.7520   -2.3936 C.ar      1 <0>        -0.1230
     24 C18        -7.7440   -9.4411   -2.1105 C.ar      1 <0>        -0.1031
     25 C19        -8.1123  -10.5241   -2.8867 C.ar      1 <0>        -0.0933
     26 C20        -7.3164  -10.9176   -3.9462 C.ar      1 <0>        -0.1031
     27 C21        -6.1542  -10.2259   -4.2318 C.ar      1 <0>        -0.0853
     28 C22        -4.8468   -7.1368   -4.5211 C.ar      1 <0>        -0.1366
     29 C23        -5.4141   -6.0615   -3.8632 C.ar      1 <0>        -0.1193
     30 C24        -5.7195   -4.9076   -4.5603 C.ar      1 <0>        -0.1065
     31 C25        -5.4571   -4.8287   -5.9153 C.ar      1 <0>        -0.0906
     32 C26        -4.8889   -5.9036   -6.5729 C.ar      1 <0>        -0.1024
     33 C27        -4.5796   -7.0560   -5.8750 C.ar      1 <0>        -0.0798
     34 C28         2.3449  -10.0744   -3.3875 C.ar      1 <0>        -0.0618
     35 C29         1.7806  -11.3223   -3.1983 C.ar      1 <0>        -0.0438
     36 C30         0.6465  -11.6817   -3.9018 C.ar      1 <0>        -0.1139
     37 C31         0.0761  -10.7933   -4.7944 C.ar      1 <0>        -0.0632
     38 C32         0.6397   -9.5454   -4.9829 C.ar      1 <0>        -0.0498
     39 C33         1.7717   -9.1842   -4.2760 C.ar      1 <0>        -0.0378
     40 N4          0.0293   -8.5944   -5.9390 N.pl3     1 <0>         0.0349
     41 O3         -1.0132   -8.8715   -6.4849 O.2       1 <0>        -0.1703
     42 O4          0.5733   -7.5406   -6.1739 O.3       1 <0>        -0.1519
     43 C34         5.3524  -10.6729   -4.1097 C.2       1 <0>         0.5166
     44 O5          6.2309  -11.4857   -4.3297 O.2       1 <0>        -0.5140
     45 O6          5.0362   -9.7517   -5.0439 O.3       1 <0>        -0.3532
     46 C35         5.7733   -9.7891   -6.2675 C.3       1 <0>         0.0358
     47 H2          6.2007  -13.2865   -1.4059 H         1 <0>         0.0676
     48 H3          5.8002  -13.1978   -3.1380 H         1 <0>         0.1051
     49 H4          7.0113  -12.0916   -2.4467 H         1 <0>         0.1083
     50 H5          4.3925  -12.4670   -0.2069 H         1 <0>         0.4267
     51 H6          2.3334  -10.9870    1.3358 H         1 <0>         0.0965
     52 H7          4.0619  -10.9291    1.7568 H         1 <0>         0.0894
     53 H8          3.1752   -9.4213    1.4272 H         1 <0>         0.0848
     54 H9          1.0787   -7.2185    1.1039 H         1 <0>         0.0814
     55 H10         0.5683   -6.6636   -0.5085 H         1 <0>         0.0694
     56 H11        -0.9061   -8.7303    1.1854 H         1 <0>         0.1004
     57 H12        -1.3751   -7.0216    1.0169 H         1 <0>         0.0723
     58 H13        -2.5170   -6.2993   -0.9301 H         1 <0>         0.0637
     59 H14        -0.9335   -6.4718   -1.7255 H         1 <0>         0.1226
     60 H15        -2.7827   -6.4529   -3.3862 H         1 <0>         0.1382
     61 H16        -1.9278   -8.0141   -3.3859 H         1 <0>         0.1300
     62 H17        -4.4903   -9.7849   -1.5306 H         1 <0>         0.1382
     63 H18        -2.9034   -9.9178   -2.3257 H         1 <0>         0.1374
     64 H19        -2.6436   -9.8088    0.1329 H         1 <0>         0.1257
     65 H20        -3.5220   -8.2604    0.1621 H         1 <0>         0.0603
     66 H21        -3.8584   -9.0217   -4.3655 H         1 <0>         0.1484
     67 H22        -6.2919   -7.9059   -1.7872 H         1 <0>         0.1130
     68 H23        -8.3659   -9.1336   -1.2827 H         1 <0>         0.1344
     69 H24        -9.0217  -11.0629   -2.6651 H         1 <0>         0.1354
     70 H25        -7.6039  -11.7640   -4.5524 H         1 <0>         0.1372
     71 H26        -5.5342  -10.5310   -5.0619 H         1 <0>         0.1343
     72 H27        -5.6191   -6.1231   -2.8046 H         1 <0>         0.1131
     73 H28        -6.1635   -4.0677   -4.0465 H         1 <0>         0.1335
     74 H29        -5.6964   -3.9274   -6.4601 H         1 <0>         0.1353
     75 H30        -4.6843   -5.8421   -7.6316 H         1 <0>         0.1385
     76 H31        -4.1322   -7.8945   -6.3880 H         1 <0>         0.1378
     77 H32         2.2261  -12.0163   -2.5011 H         1 <0>         0.1331
     78 H33         0.2061  -12.6568   -3.7545 H         1 <0>         0.1459
     79 H34        -0.8097  -11.0744   -5.3447 H         1 <0>         0.1481
     80 H35         2.2099   -8.2078   -4.4205 H         1 <0>         0.1509
     81 H36         5.4203   -8.9976   -6.9287 H         1 <0>         0.1018
     82 H37         6.8328   -9.6420   -6.0581 H         1 <0>         0.0630
     83 H38         5.6290  -10.7562   -6.7492 H         1 <0>         0.0598
     84 H39        -4.4290   -7.4363   -1.9619 H         1 <0>         0.4134
@<TRIPOS>BOND
     1    1    2 1
     2    1   47 1
     3    1   48 1
     4    1   49 1
     5    2    8 1
     6    2    3 2
     7    3    4 1
     8    3   43 1
     9    4    5 1
    10    4    6 1
    11    4   34 1
    12    6    7 2
    13    6   10 1
    14    7    8 1
    15    7    9 1
    16    8   50 1
    17    9   51 1
    18    9   52 1
    19    9   53 1
    20   10   11 2
    21   10   12 1
    22   12   13 1
    23   13   14 1
    24   13   54 1
    25   13   55 1
    26   14   15 1
    27   14   56 1
    28   14   57 1
    29   15   20 1
    30   15   16 1
    31   16   17 1
    32   16   58 1
    33   16   59 1
    34   17   18 1
    35   17   60 1
    36   17   61 1
    37   18   19 1
    38   18   21 1
    39   18   84 1
    40   19   20 1
    41   19   62 1
    42   19   63 1
    43   20   64 1
    44   20   65 1
    45   21   22 1
    46   21   28 1
    47   21   66 1
    48   22   27 ar
    49   22   23 ar
    50   23   24 ar
    51   23   67 1
    52   24   25 ar
    53   24   68 1
    54   25   26 ar
    55   25   69 1
    56   26   27 ar
    57   26   70 1
    58   27   71 1
    59   28   33 ar
    60   28   29 ar
    61   29   30 ar
    62   29   72 1
    63   30   31 ar
    64   30   73 1
    65   31   32 ar
    66   31   74 1
    67   32   33 ar
    68   32   75 1
    69   33   76 1
    70   34   39 ar
    71   34   35 ar
    72   35   36 ar
    73   35   77 1
    74   36   37 ar
    75   36   78 1
    76   37   38 ar
    77   37   79 1
    78   38   39 ar
    79   38   40 1
    80   39   80 1
    81   40   41 2
    82   40   42 1
    83   43   44 2
    84   43   45 1
    85   45   46 1
    86   46   81 1
    87   46   82 1
    88   46   83 1
@<TRIPOS>MOLECULE
ZINC19685792
   83    87     0     0     0
SMALL
USER_CHARGES

@<TRIPOS>ATOM
      1 C1         -1.3358    2.1091   -2.9286 C.3       1 <0>        -0.1181
      2 C2         -1.3476    0.8857   -2.0487 C.2       1 <0>         0.2462
      3 C3         -1.3834    1.0291   -0.7126 C.2       1 <0>        -0.2648
      4 C4         -1.4046   -0.1620    0.2028 C.3       1 <0>         0.0880
      5 H1         -0.7172    0.0097    1.0312 H         1 <0>         0.0990
      6 C5         -0.9922   -1.4055   -0.5325 C.2       1 <0>        -0.2250
      7 C6         -0.9721   -1.4513   -1.8758 C.2       1 <0>         0.1866
      8 N1         -1.3274   -0.3575   -2.6197 N.pl3     1 <0>        -0.6296
      9 C7         -0.5595   -2.7230   -2.5711 C.3       1 <0>        -0.1312
     10 C8         -0.6166   -2.5525    0.2044 C.2       1 <0>         0.5296
     11 O1          0.4914   -2.6195    0.7029 O.2       1 <0>        -0.4978
     12 O2         -1.4871   -3.5728    0.3549 O.3       1 <0>        -0.3259
     13 C9         -1.0056   -4.7440    1.0169 C.3       1 <0>         0.0683
     14 C10        -2.0849   -5.8279    0.9851 C.3       1 <0>         0.0567
     15 N2         -3.2615   -5.3696    1.7359 N.3       1 <0>        -0.5311
     16 C11        -2.9991   -5.3769    3.1818 C.3       1 <0>         0.0562
     17 C12        -4.2175   -4.8192    3.9214 C.3       1 <0>         0.0646
     18 N3         -5.3978   -5.6332    3.5991 N.3       1 <0>        -0.5254
     19 C13        -5.6602   -5.6260    2.1532 C.3       1 <0>         0.0578
     20 C14        -4.4418   -6.1836    1.4136 C.3       1 <0>         0.0620
     21 C15        -6.5744   -5.1749    4.3499 C.3       1 <0>         0.1688
     22 C16        -7.7594   -6.0390    4.0034 C.ar      1 <0>        -0.0742
     23 C17        -7.5992   -7.4039    3.8534 C.ar      1 <0>        -0.0913
     24 C18        -8.6862   -8.1965    3.5355 C.ar      1 <0>        -0.1246
     25 C19        -9.9334   -7.6244    3.3680 C.ar      1 <0>        -0.1195
     26 C20       -10.0937   -6.2597    3.5189 C.ar      1 <0>        -0.1203
     27 C21        -9.0076   -5.4676    3.8410 C.ar      1 <0>        -0.1122
     28 C22        -6.2965   -5.2726    5.8279 C.ar      1 <0>        -0.0779
     29 C23        -5.6926   -6.4037    6.3443 C.ar      1 <0>        -0.0903
     30 C24        -5.4377   -6.4933    7.7000 C.ar      1 <0>        -0.1267
     31 C25        -5.7864   -5.4516    8.5392 C.ar      1 <0>        -0.1181
     32 C26        -6.3895   -4.3202    8.0226 C.ar      1 <0>        -0.1187
     33 C27        -6.6405   -4.2287    6.6663 C.ar      1 <0>        -0.1070
     34 C28        -2.7986   -0.3463    0.7449 C.ar      1 <0>        -0.0678
     35 C29        -3.8648   -0.4885   -0.1236 C.ar      1 <0>        -0.0469
     36 C30        -5.1433   -0.6576    0.3736 C.ar      1 <0>        -0.1142
     37 C31        -5.3558   -0.6850    1.7395 C.ar      1 <0>        -0.0554
     38 C32        -4.2898   -0.5438    2.6077 C.ar      1 <0>        -0.0419
     39 C33        -3.0103   -0.3790    2.1104 C.ar      1 <0>        -0.0367
     40 N4         -4.5174   -0.5727    4.0700 N.pl3     1 <0>         0.0366
     41 O3         -5.6196   -0.8113    4.5057 O.2       1 <0>        -0.1617
     42 O4         -3.6010   -0.3576    4.8288 O.3       1 <0>        -0.1583
     43 C34        -1.4009    2.3293   -0.1567 C.2       1 <0>         0.5195
     44 O5         -1.3837    3.3032   -0.8861 O.2       1 <0>        -0.5200
     45 O6         -1.4368    2.4900    1.1827 O.3       1 <0>        -0.3503
     46 C35        -1.4528    3.8314    1.6750 C.3       1 <0>         0.0366
     47 H2         -1.3109    1.8040   -3.9747 H         1 <0>         0.0652
     48 H3         -2.2337    2.6986   -2.7432 H         1 <0>         0.1035
     49 H4         -0.4542    2.7095   -2.7041 H         1 <0>         0.1059
     50 H5         -1.5616   -0.4631   -3.5550 H         1 <0>         0.4247
     51 H6         -1.4428   -3.3271   -2.7780 H         1 <0>         0.0964
     52 H7         -0.0587   -2.4788   -3.5080 H         1 <0>         0.0860
     53 H8          0.1217   -3.2829   -1.9303 H         1 <0>         0.0849
     54 H9         -0.1115   -5.1065    0.5096 H         1 <0>         0.0719
     55 H10        -0.7634   -4.5027    2.0519 H         1 <0>         0.0685
     56 H11        -2.3686   -6.0280   -0.0482 H         1 <0>         0.0861
     57 H12        -1.6973   -6.7402    1.4386 H         1 <0>         0.0610
     58 H13        -2.8095   -6.3982    3.5119 H         1 <0>         0.0456
     59 H14        -2.1284   -4.7573    3.3966 H         1 <0>         0.0763
     60 H15        -4.0365   -4.8506    4.9958 H         1 <0>         0.0836
     61 H16        -4.3908   -3.7887    3.6115 H         1 <0>         0.0344
     62 H17        -6.5309   -6.2455    1.9385 H         1 <0>         0.0847
     63 H18        -5.8498   -4.6046    1.8231 H         1 <0>         0.0405
     64 H19        -4.6228   -6.1523    0.3392 H         1 <0>         0.0790
     65 H20        -4.2685   -7.2142    1.7236 H         1 <0>         0.0432
     66 H21        -6.7912   -4.1391    4.0887 H         1 <0>         0.0583
     67 H22        -6.6248   -7.8508    3.9842 H         1 <0>         0.1278
     68 H23        -8.5609   -9.2627    3.4176 H         1 <0>         0.1200
     69 H24       -10.7825   -8.2436    3.1190 H         1 <0>         0.1195
     70 H25       -11.0681   -5.8127    3.3878 H         1 <0>         0.1209
     71 H26        -9.1336   -4.4019    3.9626 H         1 <0>         0.1193
     72 H27        -5.4201   -7.2175    5.6887 H         1 <0>         0.1250
     73 H28        -4.9665   -7.3773    8.1036 H         1 <0>         0.1191
     74 H29        -5.5879   -5.5220    9.5984 H         1 <0>         0.1193
     75 H30        -6.6622   -3.5065    8.6783 H         1 <0>         0.1220
     76 H31        -7.1083   -3.3432    6.2622 H         1 <0>         0.1221
     77 H32        -3.6988   -0.4670   -1.1905 H         1 <0>         0.1303
     78 H33        -5.9764   -0.7679   -0.3048 H         1 <0>         0.1439
     79 H34        -6.3549   -0.8164    2.1280 H         1 <0>         0.1480
     80 H35        -2.1768   -0.2724    2.7888 H         1 <0>         0.1489
     81 H36        -1.4817    3.8183    2.7645 H         1 <0>         0.1011
     82 H37        -0.5548    4.3515    1.3416 H         1 <0>         0.0609
     83 H38        -2.3341    4.3477    1.2943 H         1 <0>         0.0587
@<TRIPOS>BOND
     1    1    2 1
     2    1   47 1
     3    1   48 1
     4    1   49 1
     5    2    8 1
     6    2    3 2
     7    3    4 1
     8    3   43 1
     9    4    5 1
    10    4    6 1
    11    4   34 1
    12    6    7 2
    13    6   10 1
    14    7    8 1
    15    7    9 1
    16    8   50 1
    17    9   51 1
    18    9   52 1
    19    9   53 1
    20   10   11 2
    21   10   12 1
    22   12   13 1
    23   13   14 1
    24   13   54 1
    25   13   55 1
    26   14   15 1
    27   14   56 1
    28   14   57 1
    29   15   20 1
    30   15   16 1
    31   16   17 1
    32   16   58 1
    33   16   59 1
    34   17   18 1
    35   17   60 1
    36   17   61 1
    37   18   19 1
    38   18   21 1
    39   19   20 1
    40   19   62 1
    41   19   63 1
    42   20   64 1
    43   20   65 1
    44   21   22 1
    45   21   28 1
    46   21   66 1
    47   22   27 ar
    48   22   23 ar
    49   23   24 ar
    50   23   67 1
    51   24   25 ar
    52   24   68 1
    53   25   26 ar
    54   25   69 1
    55   26   27 ar
    56   26   70 1
    57   27   71 1
    58   28   33 ar
    59   28   29 ar
    60   29   30 ar
    61   29   72 1
    62   30   31 ar
    63   30   73 1
    64   31   32 ar
    65   31   74 1
    66   32   33 ar
    67   32   75 1
    68   33   76 1
    69   34   39 ar
    70   34   35 ar
    71   35   36 ar
    72   35   77 1
    73   36   37 ar
    74   36   78 1
    75   37   38 ar
    76   37   79 1
    77   38   39 ar
    78   38   40 1
    79   39   80 1
    80   40   41 2
    81   40   42 1
    82   43   44 2
    83   43   45 1
    84   45   46 1
    85   46   81 1
    86   46   82 1
    87   46   83 1
@<TRIPOS>MOLECULE
ZINC19685792
   82    86     0     0     0
SMALL
USER_CHARGES

@<TRIPOS>ATOM
      1 C1         -1.6822   -1.9610   -3.2468 C.3       1 <0>        -0.0960
      2 C2         -0.8885   -2.0387   -1.9681 C.2       1 <0>         0.2809
      3 C3         -1.4278   -1.5177   -0.8270 C.2       1 <0>        -0.3761
      4 C4         -0.6050   -1.6113    0.4450 C.3       1 <0>         0.1163
      5 H1         -1.1854   -2.1605    1.1864 H         1 <0>         0.0506
      6 C5          0.7494   -2.2843    0.3091 C.2       1 <0>        -0.3976
      7 C6          1.5907   -2.4316    1.3901 C.2       1 <0>         0.4739
      8 O1          2.8376   -2.9109    1.2131 O.3       1 <0>        -0.6456
      9 O2          1.1666   -2.0963    2.6246 O.3       1 <0>        -0.3363
     10 C7          2.0916   -2.2750    3.6990 C.3       1 <0>         0.0433
     11 C8          1.1046   -2.7476   -0.9589 C.2       1 <0>         0.3162
     12 N1          0.3038   -2.6144   -1.9917 N.2       1 <0>        -0.6453
     13 C9          2.4386   -3.4230   -1.1467 C.3       1 <0>        -0.0920
     14 C10        -0.3825   -0.2147    0.9656 C.ar      1 <0>        -0.0352
     15 C11         0.2290    0.7322    0.1651 C.ar      1 <0>        -0.0543
     16 C12         0.4332    2.0131    0.6426 C.ar      1 <0>        -0.1267
     17 C13         0.0254    2.3475    1.9207 C.ar      1 <0>        -0.0783
     18 C14        -0.5867    1.4011    2.7206 C.ar      1 <0>        -0.0558
     19 C15        -0.7948    0.1210    2.2414 C.ar      1 <0>        -0.0236
     20 N2         -1.0228    1.7590    4.0891 N.pl3     1 <0>         0.0433
     21 O3         -0.9314    2.9017    4.4732 O.2       1 <0>        -0.1836
     22 O4         -1.4703    0.9087    4.8227 O.3       1 <0>        -0.1654
     23 C16        -2.6985   -0.9162   -0.8302 C.2       1 <0>         0.5238
     24 O5         -3.2954   -0.7595   -1.8803 O.2       1 <0>        -0.5617
     25 O6         -3.2574   -0.5121    0.3311 O.3       1 <0>        -0.3372
     26 C17        -4.5961   -0.0162    0.2688 C.3       1 <0>         0.0706
     27 C18        -5.5778   -1.1874    0.3432 C.3       1 <0>         0.0354
     28 N3         -5.4468   -1.8542    1.6456 N.3       1 <0>        -0.5261
     29 C19        -6.0201   -1.0304    2.7191 C.3       1 <0>         0.0610
     30 C20        -5.7931   -1.7217    4.0655 C.3       1 <0>         0.0588
     31 N4         -6.4130   -3.0539    4.0398 N.3       1 <0>        -0.5268
     32 C21        -5.8397   -3.8777    2.9664 C.3       1 <0>         0.0582
     33 C22        -6.0666   -3.1864    1.6199 C.3       1 <0>         0.0632
     34 C23        -6.2820   -3.7207    5.3422 C.3       1 <0>         0.1643
     35 C24        -6.9576   -2.8896    6.4023 C.ar      1 <0>        -0.0713
     36 C25        -8.2054   -2.3450    6.1627 C.ar      1 <0>        -0.0891
     37 C26        -8.8251   -1.5826    7.1350 C.ar      1 <0>        -0.1259
     38 C27        -8.1973   -1.3652    8.3473 C.ar      1 <0>        -0.1209
     39 C28        -6.9500   -1.9105    8.5873 C.ar      1 <0>        -0.1205
     40 C29        -6.3321   -2.6765    7.6165 C.ar      1 <0>        -0.1110
     41 C30        -6.9318   -5.0789    5.2788 C.ar      1 <0>        -0.0713
     42 C31        -8.1855   -5.2196    4.7138 C.ar      1 <0>        -0.0894
     43 C32        -8.7816   -6.4655    4.6556 C.ar      1 <0>        -0.1254
     44 C33        -8.1238   -7.5707    5.1621 C.ar      1 <0>        -0.1212
     45 C34        -6.8696   -7.4302    5.7263 C.ar      1 <0>        -0.1211
     46 C35        -6.2717   -6.1850    5.7806 C.ar      1 <0>        -0.1123
     47 H2         -1.1151   -2.4230   -4.0550 H         1 <0>         0.0538
     48 H3         -2.6282   -2.4872   -3.1198 H         1 <0>         0.0727
     49 H4         -1.8771   -0.9167   -3.4906 H         1 <0>         0.0785
     50 H5          2.3765   -3.3252    3.7624 H         1 <0>         0.0522
     51 H6          2.9790   -1.6681    3.5193 H         1 <0>         0.0491
     52 H7          1.6249   -1.9681    4.6350 H         1 <0>         0.0842
     53 H8          2.5179   -4.2673   -0.4619 H         1 <0>         0.0791
     54 H9          2.5245   -3.7786   -2.1735 H         1 <0>         0.0494
     55 H10         3.2383   -2.7116   -0.9405 H         1 <0>         0.0812
     56 H11         0.5476    0.4709   -0.8332 H         1 <0>         0.1303
     57 H12         0.9115    2.7526    0.0175 H         1 <0>         0.1359
     58 H13         0.1856    3.3482    2.2941 H         1 <0>         0.1406
     59 H14        -1.2765   -0.6174    2.8651 H         1 <0>         0.1446
     60 H15        -4.7726    0.6595    1.1057 H         1 <0>         0.0862
     61 H16        -4.7415    0.5207   -0.6685 H         1 <0>         0.0709
     62 H17        -6.5959   -0.8161    0.2259 H         1 <0>         0.0428
     63 H18        -5.3563   -1.8983   -0.4528 H         1 <0>         0.0804
     64 H19        -5.5363   -0.0536    2.7257 H         1 <0>         0.0778
     65 H20        -7.0896   -0.9056    2.5500 H         1 <0>         0.0373
     66 H21        -4.7231   -1.8219    4.2471 H         1 <0>         0.0489
     67 H22        -6.2430   -1.1266    4.8603 H         1 <0>         0.0803
     68 H23        -4.7702   -4.0025    3.1354 H         1 <0>         0.0462
     69 H24        -6.3235   -4.8545    2.9598 H         1 <0>         0.0801
     70 H25        -7.1367   -3.0862    1.4384 H         1 <0>         0.0373
     71 H26        -5.6168   -3.7815    0.8252 H         1 <0>         0.0774
     72 H27        -5.2260   -3.8342    5.5877 H         1 <0>         0.0586
     73 H28        -8.6958   -2.5149    5.2156 H         1 <0>         0.1268
     74 H29        -9.7996   -1.1565    6.9475 H         1 <0>         0.1186
     75 H30        -8.6812   -0.7690    9.1067 H         1 <0>         0.1180
     76 H31        -6.4593   -1.7404    9.5342 H         1 <0>         0.1204
     77 H32        -5.3592   -3.1056    7.8054 H         1 <0>         0.1196
     78 H33        -8.6995   -4.3561    4.3181 H         1 <0>         0.1271
     79 H34        -9.7614   -6.5752    4.2148 H         1 <0>         0.1191
     80 H35        -8.5898   -8.5440    5.1173 H         1 <0>         0.1182
     81 H36        -6.3558   -8.2937    6.1223 H         1 <0>         0.1201
     82 H37        -5.2903   -6.0758    6.2180 H         1 <0>         0.1195
@<TRIPOS>BOND
     1    1    2 1
     2    1   47 1
     3    1   48 1
     4    1   49 1
     5    2   12 1
     6    2    3 2
     7    3    4 1
     8    3   23 1
     9    4    5 1
    10    4    6 1
    11    4   14 1
    12    6    7 2
    13    6   11 1
    14    7    8 1
    15    7    9 1
    16    9   10 1
    17   10   50 1
    18   10   51 1
    19   10   52 1
    20   11   12 2
    21   11   13 1
    22   13   53 1
    23   13   54 1
    24   13   55 1
    25   14   19 ar
    26   14   15 ar
    27   15   16 ar
    28   15   56 1
    29   16   17 ar
    30   16   57 1
    31   17   18 ar
    32   17   58 1
    33   18   19 ar
    34   18   20 1
    35   19   59 1
    36   20   21 2
    37   20   22 1
    38   23   24 2
    39   23   25 1
    40   25   26 1
    41   26   27 1
    42   26   60 1
    43   26   61 1
    44   27   28 1
    45   27   62 1
    46   27   63 1
    47   28   33 1
    48   28   29 1
    49   29   30 1
    50   29   64 1
    51   29   65 1
    52   30   31 1
    53   30   66 1
    54   30   67 1
    55   31   32 1
    56   31   34 1
    57   32   33 1
    58   32   68 1
    59   32   69 1
    60   33   70 1
    61   33   71 1
    62   34   35 1
    63   34   41 1
    64   34   72 1
    65   35   40 ar
    66   35   36 ar
    67   36   37 ar
    68   36   73 1
    69   37   38 ar
    70   37   74 1
    71   38   39 ar
    72   38   75 1
    73   39   40 ar
    74   39   76 1
    75   40   77 1
    76   41   46 ar
    77   41   42 ar
    78   42   43 ar
    79   42   78 1
    80   43   44 ar
    81   43   79 1
    82   44   45 ar
    83   44   80 1
    84   45   46 ar
    85   45   81 1
    86   46   82 1
@<TRIPOS>MOLECULE
ZINC19685792
   83    87     0     0     0
SMALL
USER_CHARGES

@<TRIPOS>ATOM
      1 C1          0.8009    1.4872   -0.2264 C.3       1 <0>        -0.0989
      2 C2          0.8161   -0.0182   -0.2940 C.2       1 <0>         0.2918
      3 C3         -0.3544   -0.6964   -0.1087 C.2       1 <0>        -0.3910
      4 C4         -0.3075   -2.2116   -0.1832 C.3       1 <0>         0.1151
      5 H1         -0.9901   -2.5352   -0.9689 H         1 <0>         0.0483
      6 C5          1.0565   -2.8188   -0.4599 C.2       1 <0>        -0.3980
      7 C6          1.2313   -4.1823   -0.5517 C.2       1 <0>         0.4734
      8 O1          2.4708   -4.6956   -0.6792 O.3       1 <0>        -0.6359
      9 O2          0.1629   -5.0026   -0.5140 O.3       1 <0>        -0.3401
     10 C7          0.4179   -6.4051   -0.6143 C.3       1 <0>         0.0418
     11 C8          2.1255   -1.9350   -0.6176 C.2       1 <0>         0.3205
     12 N1          1.9632   -0.6340   -0.5364 N.2       1 <0>        -0.6427
     13 C9          3.5001   -2.4874   -0.8939 C.3       1 <0>        -0.0961
     14 C10        -0.8071   -2.7631    1.1272 C.ar      1 <0>        -0.0218
     15 C11        -0.2909   -2.2885    2.3188 C.ar      1 <0>        -0.0483
     16 C12        -0.7491   -2.7943    3.5206 C.ar      1 <0>        -0.1241
     17 C13        -1.7240   -3.7746    3.5314 C.ar      1 <0>        -0.0921
     18 C14        -2.2407   -4.2484    2.3402 C.ar      1 <0>        -0.0524
     19 C15        -1.7854   -3.7394    1.1381 C.ar      1 <0>        -0.0159
     20 N2         -3.2841   -5.2983    2.3517 N.pl3     1 <0>         0.0441
     21 O3         -3.7142   -5.7116    3.4033 O.2       1 <0>        -0.1980
     22 O4         -3.7062   -5.7424    1.3095 O.3       1 <0>        -0.1580
     23 C16        -1.5589   -0.0161    0.1423 C.2       1 <0>         0.5242
     24 O5         -1.5674    1.1995    0.2177 O.2       1 <0>        -0.5590
     25 O6         -2.7066   -0.7106    0.2999 O.3       1 <0>        -0.3465
     26 C17        -3.9100    0.0477    0.4376 C.3       1 <0>         0.0732
     27 C18        -5.0754   -0.8960    0.7412 C.3       1 <0>         0.0585
     28 N3         -4.8920   -1.4880    2.0730 N.3       1 <0>        -0.5263
     29 C19        -5.0900   -0.4837    3.1276 C.3       1 <0>         0.0264
     30 C20        -4.8322   -1.1246    4.4931 C.3       1 <0>        -0.0048
     31 N4         -5.7540   -2.2516    4.6871 N.4       1 <0>        -0.3797
     32 C21        -5.5274   -3.2574    3.6408 C.3       1 <0>        -0.0094
     33 C22        -5.7910   -2.6342    2.2683 C.3       1 <0>         0.0295
     34 C23        -5.5184   -2.8553    6.0054 C.3       1 <0>         0.1312
     35 C24        -5.7525   -1.8241    7.0791 C.ar      1 <0>        -0.1250
     36 C25        -6.8099   -0.9404    6.9699 C.ar      1 <0>        -0.1206
     37 C26        -7.0247    0.0055    7.9548 C.ar      1 <0>        -0.1037
     38 C27        -6.1824    0.0674    9.0492 C.ar      1 <0>        -0.0953
     39 C28        -5.1256   -0.8170    9.1589 C.ar      1 <0>        -0.1040
     40 C29        -4.9134   -1.7656    8.1761 C.ar      1 <0>        -0.0858
     41 C30        -6.4640   -4.0116    6.2047 C.ar      1 <0>        -0.1259
     42 C31        -7.7733   -3.9163    5.7718 C.ar      1 <0>        -0.1221
     43 C32        -8.6407   -4.9770    5.9546 C.ar      1 <0>        -0.1047
     44 C33        -8.1986   -6.1332    6.5699 C.ar      1 <0>        -0.0939
     45 C34        -6.8890   -6.2289    7.0019 C.ar      1 <0>        -0.1017
     46 C35        -6.0205   -5.1698    6.8153 C.ar      1 <0>        -0.0779
     47 H2          1.8072    1.8689   -0.3993 H         1 <0>         0.0573
     48 H3          0.1279    1.8785   -0.9893 H         1 <0>         0.0774
     49 H4          0.4568    1.8032    0.7584 H         1 <0>         0.0762
     50 H5          1.0569   -6.7182    0.2114 H         1 <0>         0.0498
     51 H6         -0.5251   -6.9499   -0.5708 H         1 <0>         0.0858
     52 H7          0.9166   -6.6169   -1.5601 H         1 <0>         0.0554
     53 H8          3.4659   -3.1202   -1.7807 H         1 <0>         0.0826
     54 H9          4.1954   -1.6647   -1.0611 H         1 <0>         0.0528
     55 H10         3.8333   -3.0767   -0.0396 H         1 <0>         0.0824
     56 H11         0.4707   -1.5228    2.3104 H         1 <0>         0.1312
     57 H12        -0.3453   -2.4241    4.4514 H         1 <0>         0.1341
     58 H13        -2.0815   -4.1703    4.4705 H         1 <0>         0.1318
     59 H14        -2.1919   -4.1069    0.2075 H         1 <0>         0.1441
     60 H15        -3.7983    0.7614    1.2538 H         1 <0>         0.0601
     61 H16        -4.1093    0.5846   -0.4898 H         1 <0>         0.0685
     62 H17        -6.0110   -0.3372    0.7176 H         1 <0>         0.0628
     63 H18        -5.1062   -1.6878   -0.0073 H         1 <0>         0.0985
     64 H19        -4.3961    0.3433    2.9772 H         1 <0>         0.1256
     65 H20        -6.1138   -0.1117    3.0880 H         1 <0>         0.0581
     66 H21        -3.8042   -1.4843    4.5373 H         1 <0>         0.1382
     67 H22        -4.9924   -0.3851    5.2776 H         1 <0>         0.1357
     68 H23        -4.4959   -3.6061    3.6894 H         1 <0>         0.1343
     69 H24        -6.2030   -4.0990    3.7935 H         1 <0>         0.1399
     70 H25        -6.8264   -2.2977    2.2144 H         1 <0>         0.0596
     71 H26        -5.6085   -3.3761    1.4909 H         1 <0>         0.1225
     72 H27        -4.4902   -3.2126    6.0629 H         1 <0>         0.1480
     73 H28        -7.4679   -0.9887    6.1149 H         1 <0>         0.1137
     74 H29        -7.8503    0.6964    7.8691 H         1 <0>         0.1334
     75 H30        -6.3498    0.8068    9.8183 H         1 <0>         0.1339
     76 H31        -4.4673   -0.7684   10.0137 H         1 <0>         0.1361
     77 H32        -4.0899   -2.4589    8.2636 H         1 <0>         0.1338
     78 H33        -8.1187   -3.0129    5.2912 H         1 <0>         0.1114
     79 H34        -9.6639   -4.9022    5.6171 H         1 <0>         0.1325
     80 H35        -8.8765   -6.9617    6.7133 H         1 <0>         0.1336
     81 H36        -6.5437   -7.1322    7.4829 H         1 <0>         0.1362
     82 H37        -4.9963   -5.2460    7.1495 H         1 <0>         0.1336
     83 H38        -6.7056   -1.9204    4.6345 H         1 <0>         0.4106
@<TRIPOS>BOND
     1    1    2 1
     2    1   47 1
     3    1   48 1
     4    1   49 1
     5    2   12 1
     6    2    3 2
     7    3    4 1
     8    3   23 1
     9    4    5 1
    10    4    6 1
    11    4   14 1
    12    6    7 2
    13    6   11 1
    14    7    8 1
    15    7    9 1
    16    9   10 1
    17   10   50 1
    18   10   51 1
    19   10   52 1
    20   11   12 2
    21   11   13 1
    22   13   53 1
    23   13   54 1
    24   13   55 1
    25   14   19 ar
    26   14   15 ar
    27   15   16 ar
    28   15   56 1
    29   16   17 ar
    30   16   57 1
    31   17   18 ar
    32   17   58 1
    33   18   19 ar
    34   18   20 1
    35   19   59 1
    36   20   21 2
    37   20   22 1
    38   23   24 2
    39   23   25 1
    40   25   26 1
    41   26   27 1
    42   26   60 1
    43   26   61 1
    44   27   28 1
    45   27   62 1
    46   27   63 1
    47   28   33 1
    48   28   29 1
    49   29   30 1
    50   29   64 1
    51   29   65 1
    52   30   31 1
    53   30   66 1
    54   30   67 1
    55   31   32 1
    56   31   34 1
    57   31   83 1
    58   32   33 1
    59   32   68 1
    60   32   69 1
    61   33   70 1
    62   33   71 1
    63   34   35 1
    64   34   41 1
    65   34   72 1
    66   35   40 ar
    67   35   36 ar
    68   36   37 ar
    69   36   73 1
    70   37   38 ar
    71   37   74 1
    72   38   39 ar
    73   38   75 1
    74   39   40 ar
    75   39   76 1
    76   40   77 1
    77   41   46 ar
    78   41   42 ar
    79   42   43 ar
    80   42   78 1
    81   43   44 ar
    82   43   79 1
    83   44   45 ar
    84   44   80 1
    85   45   46 ar
    86   45   81 1
    87   46   82 1
@<TRIPOS>MOLECULE
ZINC19685792
   84    88     0     0     0
SMALL
USER_CHARGES

@<TRIPOS>ATOM
      1 C1          6.3668  -10.7886   -1.6725 C.3       1 <0>        -0.1222
      2 C2          5.1204  -10.0035   -1.3545 C.2       1 <0>         0.2445
      3 C3          4.7121   -9.0371   -2.1950 C.2       1 <0>        -0.2589
      4 C4          3.4714   -8.2348   -1.9225 C.3       1 <0>         0.0892
      5 H1          3.6718   -7.1832   -2.1276 H         1 <0>         0.1025
      6 C5          3.0435   -8.3866   -0.4903 C.2       1 <0>        -0.2541
      7 C6          3.5189   -9.3791    0.2817 C.2       1 <0>         0.2105
      8 N1          4.4153  -10.2867   -0.2168 N.pl3     1 <0>        -0.6283
      9 C7          3.0553   -9.4976    1.7107 C.3       1 <0>        -0.1361
     10 C8          2.1212   -7.4653    0.0575 C.2       1 <0>         0.5473
     11 O1          2.4847   -6.3414    0.3500 O.2       1 <0>        -0.4710
     12 O2          0.8378   -7.8324    0.2559 O.3       1 <0>        -0.3668
     13 C9         -0.0112   -6.8920    0.9169 C.3       1 <0>         0.0260
     14 C10        -1.3820   -7.5262    1.1610 C.3       1 <0>         0.0002
     15 N2         -2.0283   -7.8068   -0.1281 N.4       1 <0>        -0.3891
     16 C11        -2.3082   -6.5422   -0.8206 C.3       1 <0>        -0.0088
     17 C12        -2.9644   -6.8347   -2.1718 C.3       1 <0>         0.0278
     18 N3         -4.2117   -7.5816   -1.9560 N.3       1 <0>        -0.5264
     19 C13        -3.9502   -8.8389   -1.2413 C.3       1 <0>         0.0231
     20 C14        -3.2859   -8.5299    0.1022 C.3       1 <0>        -0.0009
     21 C15        -4.9016   -7.8330   -3.2283 C.3       1 <0>         0.1796
     22 C16        -6.1905   -8.5677   -2.9642 C.ar      1 <0>        -0.0915
     23 C17        -6.9741   -8.2208   -1.8795 C.ar      1 <0>        -0.0962
     24 C18        -8.1565   -8.8947   -1.6372 C.ar      1 <0>        -0.1219
     25 C19        -8.5555   -9.9154   -2.4799 C.ar      1 <0>        -0.1102
     26 C20        -7.7723  -10.2617   -3.5650 C.ar      1 <0>        -0.1153
     27 C21        -6.5921   -9.5849   -3.8098 C.ar      1 <0>        -0.1089
     28 C22        -5.2013   -6.5203   -3.9051 C.ar      1 <0>        -0.0954
     29 C23        -5.6253   -5.4379   -3.1571 C.ar      1 <0>        -0.0975
     30 C24        -5.9002   -4.2338   -3.7779 C.ar      1 <0>        -0.1234
     31 C25        -5.7506   -4.1119   -5.1467 C.ar      1 <0>        -0.1088
     32 C26        -5.3257   -5.1940   -5.8947 C.ar      1 <0>        -0.1125
     33 C27        -5.0467   -6.3969   -5.2733 C.ar      1 <0>        -0.1035
     34 C28         2.3629   -8.7136   -2.8241 C.ar      1 <0>        -0.0705
     35 C29         1.9978  -10.0471   -2.8225 C.ar      1 <0>        -0.0518
     36 C30         0.9811  -10.4862   -3.6493 C.ar      1 <0>        -0.1160
     37 C31         0.3288   -9.5920   -4.4778 C.ar      1 <0>        -0.0611
     38 C32         0.6932   -8.2587   -4.4787 C.ar      1 <0>        -0.0479
     39 C33         1.7073   -7.8186   -3.6485 C.ar      1 <0>        -0.0451
     40 N4         -0.0048   -7.3014   -5.3661 N.pl3     1 <0>         0.0299
     41 O3         -0.9548   -7.6650   -6.0194 O.2       1 <0>        -0.1548
     42 O4          0.3752   -6.1559   -5.4375 O.3       1 <0>        -0.1506
     43 C34         5.4668   -8.7696   -3.3606 C.2       1 <0>         0.5149
     44 O5          6.4740   -9.4113   -3.5938 O.2       1 <0>        -0.5104
     45 O6          5.0700   -7.8026   -4.2142 O.3       1 <0>        -0.3530
     46 C35         5.8800   -7.5864   -5.3714 C.3       1 <0>         0.0353
     47 H2          6.5409  -11.5267   -0.8895 H         1 <0>         0.0687
     48 H3          6.2423  -11.2962   -2.6291 H         1 <0>         0.1065
     49 H4          7.2187  -10.1109   -1.7289 H         1 <0>         0.1095
     50 H5          4.5542  -11.1312    0.2397 H         1 <0>         0.4286
     51 H6          2.2118  -10.1859    1.7631 H         1 <0>         0.0975
     52 H7          3.8711   -9.8750    2.3272 H         1 <0>         0.0937
     53 H8          2.7477   -8.5175    2.0754 H         1 <0>         0.0840
     54 H9          0.4334   -6.6092    1.8711 H         1 <0>         0.1169
     55 H10        -0.1268   -6.0057    0.2930 H         1 <0>         0.0945
     56 H11        -1.2584   -8.4564    1.7156 H         1 <0>         0.1435
     57 H12        -2.0027   -6.8396    1.7367 H         1 <0>         0.1533
     58 H13        -2.9812   -5.9367   -0.2135 H         1 <0>         0.1439
     59 H14        -1.3757   -6.0006   -0.9793 H         1 <0>         0.1320
     60 H15        -3.1858   -5.8959   -2.6794 H         1 <0>         0.1300
     61 H16        -2.2861   -7.4287   -2.7844 H         1 <0>         0.0542
     62 H17        -4.8908   -9.3623   -1.0700 H         1 <0>         0.1298
     63 H18        -3.2882   -9.4659   -1.8386 H         1 <0>         0.0600
     64 H19        -3.0782   -9.4619    0.6278 H         1 <0>         0.1366
     65 H20        -3.9539   -7.9142    0.7046 H         1 <0>         0.1409
     66 H21        -4.2645   -8.4375   -3.8739 H         1 <0>         0.0678
     67 H22        -6.6624   -7.4234   -1.2212 H         1 <0>         0.1271
     68 H23        -8.7683   -8.6241   -0.7894 H         1 <0>         0.1239
     69 H24        -9.4788  -10.4424   -2.2902 H         1 <0>         0.1248
     70 H25        -8.0838  -11.0594   -4.2232 H         1 <0>         0.1259
     71 H26        -5.9821   -9.8530   -4.6597 H         1 <0>         0.1211
     72 H27        -5.7422   -5.5331   -2.0877 H         1 <0>         0.1255
     73 H28        -6.2322   -3.3884   -3.1936 H         1 <0>         0.1231
     74 H29        -5.9661   -3.1714   -5.6319 H         1 <0>         0.1248
     75 H30        -5.2091   -5.0989   -6.9641 H         1 <0>         0.1270
     76 H31        -4.7111   -7.2412   -5.8571 H         1 <0>         0.1225
     77 H32         2.5073  -10.7457   -2.1753 H         1 <0>         0.1343
     78 H33         0.6964  -11.5280   -3.6486 H         1 <0>         0.1483
     79 H34        -0.4651   -9.9353   -5.1244 H         1 <0>         0.1525
     80 H35         1.9895   -6.7762   -3.6465 H         1 <0>         0.1530
     81 H36         5.4500   -6.7842   -5.9712 H         1 <0>         0.1032
     82 H37         6.8879   -7.3090   -5.0627 H         1 <0>         0.0640
     83 H38         5.9200   -8.5010   -5.9630 H         1 <0>         0.0608
     84 H39        -1.4147   -8.3720   -0.6957 H         1 <0>         0.4245
@<TRIPOS>BOND
     1    1    2 1
     2    1   47 1
     3    1   48 1
     4    1   49 1
     5    2    8 1
     6    2    3 2
     7    3    4 1
     8    3   43 1
     9    4    5 1
    10    4    6 1
    11    4   34 1
    12    6    7 2
    13    6   10 1
    14    7    8 1
    15    7    9 1
    16    8   50 1
    17    9   51 1
    18    9   52 1
    19    9   53 1
    20   10   11 2
    21   10   12 1
    22   12   13 1
    23   13   14 1
    24   13   54 1
    25   13   55 1
    26   14   15 1
    27   14   56 1
    28   14   57 1
    29   15   20 1
    30   15   16 1
    31   15   84 1
    32   16   17 1
    33   16   58 1
    34   16   59 1
    35   17   18 1
    36   17   60 1
    37   17   61 1
    38   18   19 1
    39   18   21 1
    40   19   20 1
    41   19   62 1
    42   19   63 1
    43   20   64 1
    44   20   65 1
    45   21   22 1
    46   21   28 1
    47   21   66 1
    48   22   27 ar
    49   22   23 ar
    50   23   24 ar
    51   23   67 1
    52   24   25 ar
    53   24   68 1
    54   25   26 ar
    55   25   69 1
    56   26   27 ar
    57   26   70 1
    58   27   71 1
    59   28   33 ar
    60   28   29 ar
    61   29   30 ar
    62   29   72 1
    63   30   31 ar
    64   30   73 1
    65   31   32 ar
    66   31   74 1
    67   32   33 ar
    68   32   75 1
    69   33   76 1
    70   34   39 ar
    71   34   35 ar
    72   35   36 ar
    73   35   77 1
    74   36   37 ar
    75   36   78 1
    76   37   38 ar
    77   37   79 1
    78   38   39 ar
    79   38   40 1
    80   39   80 1
    81   40   41 2
    82   40   42 1
    83   43   44 2
    84   43   45 1
    85   45   46 1
    86   46   81 1
    87   46   82 1
    88   46   83 1
@<TRIPOS>MOLECULE
ZINC19685795
   83    87     0     0     0
SMALL
USER_CHARGES

@<TRIPOS>ATOM
      1 C1          0.1125    1.3967   -0.1967 C.3       1 <0>        -0.1032
      2 C2          0.3665   -0.0868   -0.2721 C.2       1 <0>         0.3051
      3 C3         -0.7014   -0.9377   -0.2659 C.2       1 <0>        -0.4023
      4 C4         -0.4139   -2.4260   -0.3434 C.3       1 <0>         0.1212
      5 H1         -0.8464   -2.9027    0.5363 H         1 <0>         0.0429
      6 C5          1.0522   -2.8138   -0.4207 C.2       1 <0>        -0.3941
      7 C6          1.4441   -4.1325   -0.4954 C.2       1 <0>         0.4752
      8 O1          2.7420   -4.4398   -0.6881 O.3       1 <0>        -0.6283
      9 O2          0.5296   -5.1150   -0.3759 O.3       1 <0>        -0.3407
     10 C7          1.0065   -6.4593   -0.4633 C.3       1 <0>         0.0411
     11 C8          1.9855   -1.7757   -0.4131 C.2       1 <0>         0.3213
     12 N1          1.6168   -0.5167   -0.3474 N.2       1 <0>        -0.6393
     13 C9          3.4536   -2.1078   -0.4880 C.3       1 <0>        -0.0988
     14 C10        -1.1075   -2.9767   -1.5627 C.ar      1 <0>        -0.0362
     15 C11        -0.7860   -2.4943   -2.8179 C.ar      1 <0>        -0.0473
     16 C12        -1.4221   -2.9993   -3.9362 C.ar      1 <0>        -0.1185
     17 C13        -2.3797   -3.9872   -3.7997 C.ar      1 <0>        -0.0721
     18 C14        -2.7005   -4.4701   -2.5450 C.ar      1 <0>        -0.0601
     19 C15        -2.0610   -3.9679   -1.4268 C.ar      1 <0>        -0.0432
     20 N2         -3.7260   -5.5274   -2.3988 N.pl3     1 <0>         0.0429
     21 O3         -4.2831   -5.9686   -3.3770 O.2       1 <0>        -0.1654
     22 O4         -4.0066   -5.9497   -1.3013 O.3       1 <0>        -0.1852
     23 C16        -2.0189   -0.4530   -0.1900 C.2       1 <0>         0.5287
     24 O5         -2.2241    0.7459   -0.1283 O.2       1 <0>        -0.5466
     25 O6         -3.0571   -1.3170   -0.1856 O.3       1 <0>        -0.3767
     26 C17        -4.3685   -0.7549   -0.1065 C.3       1 <0>         0.0375
     27 C18        -5.4065   -1.8790   -0.1137 C.3       1 <0>         0.0006
     28 N3         -5.2369   -2.7097    1.0859 N.4       1 <0>        -0.3871
     29 C19        -6.1323   -3.8714    1.0072 C.3       1 <0>        -0.0004
     30 C20        -5.9424   -4.7470    2.2478 C.3       1 <0>         0.0265
     31 N4         -6.2404   -3.9577    3.4513 N.3       1 <0>        -0.5295
     32 C21        -5.3682   -2.7774    3.5306 C.3       1 <0>         0.0244
     33 C22        -5.5628   -1.9180    2.2795 C.3       1 <0>        -0.0048
     34 C23        -6.1241   -4.7805    4.6626 C.3       1 <0>         0.1757
     35 C24        -6.4361   -3.9391    5.8733 C.ar      1 <0>        -0.0887
     36 C25        -7.4700   -3.0225    5.8302 C.ar      1 <0>        -0.0957
     37 C26        -7.7562   -2.2507    6.9407 C.ar      1 <0>        -0.1226
     38 C27        -7.0087   -2.3958    8.0945 C.ar      1 <0>        -0.1123
     39 C28        -5.9754   -3.3130    8.1379 C.ar      1 <0>        -0.1162
     40 C29        -5.6920   -4.0878    7.0288 C.ar      1 <0>        -0.1089
     41 C30        -7.0967   -5.9291    4.5850 C.ar      1 <0>        -0.0878
     42 C31        -8.3636   -5.7283    4.0696 C.ar      1 <0>        -0.0938
     43 C32        -9.2557   -6.7819    3.9984 C.ar      1 <0>        -0.1226
     44 C33        -8.8808   -8.0362    4.4421 C.ar      1 <0>        -0.1120
     45 C34        -7.6136   -8.2372    4.9566 C.ar      1 <0>        -0.1162
     46 C35        -6.7200   -7.1846    5.0239 C.ar      1 <0>        -0.1087
     47 H2          1.0632    1.9296   -0.2170 H         1 <0>         0.0610
     48 H3         -0.4950    1.7051   -1.0476 H         1 <0>         0.0790
     49 H4         -0.4143    1.6286    0.7289 H         1 <0>         0.0785
     50 H5          1.4785   -6.6150   -1.4334 H         1 <0>         0.0531
     51 H6          1.7343   -6.6388    0.3280 H         1 <0>         0.0561
     52 H7          0.1703   -7.1494   -0.3512 H         1 <0>         0.0851
     53 H8          3.6712   -2.5784   -1.4468 H         1 <0>         0.0850
     54 H9          4.0384   -1.1931   -0.3912 H         1 <0>         0.0553
     55 H10         3.7129   -2.7921    0.3198 H         1 <0>         0.0838
     56 H11        -0.0380   -1.7226   -2.9245 H         1 <0>         0.1340
     57 H12        -1.1714   -2.6220   -4.9166 H         1 <0>         0.1415
     58 H13        -2.8772   -4.3814   -4.6734 H         1 <0>         0.1454
     59 H14        -2.3090   -4.3479   -0.4467 H         1 <0>         0.1358
     60 H15        -4.4623   -0.1796    0.8145 H         1 <0>         0.0838
     61 H16        -4.5356   -0.1006   -0.9622 H         1 <0>         0.1039
     62 H17        -6.4079   -1.4487   -0.1191 H         1 <0>         0.1451
     63 H18        -5.2703   -2.4936   -1.0035 H         1 <0>         0.1319
     64 H19        -7.1664   -3.5304    0.9581 H         1 <0>         0.1356
     65 H20        -5.8980   -4.4509    0.1143 H         1 <0>         0.1374
     66 H21        -6.6174   -5.6013    2.1968 H         1 <0>         0.1270
     67 H22        -4.9118   -5.0994    2.2900 H         1 <0>         0.0665
     68 H23        -5.6243   -2.1947    4.4155 H         1 <0>         0.1258
     69 H24        -4.3281   -3.0973    3.5939 H         1 <0>         0.0637
     70 H25        -4.9064   -1.0493    2.3296 H         1 <0>         0.1343
     71 H26        -6.5999   -1.5870    2.2238 H         1 <0>         0.1372
     72 H27        -5.1088   -5.1689    4.7420 H         1 <0>         0.0682
     73 H28        -8.0539   -2.9092    4.9288 H         1 <0>         0.1281
     74 H29        -8.5635   -1.5341    6.9068 H         1 <0>         0.1231
     75 H30        -7.2319   -1.7922    8.9619 H         1 <0>         0.1233
     76 H31        -5.3913   -3.4261    9.0392 H         1 <0>         0.1247
     77 H32        -4.8871   -4.8071    7.0639 H         1 <0>         0.1210
     78 H33        -8.6565   -4.7483    3.7229 H         1 <0>         0.1276
     79 H34       -10.2457   -6.6249    3.5964 H         1 <0>         0.1227
     80 H35        -9.5780   -8.8592    4.3871 H         1 <0>         0.1231
     81 H36        -7.3208   -9.2171    5.3036 H         1 <0>         0.1245
     82 H37        -5.7287   -7.3424    5.4225 H         1 <0>         0.1206
     83 H38        -4.2804   -3.0260    1.1433 H         1 <0>         0.4292
@<TRIPOS>BOND
     1    1    2 1
     2    1   47 1
     3    1   48 1
     4    1   49 1
     5    2   12 1
     6    2    3 2
     7    3    4 1
     8    3   23 1
     9    4    5 1
    10    4    6 1
    11    4   14 1
    12    6    7 2
    13    6   11 1
    14    7    8 1
    15    7    9 1
    16    9   10 1
    17   10   50 1
    18   10   51 1
    19   10   52 1
    20   11   12 2
    21   11   13 1
    22   13   53 1
    23   13   54 1
    24   13   55 1
    25   14   19 ar
    26   14   15 ar
    27   15   16 ar
    28   15   56 1
    29   16   17 ar
    30   16   57 1
    31   17   18 ar
    32   17   58 1
    33   18   19 ar
    34   18   20 1
    35   19   59 1
    36   20   21 2
    37   20   22 1
    38   23   24 2
    39   23   25 1
    40   25   26 1
    41   26   27 1
    42   26   60 1
    43   26   61 1
    44   27   28 1
    45   27   62 1
    46   27   63 1
    47   28   33 1
    48   28   29 1
    49   28   83 1
    50   29   30 1
    51   29   64 1
    52   29   65 1
    53   30   31 1
    54   30   66 1
    55   30   67 1
    56   31   32 1
    57   31   34 1
    58   32   33 1
    59   32   68 1
    60   32   69 1
    61   33   70 1
    62   33   71 1
    63   34   35 1
    64   34   41 1
    65   34   72 1
    66   35   40 ar
    67   35   36 ar
    68   36   37 ar
    69   36   73 1
    70   37   38 ar
    71   37   74 1
    72   38   39 ar
    73   38   75 1
    74   39   40 ar
    75   39   76 1
    76   40   77 1
    77   41   46 ar
    78   41   42 ar
    79   42   43 ar
    80   42   78 1
    81   43   44 ar
    82   43   79 1
    83   44   45 ar
    84   44   80 1
    85   45   46 ar
    86   45   81 1
    87   46   82 1
@<TRIPOS>MOLECULE
ZINC19685795
   84    88     0     0     0
SMALL
USER_CHARGES

@<TRIPOS>ATOM
      1 C1         -1.9372    1.5795    0.9586 C.3       1 <0>        -0.1190
      2 C2         -1.3869    0.2079    0.6642 C.2       1 <0>         0.2434
      3 C3         -1.0508   -0.6049    1.6808 C.2       1 <0>        -0.2594
      4 C4         -0.4901   -1.9767    1.4344 C.3       1 <0>         0.0903
      5 H1         -0.9638   -2.6854    2.1137 H         1 <0>         0.0976
      6 C5         -0.7405   -2.4072    0.0170 C.2       1 <0>        -0.2320
      7 C6         -1.0890   -1.5223   -0.9331 C.2       1 <0>         0.1893
      8 N1         -1.2405   -0.1970   -0.6345 N.pl3     1 <0>        -0.6275
      9 C7         -1.3213   -1.9979   -2.3440 C.3       1 <0>        -0.1281
     10 C8         -0.6064   -3.7727   -0.3253 C.2       1 <0>         0.5332
     11 O1          0.4979   -4.2458   -0.5187 O.2       1 <0>        -0.4869
     12 O2         -1.7031   -4.5511   -0.4375 O.3       1 <0>        -0.3357
     13 C9         -1.4934   -5.9210   -0.7861 C.3       1 <0>         0.0659
     14 C10        -2.8421   -6.6391   -0.8658 C.3       1 <0>         0.0555
     15 N2         -3.6431   -6.0577   -1.9513 N.3       1 <0>        -0.5318
     16 C11        -5.0688   -6.3707   -1.7797 C.3       1 <0>         0.0298
     17 C12        -5.8732   -5.6989   -2.8947 C.3       1 <0>        -0.0036
     18 N3         -5.4016   -6.1830   -4.1988 N.4       1 <0>        -0.3840
     19 C13        -3.9828   -5.8414   -4.3659 C.3       1 <0>        -0.0025
     20 C14        -3.1626   -6.5144   -3.2631 C.3       1 <0>         0.0225
     21 C15        -6.1862   -5.5514   -5.2682 C.3       1 <0>         0.1350
     22 C16        -5.7025   -6.0479   -6.6063 C.ar      1 <0>        -0.1320
     23 C17        -5.3697   -7.3795   -6.7704 C.ar      1 <0>        -0.1215
     24 C18        -4.9260   -7.8349   -7.9978 C.ar      1 <0>        -0.1023
     25 C19        -4.8156   -6.9587   -9.0613 C.ar      1 <0>        -0.0918
     26 C20        -5.1492   -5.6273   -8.8975 C.ar      1 <0>        -0.1034
     27 C21        -5.5970   -5.1728   -7.6712 C.ar      1 <0>        -0.0866
     28 C22        -7.6417   -5.9032   -5.0980 C.ar      1 <0>        -0.1317
     29 C23        -8.0035   -7.1799   -4.7105 C.ar      1 <0>        -0.1219
     30 C24        -9.3385   -7.5025   -4.5545 C.ar      1 <0>        -0.1021
     31 C25       -10.3118   -6.5484   -4.7855 C.ar      1 <0>        -0.0918
     32 C26        -9.9499   -5.2715   -5.1722 C.ar      1 <0>        -0.1030
     33 C27        -8.6147   -4.9477   -5.3241 C.ar      1 <0>        -0.0866
     34 C28         0.9947   -1.9594    1.6918 C.ar      1 <0>        -0.0722
     35 C29         1.8133   -1.1186    0.9608 C.ar      1 <0>        -0.0508
     36 C30         3.1750   -1.1028    1.1968 C.ar      1 <0>        -0.1156
     37 C31         3.7185   -1.9274    2.1644 C.ar      1 <0>        -0.0544
     38 C32         2.9001   -2.7673    2.8958 C.ar      1 <0>        -0.0446
     39 C33         1.5374   -2.7800    2.6626 C.ar      1 <0>        -0.0369
     40 N4          3.4820   -3.6505    3.9313 N.pl3     1 <0>         0.0331
     41 O3          4.6733   -3.6372    4.1372 O.2       1 <0>        -0.1562
     42 O4          2.7661   -4.3852    4.5711 O.3       1 <0>        -0.1575
     43 C34        -1.2286   -0.1588    3.0109 C.2       1 <0>         0.5169
     44 O5         -1.6814    0.9501    3.2254 O.2       1 <0>        -0.5155
     45 O6         -0.8961   -0.9630    4.0424 O.3       1 <0>        -0.3513
     46 C35        -1.1022   -0.4478    5.3592 C.3       1 <0>         0.0357
     47 H2         -2.1567    2.0918    0.0218 H         1 <0>         0.0657
     48 H3         -2.8516    1.4861    1.5444 H         1 <0>         0.1072
     49 H4         -1.2015    2.1529    1.5225 H         1 <0>         0.1049
     50 H5         -1.2401    0.4601   -1.3480 H         1 <0>         0.4239
     51 H6         -2.3458   -2.3567   -2.4424 H         1 <0>         0.0943
     52 H7         -1.1571   -1.1729   -3.0372 H         1 <0>         0.0832
     53 H8         -0.6290   -2.8081   -2.5730 H         1 <0>         0.0844
     54 H9         -0.9941   -5.9774   -1.7534 H         1 <0>         0.0685
     55 H10        -0.8721   -6.3978   -0.0281 H         1 <0>         0.0816
     56 H11        -2.6784   -7.6987   -1.0623 H         1 <0>         0.0736
     57 H12        -3.3721   -6.5225    0.0795 H         1 <0>         0.1017
     58 H13        -5.2125   -7.4502   -1.8272 H         1 <0>         0.0604
     59 H14        -5.4085   -6.0005   -0.8124 H         1 <0>         0.1273
     60 H15        -6.9294   -5.9415   -2.7774 H         1 <0>         0.1371
     61 H16        -5.7402   -4.6185   -2.8384 H         1 <0>         0.1396
     62 H17        -3.6375   -6.1896   -5.3393 H         1 <0>         0.1367
     63 H18        -3.8594   -4.7603   -4.3020 H         1 <0>         0.1386
     64 H19        -2.1117   -6.2490   -3.3781 H         1 <0>         0.1231
     65 H20        -3.2749   -7.5962   -3.3351 H         1 <0>         0.0621
     66 H21        -6.0655   -4.4694   -5.2168 H         1 <0>         0.1481
     67 H22        -5.4560   -8.0640   -5.9395 H         1 <0>         0.1136
     68 H23        -4.6654   -8.8751   -8.1258 H         1 <0>         0.1353
     69 H24        -4.4682   -7.3144  -10.0201 H         1 <0>         0.1362
     70 H25        -5.0626   -4.9427   -9.7283 H         1 <0>         0.1375
     71 H26        -5.8612   -4.1333   -7.5442 H         1 <0>         0.1329
     72 H27        -7.2431   -7.9253   -4.5300 H         1 <0>         0.1134
     73 H28        -9.6212   -8.5001   -4.2524 H         1 <0>         0.1353
     74 H29       -11.3549   -6.8007   -4.6643 H         1 <0>         0.1363
     75 H30       -10.7103   -4.5262   -5.3530 H         1 <0>         0.1375
     76 H31        -8.3318   -3.9490   -5.6225 H         1 <0>         0.1329
     77 H32         1.3887   -0.4745    0.2050 H         1 <0>         0.1291
     78 H33         3.8145   -0.4465    0.6253 H         1 <0>         0.1470
     79 H34         4.7827   -1.9155    2.3483 H         1 <0>         0.1540
     80 H35         0.8973   -3.4336    3.2367 H         1 <0>         0.1504
     81 H36        -0.7949   -1.1928    6.0931 H         1 <0>         0.1028
     82 H37        -0.5107    0.4582    5.4917 H         1 <0>         0.0606
     83 H38        -2.1582   -0.2157    5.4974 H         1 <0>         0.0619
     84 H39        -5.5140   -7.1846   -4.2463 H         1 <0>         0.4138
@<TRIPOS>BOND
     1    1    2 1
     2    1   47 1
     3    1   48 1
     4    1   49 1
     5    2    8 1
     6    2    3 2
     7    3    4 1
     8    3   43 1
     9    4    5 1
    10    4    6 1
    11    4   34 1
    12    6    7 2
    13    6   10 1
    14    7    8 1
    15    7    9 1
    16    8   50 1
    17    9   51 1
    18    9   52 1
    19    9   53 1
    20   10   11 2
    21   10   12 1
    22   12   13 1
    23   13   14 1
    24   13   54 1
    25   13   55 1
    26   14   15 1
    27   14   56 1
    28   14   57 1
    29   15   20 1
    30   15   16 1
    31   16   17 1
    32   16   58 1
    33   16   59 1
    34   17   18 1
    35   17   60 1
    36   17   61 1
    37   18   19 1
    38   18   21 1
    39   18   84 1
    40   19   20 1
    41   19   62 1
    42   19   63 1
    43   20   64 1
    44   20   65 1
    45   21   22 1
    46   21   28 1
    47   21   66 1
    48   22   27 ar
    49   22   23 ar
    50   23   24 ar
    51   23   67 1
    52   24   25 ar
    53   24   68 1
    54   25   26 ar
    55   25   69 1
    56   26   27 ar
    57   26   70 1
    58   27   71 1
    59   28   33 ar
    60   28   29 ar
    61   29   30 ar
    62   29   72 1
    63   30   31 ar
    64   30   73 1
    65   31   32 ar
    66   31   74 1
    67   32   33 ar
    68   32   75 1
    69   33   76 1
    70   34   39 ar
    71   34   35 ar
    72   35   36 ar
    73   35   77 1
    74   36   37 ar
    75   36   78 1
    76   37   38 ar
    77   37   79 1
    78   38   39 ar
    79   38   40 1
    80   39   80 1
    81   40   41 2
    82   40   42 1
    83   43   44 2
    84   43   45 1
    85   45   46 1
    86   46   81 1
    87   46   82 1
    88   46   83 1
@<TRIPOS>MOLECULE
ZINC19685795
   83    87     0     0     0
SMALL
USER_CHARGES

@<TRIPOS>ATOM
      1 C1         -1.9366    1.5755    0.9585 C.3       1 <0>        -0.1177
      2 C2         -1.3862    0.2038    0.6644 C.2       1 <0>         0.2469
      3 C3         -1.0493   -0.6084    1.6813 C.2       1 <0>        -0.2651
      4 C4         -0.4884   -1.9802    1.4353 C.3       1 <0>         0.0896
      5 H1         -0.9615   -2.6886    2.1153 H         1 <0>         0.0977
      6 C5         -0.7398   -2.4115    0.0182 C.2       1 <0>        -0.2295
      7 C6         -1.0890   -1.5272   -0.9320 C.2       1 <0>         0.1888
      8 N1         -1.2406   -0.2019   -0.6341 N.pl3     1 <0>        -0.6265
      9 C7         -1.3223   -2.0037   -2.3426 C.3       1 <0>        -0.1297
     10 C8         -0.6056   -3.7772   -0.3234 C.2       1 <0>         0.5300
     11 O1          0.4988   -4.2504   -0.5165 O.2       1 <0>        -0.4950
     12 O2         -1.7022   -4.5557   -0.4351 O.3       1 <0>        -0.3294
     13 C9         -1.4925   -5.9257   -0.7831 C.3       1 <0>         0.0704
     14 C10        -2.8412   -6.6440   -0.8624 C.3       1 <0>         0.0551
     15 N2         -3.6422   -6.0630   -1.9481 N.3       1 <0>        -0.5327
     16 C11        -5.0680   -6.3740   -1.7751 C.3       1 <0>         0.0607
     17 C12        -5.8750   -5.6864   -2.8789 C.3       1 <0>         0.0586
     18 N3         -5.3947   -6.1434   -4.1904 N.3       1 <0>        -0.5280
     19 C13        -3.9689   -5.8324   -4.3634 C.3       1 <0>         0.0586
     20 C14        -3.1619   -6.5200   -3.2596 C.3       1 <0>         0.0552
     21 C15        -6.1958   -5.5625   -5.2761 C.3       1 <0>         0.1694
     22 C16        -5.6749   -6.0528   -6.6025 C.ar      1 <0>        -0.0771
     23 C17        -5.2791   -7.3695   -6.7456 C.ar      1 <0>        -0.0906
     24 C18        -4.8013   -7.8193   -7.9622 C.ar      1 <0>        -0.1236
     25 C19        -4.7196   -6.9524   -9.0359 C.ar      1 <0>        -0.1183
     26 C20        -5.1162   -5.6359   -8.8931 C.ar      1 <0>        -0.1204
     27 C21        -5.5981   -5.1873   -7.6776 C.ar      1 <0>        -0.1133
     28 C22        -7.6352   -5.9791   -5.1166 C.ar      1 <0>        -0.0767
     29 C23        -7.9419   -7.2662   -4.7162 C.ar      1 <0>        -0.0894
     30 C24        -9.2623   -7.6484   -4.5699 C.ar      1 <0>        -0.1239
     31 C25       -10.2760   -6.7434   -4.8237 C.ar      1 <0>        -0.1183
     32 C26        -9.9693   -5.4561   -5.2232 C.ar      1 <0>        -0.1206
     33 C27        -8.6488   -5.0726   -5.3654 C.ar      1 <0>        -0.1134
     34 C28         0.9965   -1.9625    1.6916 C.ar      1 <0>        -0.0667
     35 C29         1.8144   -1.1219    0.9595 C.ar      1 <0>        -0.0495
     36 C30         3.1763   -1.1056    1.1946 C.ar      1 <0>        -0.1167
     37 C31         3.7207   -1.9296    2.1622 C.ar      1 <0>        -0.0569
     38 C32         2.9029   -2.7693    2.8947 C.ar      1 <0>        -0.0458
     39 C33         1.5401   -2.7824    2.6625 C.ar      1 <0>        -0.0362
     40 N4          3.4858   -3.6518    3.9303 N.pl3     1 <0>         0.0350
     41 O3          4.6772   -3.6382    4.1354 O.2       1 <0>        -0.1610
     42 O4          2.7705   -4.3863    4.5710 O.3       1 <0>        -0.1579
     43 C34        -1.2262   -0.1616    3.0112 C.2       1 <0>         0.5196
     44 O5         -1.6791    0.9474    3.2254 O.2       1 <0>        -0.5197
     45 O6         -0.8928   -0.9651    4.0430 O.3       1 <0>        -0.3509
     46 C35        -1.0981   -0.4492    5.3597 C.3       1 <0>         0.0365
     47 H2         -2.1568    2.0871    0.0215 H         1 <0>         0.0652
     48 H3         -2.8506    1.4821    1.5450 H         1 <0>         0.1067
     49 H4         -1.2006    2.1493    1.5215 H         1 <0>         0.1031
     50 H5         -1.2409    0.4549   -1.3480 H         1 <0>         0.4232
     51 H6         -2.3468   -2.3628   -2.4400 H         1 <0>         0.1001
     52 H7         -1.1587   -1.1791   -3.0363 H         1 <0>         0.0812
     53 H8         -0.6300   -2.8139   -2.5715 H         1 <0>         0.0856
     54 H9         -0.9932   -5.9826   -1.7503 H         1 <0>         0.0674
     55 H10        -0.8712   -6.4022   -0.0248 H         1 <0>         0.0724
     56 H11        -2.6775   -7.7036   -1.0585 H         1 <0>         0.0625
     57 H12        -3.3712   -6.5270    0.0828 H         1 <0>         0.0877
     58 H13        -5.2150   -7.4524   -1.8352 H         1 <0>         0.0437
     59 H14        -5.4031   -6.0147   -0.8020 H         1 <0>         0.0813
     60 H15        -6.9297   -5.9392   -2.7695 H         1 <0>         0.0839
     61 H16        -5.7498   -4.6063   -2.8019 H         1 <0>         0.0428
     62 H17        -3.6338   -6.1917   -5.3364 H         1 <0>         0.0845
     63 H18        -3.8220   -4.7541   -4.3033 H         1 <0>         0.0415
     64 H19        -2.1073   -6.2672   -3.3689 H         1 <0>         0.0772
     65 H20        -3.2872   -7.6001   -3.3366 H         1 <0>         0.0449
     66 H21        -6.1258   -4.4754   -5.2376 H         1 <0>         0.0564
     67 H22        -5.3429   -8.0468   -5.9067 H         1 <0>         0.1284
     68 H23        -4.4914   -8.8478   -8.0738 H         1 <0>         0.1212
     69 H24        -4.3456   -7.3037   -9.9863 H         1 <0>         0.1204
     70 H25        -5.0521   -4.9586   -9.7318 H         1 <0>         0.1212
     71 H26        -5.9114   -4.1597   -7.5670 H         1 <0>         0.1178
     72 H27        -7.1499   -7.9732   -4.5180 H         1 <0>         0.1284
     73 H28        -9.5019   -8.6541   -4.2578 H         1 <0>         0.1210
     74 H29       -11.3076   -7.0423   -4.7101 H         1 <0>         0.1203
     75 H30       -10.7612   -4.7492   -5.4218 H         1 <0>         0.1211
     76 H31        -8.4091   -4.0658   -5.6739 H         1 <0>         0.1176
     77 H32         1.3892   -0.4783    0.2037 H         1 <0>         0.1298
     78 H33         3.8153   -0.4495    0.6223 H         1 <0>         0.1458
     79 H34         4.7850   -1.9174    2.3455 H         1 <0>         0.1522
     80 H35         0.9006   -3.4358    3.2374 H         1 <0>         0.1509
     81 H36        -0.7901   -1.1938    6.0937 H         1 <0>         0.1013
     82 H37        -0.5067    0.4570    5.4912 H         1 <0>         0.0587
     83 H38        -2.1540   -0.2172    5.4985 H         1 <0>         0.0610
@<TRIPOS>BOND
     1    1    2 1
     2    1   47 1
     3    1   48 1
     4    1   49 1
     5    2    8 1
     6    2    3 2
     7    3    4 1
     8    3   43 1
     9    4    5 1
    10    4    6 1
    11    4   34 1
    12    6    7 2
    13    6   10 1
    14    7    8 1
    15    7    9 1
    16    8   50 1
    17    9   51 1
    18    9   52 1
    19    9   53 1
    20   10   11 2
    21   10   12 1
    22   12   13 1
    23   13   14 1
    24   13   54 1
    25   13   55 1
    26   14   15 1
    27   14   56 1
    28   14   57 1
    29   15   20 1
    30   15   16 1
    31   16   17 1
    32   16   58 1
    33   16   59 1
    34   17   18 1
    35   17   60 1
    36   17   61 1
    37   18   19 1
    38   18   21 1
    39   19   20 1
    40   19   62 1
    41   19   63 1
    42   20   64 1
    43   20   65 1
    44   21   22 1
    45   21   28 1
    46   21   66 1
    47   22   27 ar
    48   22   23 ar
    49   23   24 ar
    50   23   67 1
    51   24   25 ar
    52   24   68 1
    53   25   26 ar
    54   25   69 1
    55   26   27 ar
    56   26   70 1
    57   27   71 1
    58   28   33 ar
    59   28   29 ar
    60   29   30 ar
    61   29   72 1
    62   30   31 ar
    63   30   73 1
    64   31   32 ar
    65   31   74 1
    66   32   33 ar
    67   32   75 1
    68   33   76 1
    69   34   39 ar
    70   34   35 ar
    71   35   36 ar
    72   35   77 1
    73   36   37 ar
    74   36   78 1
    75   37   38 ar
    76   37   79 1
    77   38   39 ar
    78   38   40 1
    79   39   80 1
    80   40   41 2
    81   40   42 1
    82   43   44 2
    83   43   45 1
    84   45   46 1
    85   46   81 1
    86   46   82 1
    87   46   83 1
@<TRIPOS>MOLECULE
ZINC19685795
   82    86     0     0     0
SMALL
USER_CHARGES

@<TRIPOS>ATOM
      1 C1          0.2512    0.7328   -0.4327 C.3       1 <0>        -0.0958
      2 C2          0.0734   -0.7635   -0.4511 C.2       1 <0>         0.2814
      3 C3         -1.1918   -1.2757   -0.4154 C.2       1 <0>        -0.3760
      4 C4         -1.3388   -2.7862   -0.4356 C.3       1 <0>         0.1163
      5 H1         -1.8814   -3.0876    0.4604 H         1 <0>         0.0490
      6 C5         -0.0435   -3.5766   -0.4942 C.2       1 <0>        -0.3985
      7 C6         -0.0423   -4.9541   -0.5178 C.2       1 <0>         0.4741
      8 O1          1.1130   -5.6238   -0.6995 O.3       1 <0>        -0.6459
      9 O2         -1.1962   -5.6318   -0.3592 O.3       1 <0>        -0.3364
     10 C7         -1.1209   -7.0584   -0.3945 C.3       1 <0>         0.0435
     11 C8          1.1459   -2.8463   -0.5236 C.2       1 <0>         0.3163
     12 N1          1.1499   -1.5329   -0.5067 N.2       1 <0>        -0.6451
     13 C9          2.4588   -3.5838   -0.5819 C.3       1 <0>        -0.0921
     14 C10        -2.1701   -3.1624   -1.6349 C.ar      1 <0>        -0.0334
     15 C11        -1.7353   -2.8380   -2.9066 C.ar      1 <0>        -0.0541
     16 C12        -2.4977   -3.1831   -4.0066 C.ar      1 <0>        -0.1277
     17 C13        -3.6950   -3.8530   -3.8353 C.ar      1 <0>        -0.0789
     18 C14        -4.1292   -4.1780   -2.5640 C.ar      1 <0>        -0.0568
     19 C15        -3.3644   -3.8367   -1.4640 C.ar      1 <0>        -0.0182
     20 N2         -5.4112   -4.8948   -2.3806 N.pl3     1 <0>         0.0440
     21 O3         -6.0785   -5.1958   -3.3427 O.2       1 <0>        -0.1867
     22 O4         -5.7910   -5.1791   -1.2686 O.3       1 <0>        -0.1630
     23 C16        -2.3171   -0.4348   -0.3614 C.2       1 <0>         0.5224
     24 O5         -2.1734    0.7746   -0.3458 O.2       1 <0>        -0.5620
     25 O6         -3.5576   -0.9679   -0.3270 O.3       1 <0>        -0.3389
     26 C17        -4.6551   -0.0544   -0.2727 C.3       1 <0>         0.0790
     27 C18        -5.9692   -0.8373   -0.2400 C.3       1 <0>         0.0613
     28 N3         -6.0383   -1.6264    0.9971 N.3       1 <0>        -0.5259
     29 C19        -7.0222   -2.7113    0.8755 C.3       1 <0>         0.0630
     30 C20        -7.0068   -3.5558    2.1518 C.3       1 <0>         0.0616
     31 N4         -7.3115   -2.6994    3.3065 N.3       1 <0>        -0.5285
     32 C21        -6.3276   -1.6146    3.4281 C.3       1 <0>         0.0580
     33 C22        -6.3430   -0.7700    2.1518 C.3       1 <0>         0.0594
     34 C23        -7.3806   -3.4886    4.5436 C.3       1 <0>         0.1648
     35 C24        -7.6941   -2.5785    5.7031 C.ar      1 <0>        -0.0711
     36 C25        -8.6162   -1.5598    5.5525 C.ar      1 <0>        -0.0895
     37 C26        -8.9038   -0.7250    6.6161 C.ar      1 <0>        -0.1254
     38 C27        -8.2696   -0.9092    7.8305 C.ar      1 <0>        -0.1217
     39 C28        -7.3482   -1.9286    7.9814 C.ar      1 <0>        -0.1215
     40 C29        -7.0637   -2.7660    6.9190 C.ar      1 <0>        -0.1127
     41 C30        -8.4624   -4.5298    4.4154 C.ar      1 <0>        -0.0711
     42 C31        -9.6557   -4.2138    3.7932 C.ar      1 <0>        -0.0878
     43 C32       -10.6480   -5.1689    3.6756 C.ar      1 <0>        -0.1248
     44 C33       -10.4470   -6.4402    4.1799 C.ar      1 <0>        -0.1207
     45 C34        -9.2534   -6.7565    4.8013 C.ar      1 <0>        -0.1213
     46 C35        -8.2594   -5.8026    4.9151 C.ar      1 <0>        -0.1121
     47 H2          1.3138    0.9729   -0.4706 H         1 <0>         0.0539
     48 H3         -0.2509    1.1690   -1.2962 H         1 <0>         0.0756
     49 H4         -0.1806    1.1388    0.4821 H         1 <0>         0.0760
     50 H5         -0.7239   -7.3775   -1.3582 H         1 <0>         0.0493
     51 H6         -0.4644   -7.4074    0.4025 H         1 <0>         0.0523
     52 H7         -2.1170   -7.4784   -0.2548 H         1 <0>         0.0836
     53 H8          2.5066   -4.1685   -1.5005 H         1 <0>         0.0827
     54 H9          3.2794   -2.8666   -0.5646 H         1 <0>         0.0494
     55 H10         2.5401   -4.2496    0.2773 H         1 <0>         0.0778
     56 H11        -0.8001   -2.3147   -3.0405 H         1 <0>         0.1294
     57 H12        -2.1584   -2.9290   -5.0000 H         1 <0>         0.1351
     58 H13        -4.2911   -4.1219   -4.6948 H         1 <0>         0.1397
     59 H14        -3.7019   -4.0940   -0.4708 H         1 <0>         0.1449
     60 H15        -4.5743    0.5577    0.6256 H         1 <0>         0.0580
     61 H16        -4.6369    0.5882   -1.1530 H         1 <0>         0.0575
     62 H17        -6.8076   -0.1415   -0.2744 H         1 <0>         0.0512
     63 H18        -6.0158   -1.5052   -1.1001 H         1 <0>         0.0754
     64 H19        -8.0158   -2.2867    0.7324 H         1 <0>         0.0350
     65 H20        -6.7680   -3.3387    0.0212 H         1 <0>         0.0865
     66 H21        -7.7561   -4.3437    2.0756 H         1 <0>         0.0825
     67 H22        -6.0208   -4.0025    2.2804 H         1 <0>         0.0476
     68 H23        -6.5818   -0.9872    4.2824 H         1 <0>         0.0804
     69 H24        -5.3340   -2.0391    3.5713 H         1 <0>         0.0450
     70 H25        -5.5937    0.0178    2.2280 H         1 <0>         0.0771
     71 H26        -7.3290   -0.3234    2.0232 H         1 <0>         0.0383
     72 H27        -6.4226   -3.9792    4.7155 H         1 <0>         0.0580
     73 H28        -9.1117   -1.4158    4.6037 H         1 <0>         0.1289
     74 H29        -9.6238    0.0714    6.4983 H         1 <0>         0.1192
     75 H30        -8.4938   -0.2566    8.6613 H         1 <0>         0.1180
     76 H31        -6.8524   -2.0723    8.9301 H         1 <0>         0.1197
     77 H32        -6.3466   -3.5647    7.0380 H         1 <0>         0.1187
     78 H33        -9.8127   -3.2206    3.3992 H         1 <0>         0.1282
     79 H34       -11.5806   -4.9218    3.1901 H         1 <0>         0.1190
     80 H35       -11.2226   -7.1862    4.0887 H         1 <0>         0.1179
     81 H36        -9.0965   -7.7496    5.1956 H         1 <0>         0.1195
     82 H37        -7.3254   -6.0508    5.3973 H         1 <0>         0.1181
@<TRIPOS>BOND
     1    1    2 1
     2    1   47 1
     3    1   48 1
     4    1   49 1
     5    2   12 1
     6    2    3 2
     7    3    4 1
     8    3   23 1
     9    4    5 1
    10    4    6 1
    11    4   14 1
    12    6    7 2
    13    6   11 1
    14    7    8 1
    15    7    9 1
    16    9   10 1
    17   10   50 1
    18   10   51 1
    19   10   52 1
    20   11   12 2
    21   11   13 1
    22   13   53 1
    23   13   54 1
    24   13   55 1
    25   14   19 ar
    26   14   15 ar
    27   15   16 ar
    28   15   56 1
    29   16   17 ar
    30   16   57 1
    31   17   18 ar
    32   17   58 1
    33   18   19 ar
    34   18   20 1
    35   19   59 1
    36   20   21 2
    37   20   22 1
    38   23   24 2
    39   23   25 1
    40   25   26 1
    41   26   27 1
    42   26   60 1
    43   26   61 1
    44   27   28 1
    45   27   62 1
    46   27   63 1
    47   28   33 1
    48   28   29 1
    49   29   30 1
    50   29   64 1
    51   29   65 1
    52   30   31 1
    53   30   66 1
    54   30   67 1
    55   31   32 1
    56   31   34 1
    57   32   33 1
    58   32   68 1
    59   32   69 1
    60   33   70 1
    61   33   71 1
    62   34   35 1
    63   34   41 1
    64   34   72 1
    65   35   40 ar
    66   35   36 ar
    67   36   37 ar
    68   36   73 1
    69   37   38 ar
    70   37   74 1
    71   38   39 ar
    72   38   75 1
    73   39   40 ar
    74   39   76 1
    75   40   77 1
    76   41   46 ar
    77   41   42 ar
    78   42   43 ar
    79   42   78 1
    80   43   44 ar
    81   43   79 1
    82   44   45 ar
    83   44   80 1
    84   45   46 ar
    85   45   81 1
    86   46   82 1
@<TRIPOS>MOLECULE
ZINC19685795
   83    87     0     0     0
SMALL
USER_CHARGES

@<TRIPOS>ATOM
      1 C1          0.2895    0.8766   -0.5835 C.3       1 <0>        -0.0991
      2 C2          0.1403   -0.6228   -0.6079 C.2       1 <0>         0.2909
      3 C3         -1.1128   -1.1601   -0.5345 C.2       1 <0>        -0.3884
      4 C4         -1.2310   -2.6730   -0.5619 C.3       1 <0>         0.1221
      5 H1         -1.7376   -2.9916    0.3491 H         1 <0>         0.0454
      6 C5          0.0767   -3.4373   -0.6696 C.2       1 <0>        -0.3994
      7 C6          0.1040   -4.8142   -0.7043 C.2       1 <0>         0.4739
      8 O1          1.2658   -5.4598   -0.9268 O.3       1 <0>        -0.6373
      9 O2         -1.0312   -5.5156   -0.5157 O.3       1 <0>        -0.3397
     10 C7         -0.9293   -6.9401   -0.5648 C.3       1 <0>         0.0423
     11 C8          1.2501   -2.6835   -0.7325 C.2       1 <0>         0.3196
     12 N1          1.2291   -1.3704   -0.7053 N.2       1 <0>        -0.6429
     13 C9          2.5744   -3.3945   -0.8402 C.3       1 <0>        -0.0959
     14 C10        -2.0943   -3.0566   -1.7360 C.ar      1 <0>        -0.0347
     15 C11        -1.7084   -2.7144   -3.0188 C.ar      1 <0>        -0.0502
     16 C12        -2.5001   -3.0663   -4.0957 C.ar      1 <0>        -0.1237
     17 C13        -3.6777   -3.7609   -3.8902 C.ar      1 <0>        -0.0759
     18 C14        -4.0630   -4.1038   -2.6079 C.ar      1 <0>        -0.0603
     19 C15        -3.2689   -3.7555   -1.5310 C.ar      1 <0>        -0.0234
     20 N2         -5.3241   -4.8469   -2.3878 N.pl3     1 <0>         0.0479
     21 O3         -6.0170   -5.1540   -3.3297 O.2       1 <0>        -0.1779
     22 O4         -5.6611   -5.1469   -1.2662 O.3       1 <0>        -0.1824
     23 C16        -2.2518   -0.3418   -0.4366 C.2       1 <0>         0.5230
     24 O5         -2.1312    0.8699   -0.4160 O.2       1 <0>        -0.5586
     25 O6         -3.4799   -0.8996   -0.3653 O.3       1 <0>        -0.3445
     26 C17        -4.5925   -0.0082   -0.2675 C.3       1 <0>         0.0749
     27 C18        -5.8894   -0.8171   -0.1975 C.3       1 <0>         0.0607
     28 N3         -5.9025   -1.6156    1.0354 N.3       1 <0>        -0.5248
     29 C19        -6.8737   -2.7147    0.9408 C.3       1 <0>         0.0303
     30 C20        -6.8139   -3.5556    2.2179 C.3       1 <0>        -0.0019
     31 N4         -7.1198   -2.7075    3.3775 N.4       1 <0>        -0.3828
     32 C21        -6.1272   -1.6290    3.4730 C.3       1 <0>        -0.0028
     33 C22        -6.1812   -0.7721    2.2063 C.3       1 <0>         0.0268
     34 C23        -7.0801   -3.5190    4.6014 C.3       1 <0>         0.1312
     35 C24        -7.3938   -2.6491    5.7913 C.ar      1 <0>        -0.1261
     36 C25        -8.3840   -1.6885    5.7033 C.ar      1 <0>        -0.1205
     37 C26        -8.6718   -0.8905    6.7947 C.ar      1 <0>        -0.1042
     38 C27        -7.9698   -1.0535    7.9744 C.ar      1 <0>        -0.0953
     39 C28        -6.9803   -2.0147    8.0627 C.ar      1 <0>        -0.1045
     40 C29        -6.6954   -2.8156    6.9725 C.ar      1 <0>        -0.0858
     41 C30        -8.0997   -4.6244    4.5044 C.ar      1 <0>        -0.1266
     42 C31        -9.3388   -4.3747    3.9449 C.ar      1 <0>        -0.1203
     43 C32       -10.2740   -5.3888    3.8559 C.ar      1 <0>        -0.1032
     44 C33        -9.9700   -6.6526    4.3262 C.ar      1 <0>        -0.0942
     45 C34        -8.7306   -6.9025    4.8850 C.ar      1 <0>        -0.1037
     46 C35        -7.7938   -5.8896    4.9700 C.ar      1 <0>        -0.0851
     47 H2          1.3454    1.1378   -0.6546 H         1 <0>         0.0571
     48 H3         -0.2494    1.3091   -1.4264 H         1 <0>         0.0771
     49 H4         -0.1194    1.2672    0.3483 H         1 <0>         0.0763
     50 H5         -0.2418   -7.2821    0.2088 H         1 <0>         0.0537
     51 H6         -1.9123   -7.3806   -0.3978 H         1 <0>         0.0829
     52 H7         -0.5562   -7.2442   -1.5427 H         1 <0>         0.0514
     53 H8          2.6055   -3.9663   -1.7677 H         1 <0>         0.0846
     54 H9          3.3814   -2.6618   -0.8378 H         1 <0>         0.0525
     55 H10         2.6942   -4.0697    0.0071 H         1 <0>         0.0799
     56 H11        -0.7885   -2.1718   -3.1793 H         1 <0>         0.1315
     57 H12        -2.1990   -2.7983   -5.0977 H         1 <0>         0.1383
     58 H13        -4.2967   -4.0352   -4.7316 H         1 <0>         0.1419
     59 H14        -3.5681   -4.0267   -0.5294 H         1 <0>         0.1411
     60 H15        -4.4939    0.5987    0.6325 H         1 <0>         0.0588
     61 H16        -4.6160    0.6410   -1.1428 H         1 <0>         0.0669
     62 H17        -6.7418   -0.1378   -0.1995 H         1 <0>         0.0630
     63 H18        -5.9511   -1.4801   -1.0605 H         1 <0>         0.0896
     64 H19        -7.8766   -2.3046    0.8219 H         1 <0>         0.0535
     65 H20        -6.6321   -3.3405    0.0816 H         1 <0>         0.1308
     66 H21        -7.5435   -4.3630    2.1557 H         1 <0>         0.1367
     67 H22        -5.8147   -3.9766    2.3292 H         1 <0>         0.1437
     68 H23        -6.3476   -1.0082    4.3413 H         1 <0>         0.1332
     69 H24        -5.1315   -2.0600    3.5779 H         1 <0>         0.1418
     70 H25        -5.4345    0.0193    2.2704 H         1 <0>         0.1236
     71 H26        -7.1727   -0.3300    2.1083 H         1 <0>         0.0558
     72 H27        -6.0861   -3.9507    4.7189 H         1 <0>         0.1500
     73 H28        -8.9324   -1.5611    4.7816 H         1 <0>         0.1140
     74 H29        -9.4449   -0.1396    6.7258 H         1 <0>         0.1333
     75 H30        -8.1942   -0.4296    8.8269 H         1 <0>         0.1338
     76 H31        -6.4316   -2.1419    8.9842 H         1 <0>         0.1360
     77 H32        -5.9249   -3.5691    7.0427 H         1 <0>         0.1339
     78 H33        -9.5763   -3.3873    3.5774 H         1 <0>         0.1132
     79 H34       -11.2424   -5.1935    3.4194 H         1 <0>         0.1335
     80 H35       -10.7010   -7.4447    4.2574 H         1 <0>         0.1340
     81 H36        -8.4932   -7.8899    5.2527 H         1 <0>         0.1360
     82 H37        -6.8241   -6.0858    5.4031 H         1 <0>         0.1335
     83 H38        -8.0402   -2.3085    3.2687 H         1 <0>         0.4102
@<TRIPOS>BOND
     1    1    2 1
     2    1   47 1
     3    1   48 1
     4    1   49 1
     5    2   12 1
     6    2    3 2
     7    3    4 1
     8    3   23 1
     9    4    5 1
    10    4    6 1
    11    4   14 1
    12    6    7 2
    13    6   11 1
    14    7    8 1
    15    7    9 1
    16    9   10 1
    17   10   50 1
    18   10   51 1
    19   10   52 1
    20   11   12 2
    21   11   13 1
    22   13   53 1
    23   13   54 1
    24   13   55 1
    25   14   19 ar
    26   14   15 ar
    27   15   16 ar
    28   15   56 1
    29   16   17 ar
    30   16   57 1
    31   17   18 ar
    32   17   58 1
    33   18   19 ar
    34   18   20 1
    35   19   59 1
    36   20   21 2
    37   20   22 1
    38   23   24 2
    39   23   25 1
    40   25   26 1
    41   26   27 1
    42   26   60 1
    43   26   61 1
    44   27   28 1
    45   27   62 1
    46   27   63 1
    47   28   33 1
    48   28   29 1
    49   29   30 1
    50   29   64 1
    51   29   65 1
    52   30   31 1
    53   30   66 1
    54   30   67 1
    55   31   32 1
    56   31   34 1
    57   31   83 1
    58   32   33 1
    59   32   68 1
    60   32   69 1
    61   33   70 1
    62   33   71 1
    63   34   35 1
    64   34   41 1
    65   34   72 1
    66   35   40 ar
    67   35   36 ar
    68   36   37 ar
    69   36   73 1
    70   37   38 ar
    71   37   74 1
    72   38   39 ar
    73   38   75 1
    74   39   40 ar
    75   39   76 1
    76   40   77 1
    77   41   46 ar
    78   41   42 ar
    79   42   43 ar
    80   42   78 1
    81   43   44 ar
    82   43   79 1
    83   44   45 ar
    84   44   80 1
    85   45   46 ar
    86   45   81 1
    87   46   82 1
@<TRIPOS>MOLECULE
ZINC19685795
   84    88     0     0     0
SMALL
USER_CHARGES

@<TRIPOS>ATOM
      1 C1         -2.1111    1.5580    0.4327 C.3       1 <0>        -0.1206
      2 C2         -1.3917    0.2535    0.2050 C.2       1 <0>         0.2416
      3 C3         -0.9444   -0.4507    1.2591 C.2       1 <0>        -0.2556
      4 C4         -0.2142   -1.7513    1.0792 C.3       1 <0>         0.0924
      5 H1         -0.5864   -2.4751    1.8042 H         1 <0>         0.0983
      6 C5         -0.4205   -2.2899   -0.3081 C.2       1 <0>        -0.2461
      7 C6         -0.8888   -1.5120   -1.2994 C.2       1 <0>         0.1995
      8 N1         -1.2067   -0.2023   -1.0717 N.pl3     1 <0>        -0.6258
      9 C7         -1.0712   -2.0926   -2.6780 C.3       1 <0>        -0.1341
     10 C8         -0.1151   -3.6442   -0.5769 C.2       1 <0>         0.5453
     11 O1          1.0393   -3.9828   -0.7603 O.2       1 <0>        -0.4670
     12 O2         -1.1038   -4.5611   -0.6302 O.3       1 <0>        -0.3679
     13 C9         -0.7230   -5.9105   -0.9063 C.3       1 <0>         0.0274
     14 C10        -1.9691   -6.7981   -0.9267 C.3       1 <0>        -0.0001
     15 N2         -2.8476   -6.3834   -2.0286 N.4       1 <0>        -0.3885
     16 C11        -4.1103   -7.1302   -1.9552 C.3       1 <0>        -0.0012
     17 C12        -5.0333   -6.6850   -3.0917 C.3       1 <0>         0.0245
     18 N3         -4.3723   -6.9319   -4.3810 N.3       1 <0>        -0.5291
     19 C13        -3.0943   -6.2102   -4.4591 C.3       1 <0>         0.0253
     20 C14        -2.1874   -6.6594   -3.3113 C.3       1 <0>        -0.0088
     21 C15        -5.2509   -6.5693   -5.5010 C.3       1 <0>         0.1800
     22 C16        -4.5407   -6.8357   -6.8033 C.ar      1 <0>        -0.0942
     23 C17        -3.7690   -7.9732   -6.9496 C.ar      1 <0>        -0.0967
     24 C18        -3.1176   -8.2175   -8.1441 C.ar      1 <0>        -0.1209
     25 C19        -3.2382   -7.3245   -9.1924 C.ar      1 <0>        -0.1092
     26 C20        -4.0106   -6.1875   -9.0463 C.ar      1 <0>        -0.1152
     27 C21        -4.6655   -5.9453   -7.8533 C.ar      1 <0>        -0.1097
     28 C22        -6.5109   -7.3936   -5.4383 C.ar      1 <0>        -0.0938
     29 C23        -6.4468   -8.7284   -5.0844 C.ar      1 <0>        -0.0952
     30 C24        -7.6025   -9.4845   -5.0268 C.ar      1 <0>        -0.1212
     31 C25        -8.8225   -8.9058   -5.3228 C.ar      1 <0>        -0.1092
     32 C26        -8.8868   -7.5708   -5.6758 C.ar      1 <0>        -0.1152
     33 C27        -7.7315   -6.8136   -5.7292 C.ar      1 <0>        -0.1099
     34 C28         1.2583   -1.5297    1.3106 C.ar      1 <0>        -0.0772
     35 C29         1.9551   -0.6339    0.5210 C.ar      1 <0>        -0.0510
     36 C30         3.3056   -0.4307    0.7332 C.ar      1 <0>        -0.1143
     37 C31         3.9597   -1.1229    1.7355 C.ar      1 <0>        -0.0522
     38 C32         3.2630   -2.0178    2.5255 C.ar      1 <0>        -0.0442
     39 C33         1.9111   -2.2179    2.3159 C.ar      1 <0>        -0.0376
     40 N4          3.9634   -2.7592    3.5981 N.pl3     1 <0>         0.0322
     41 O3          5.1449   -2.5821    3.7832 O.2       1 <0>        -0.1530
     42 O4          3.3540   -3.5420    4.2891 O.3       1 <0>        -0.1573
     43 C34        -1.1656    0.0436    2.5654 C.2       1 <0>         0.5153
     44 O5         -1.7552    1.0959    2.7261 O.2       1 <0>        -0.5114
     45 O6         -0.7228   -0.6517    3.6339 O.3       1 <0>        -0.3518
     46 C35        -0.9810   -0.0933    4.9237 C.3       1 <0>         0.0352
     47 H2         -2.4034    1.9840   -0.5271 H         1 <0>         0.0675
     48 H3         -3.0004    1.3817    1.0379 H         1 <0>         0.1086
     49 H4         -1.4500    2.2518    0.9519 H         1 <0>         0.1066
     50 H5         -1.2975    0.4080   -1.8202 H         1 <0>         0.4268
     51 H6         -2.0985   -2.4384   -2.7936 H         1 <0>         0.0916
     52 H7         -0.8590   -1.3280   -3.4253 H         1 <0>         0.0931
     53 H8         -0.3882   -2.9314   -2.8123 H         1 <0>         0.0824
     54 H9         -0.2278   -5.9571   -1.8762 H         1 <0>         0.0929
     55 H10        -0.0400   -6.2609   -0.1325 H         1 <0>         0.1176
     56 H11        -1.6727   -7.8372   -1.0698 H         1 <0>         0.1531
     57 H12        -2.5013   -6.6990    0.0193 H         1 <0>         0.1452
     58 H13        -3.9074   -8.1970   -2.0487 H         1 <0>         0.1405
     59 H14        -4.5929   -6.9348   -0.9976 H         1 <0>         0.1380
     60 H15        -5.9645   -7.2497   -3.0464 H         1 <0>         0.1287
     61 H16        -5.2474   -5.6210   -2.9907 H         1 <0>         0.0615
     62 H17        -2.6109   -6.4286   -5.4114 H         1 <0>         0.1289
     63 H18        -3.2765   -5.1384   -4.3806 H         1 <0>         0.0603
     64 H19        -1.2443   -6.1149   -3.3591 H         1 <0>         0.1321
     65 H20        -1.9943   -7.7286   -3.3979 H         1 <0>         0.1423
     66 H21        -5.5052   -5.5114   -5.4356 H         1 <0>         0.0667
     67 H22        -3.6748   -8.6709   -6.1306 H         1 <0>         0.1277
     68 H23        -2.5141   -9.1059   -8.2582 H         1 <0>         0.1249
     69 H24        -2.7286   -7.5150  -10.1254 H         1 <0>         0.1257
     70 H25        -4.1046   -5.4896   -9.8652 H         1 <0>         0.1262
     71 H26        -5.2720   -5.0588   -7.7404 H         1 <0>         0.1202
     72 H27        -5.4936   -9.1805   -4.8532 H         1 <0>         0.1274
     73 H28        -7.5523  -10.5275   -4.7510 H         1 <0>         0.1247
     74 H29        -9.7255   -9.4967   -5.2785 H         1 <0>         0.1256
     75 H30        -9.8399   -7.1188   -5.9073 H         1 <0>         0.1261
     76 H31        -7.7822   -5.7697   -6.0014 H         1 <0>         0.1199
     77 H32         1.4441   -0.0932   -0.2619 H         1 <0>         0.1290
     78 H33         3.8501    0.2686    0.1160 H         1 <0>         0.1482
     79 H34         5.0152   -0.9646    1.9009 H         1 <0>         0.1553
     80 H35         1.3659   -2.9144    2.9357 H         1 <0>         0.1503
     81 H36        -0.5736   -0.7502    5.6922 H         1 <0>         0.1038
     82 H37        -0.5098    0.8869    4.9963 H         1 <0>         0.0616
     83 H38        -2.0568    0.0093    5.0664 H         1 <0>         0.0627
     84 H39        -3.0370   -5.3951   -1.9538 H         1 <0>         0.4248
@<TRIPOS>BOND
     1    1    2 1
     2    1   47 1
     3    1   48 1
     4    1   49 1
     5    2    8 1
     6    2    3 2
     7    3    4 1
     8    3   43 1
     9    4    5 1
    10    4    6 1
    11    4   34 1
    12    6    7 2
    13    6   10 1
    14    7    8 1
    15    7    9 1
    16    8   50 1
    17    9   51 1
    18    9   52 1
    19    9   53 1
    20   10   11 2
    21   10   12 1
    22   12   13 1
    23   13   14 1
    24   13   54 1
    25   13   55 1
    26   14   15 1
    27   14   56 1
    28   14   57 1
    29   15   20 1
    30   15   16 1
    31   15   84 1
    32   16   17 1
    33   16   58 1
    34   16   59 1
    35   17   18 1
    36   17   60 1
    37   17   61 1
    38   18   19 1
    39   18   21 1
    40   19   20 1
    41   19   62 1
    42   19   63 1
    43   20   64 1
    44   20   65 1
    45   21   22 1
    46   21   28 1
    47   21   66 1
    48   22   27 ar
    49   22   23 ar
    50   23   24 ar
    51   23   67 1
    52   24   25 ar
    53   24   68 1
    54   25   26 ar
    55   25   69 1
    56   26   27 ar
    57   26   70 1
    58   27   71 1
    59   28   33 ar
    60   28   29 ar
    61   29   30 ar
    62   29   72 1
    63   30   31 ar
    64   30   73 1
    65   31   32 ar
    66   31   74 1
    67   32   33 ar
    68   32   75 1
    69   33   76 1
    70   34   39 ar
    71   34   35 ar
    72   35   36 ar
    73   35   77 1
    74   36   37 ar
    75   36   78 1
    76   37   38 ar
    77   37   79 1
    78   38   39 ar
    79   38   40 1
    80   39   80 1
    81   40   41 2
    82   40   42 1
    83   43   44 2
    84   43   45 1
    85   45   46 1
    86   46   81 1
    87   46   82 1
    88   46   83 1
@<TRIPOS>MOLECULE
ZINC13580132
   35    36     0     0     0
SMALL
USER_CHARGES

@<TRIPOS>ATOM
      1 C1         -0.0371    1.4249    0.0775 C.3       1 <0>        -0.1617
      2 C2          0.0441   -0.0795    0.0440 C.2       1 <0>         0.1483
      3 N1          0.1256   -0.7498    1.1524 N.2       1 <0>        -0.1994
      4 N2          0.1382   -0.0747    2.3800 N.pl3     1 <0>        -0.5560
      5 C3          0.2242   -0.7809    3.5477 C.cat     1 <0>         0.5580
      6 N3          0.2364   -0.1220    4.7460 N.pl3     1 <0>        -0.8128
      7 S1          0.3136   -2.4381    3.5109 S.3       1 <0>        -0.5224
      8 C4          0.0308   -0.7899   -1.2478 C.ar      1 <0>        -0.0546
      9 C5         -0.0511   -0.0699   -2.4426 C.ar      1 <0>        -0.0728
     10 C6         -0.0627   -0.7380   -3.6478 C.ar      1 <0>        -0.1268
     11 C7          0.0069   -2.1251   -3.6760 C.ar      1 <0>         0.1083
     12 C8          0.0885   -2.8449   -2.4907 C.ar      1 <0>        -0.1429
     13 C9          0.1060   -2.1849   -1.2812 C.ar      1 <0>        -0.0545
     14 O1         -0.0053   -2.7796   -4.8662 O.3       1 <0>        -0.2581
     15 C10        -1.0874   -3.5466   -5.1614 C.ar      1 <0>         0.1186
     16 C11        -2.1931   -3.5406   -4.3231 C.ar      1 <0>        -0.1935
     17 C12        -3.2920   -4.3209   -4.6258 C.ar      1 <0>        -0.0819
     18 C13        -3.2907   -5.1079   -5.7626 C.ar      1 <0>        -0.1505
     19 C14        -2.1899   -5.1162   -6.5994 C.ar      1 <0>        -0.0829
     20 C15        -1.0909   -4.3330   -6.3047 C.ar      1 <0>        -0.1439
     21 H1          0.9686    1.8439    0.0441 H         1 <0>         0.0928
     22 H2         -0.6062    1.7773   -0.7828 H         1 <0>         0.0955
     23 H3         -0.5324    1.7418    0.9953 H         1 <0>         0.0685
     24 H4          0.1842    0.8464    4.7676 H         1 <0>         0.3934
     25 H5          0.2974   -0.6229    5.5744 H         1 <0>         0.4358
     26 H6         -0.1056    1.0085   -2.4216 H         1 <0>         0.1395
     27 H7         -0.1264   -0.1824   -4.5717 H         1 <0>         0.1396
     28 H8          0.1424   -3.9232   -2.5173 H         1 <0>         0.1372
     29 H9          0.1739   -2.7450   -0.3603 H         1 <0>         0.1499
     30 H10        -2.1944   -2.9266   -3.4346 H         1 <0>         0.1296
     31 H11        -4.1529   -4.3165   -3.9736 H         1 <0>         0.1269
     32 H12        -4.1507   -5.7175   -5.9973 H         1 <0>         0.1260
     33 H13        -2.1911   -5.7323   -7.4864 H         1 <0>         0.1321
     34 H14        -0.2333   -4.3361   -6.9611 H         1 <0>         0.1331
     35 H15         0.0860    0.8936    2.4015 H         1 <0>         0.3816
@<TRIPOS>BOND
     1    1    2 1
     2    1   21 1
     3    1   22 1
     4    1   23 1
     5    2    3 2
     6    2    8 1
     7    3    4 1
     8    4    5 2
     9    4   35 1
    10    5    6 1
    11    5    7 1
    12    6   24 1
    13    6   25 1
    14    8   13 ar
    15    8    9 ar
    16    9   10 ar
    17    9   26 1
    18   10   11 ar
    19   10   27 1
    20   11   12 ar
    21   11   14 1
    22   12   13 ar
    23   12   28 1
    24   13   29 1
    25   14   15 1
    26   15   20 ar
    27   15   16 ar
    28   16   17 ar
    29   16   30 1
    30   17   18 ar
    31   17   31 1
    32   18   19 ar
    33   18   32 1
    34   19   20 ar
    35   19   33 1
    36   20   34 1
@<TRIPOS>MOLECULE
ZINC08691187
   59    61     0     0     0
SMALL
USER_CHARGES

@<TRIPOS>ATOM
      1 C1         -0.0462    1.5685    0.0135 C.3       1 <0>        -0.1462
      2 C2         -0.0199    0.0388   -0.0048 C.3       1 <0>        -0.0918
      3 C3          0.7268   -0.4732    1.2286 C.3       1 <0>        -0.1560
      4 C4         -1.4532   -0.4961    0.0082 C.3       1 <0>        -0.1301
      5 C5         -1.4305   -2.0192   -0.1357 C.3       1 <0>         0.1451
      6 H1         -0.7993   -2.4483    0.6425 H         1 <0>         0.1459
      7 C6         -2.8314   -2.5576   -0.0000 C.2       1 <0>         0.4613
      8 O1         -3.3313   -3.1770   -0.9090 O.2       1 <0>        -0.4894
      9 O2         -3.5240   -2.3490    1.1308 O.3       1 <0>        -0.3195
     10 C7         -4.8462   -2.8877    1.1905 C.3       1 <0>         0.0502
     11 C8         -5.4638   -2.5564    2.5246 C.2       1 <0>         0.5176
     12 O3         -4.8337   -1.9215    3.3437 O.2       1 <0>        -0.4927
     13 N1         -6.7164   -2.9657    2.8075 N.am      1 <0>        -0.6581
     14 C9         -7.2566   -2.7394    4.0805 C.ar      1 <0>         0.1271
     15 C10        -6.9288   -1.5874    4.7802 C.ar      1 <0>        -0.0760
     16 C11        -7.4636   -1.3662    6.0362 C.ar      1 <0>        -0.0529
     17 C12        -8.3254   -2.2921    6.5973 C.ar      1 <0>        -0.0795
     18 C13        -8.6557   -3.4424    5.9052 C.ar      1 <0>        -0.1788
     19 C14        -8.1287   -3.6680    4.6439 C.ar      1 <0>         0.1123
     20 O4         -8.4578   -4.7963    3.9598 O.3       1 <0>        -0.3157
     21 C15        -9.3575   -5.7037    4.5994 C.3       1 <0>         0.0261
     22 Cl1        -7.0526    0.0759    6.9110 Cl        1 <0>        -0.0599
     23 N2         -0.8950   -2.3774   -1.4515 N.am      1 <0>        -0.5783
     24 C16        -1.4640   -1.9821   -2.6200 C.2       1 <0>         0.5525
     25 O5         -2.3253   -1.1410   -2.7619 O.2       1 <0>        -0.4554
     26 C17        -0.8136   -2.7943   -3.6985 C.3       1 <0>        -0.1287
     27 H2         -1.3282   -3.7478   -3.8177 H         1 <0>         0.1289
     28 C18        -0.5889   -2.1457   -5.0481 C.3       1 <0>        -0.0685
     29 C19         0.3740   -3.0336   -5.8082 C.2       1 <0>        -0.1536
     30 C20         1.1370   -3.9283   -5.2567 C.2       1 <0>        -0.1533
     31 C21         1.1973   -4.2003   -3.7683 C.3       1 <0>        -0.0694
     32 C22         0.5960   -3.0102   -3.0659 C.3       1 <0>        -0.1300
     33 H3          1.2258   -2.1359   -3.2299 H         1 <0>         0.1293
     34 C23         0.2217   -3.1321   -1.6209 C.2       1 <0>         0.5478
     35 O6          0.7996   -3.7770   -0.7725 O.2       1 <0>        -0.4607
     36 H4          0.9749    1.9496    0.0042 H         1 <0>         0.0591
     37 H5         -0.5782    1.9333   -0.8652 H         1 <0>         0.0564
     38 H6         -0.5542    1.9124    0.9145 H         1 <0>         0.0599
     39 H7          0.4881   -0.3050   -0.9058 H         1 <0>         0.0651
     40 H8          0.7456   -1.5629    1.2155 H         1 <0>         0.0552
     41 H9          1.7480   -0.0920    1.2193 H         1 <0>         0.0603
     42 H10         0.2188   -0.1293    2.1296 H         1 <0>         0.0633
     43 H11        -1.9329   -0.2273    0.9493 H         1 <0>         0.1003
     44 H12        -2.0110   -0.0611   -0.8212 H         1 <0>         0.0928
     45 H13        -5.4508   -2.4559    0.3929 H         1 <0>         0.1072
     46 H14        -4.8034   -3.9700    1.0686 H         1 <0>         0.1069
     47 H15        -7.2439   -3.4168    2.1300 H         1 <0>         0.4191
     48 H16        -6.2558   -0.8638    4.3445 H         1 <0>         0.1588
     49 H17        -8.7408   -2.1159    7.5786 H         1 <0>         0.1402
     50 H18        -9.3283   -4.1633    6.3460 H         1 <0>         0.1442
     51 H19       -10.3016   -5.1976    4.8011 H         1 <0>         0.0597
     52 H20        -9.5357   -6.5588    3.9474 H         1 <0>         0.1046
     53 H21        -8.9215   -6.0468    5.5376 H         1 <0>         0.0595
     54 H22        -1.5331   -2.0727   -5.5878 H         1 <0>         0.0919
     55 H23        -0.1562   -1.1539   -4.9171 H         1 <0>         0.0870
     56 H24         0.4297   -2.9152   -6.8803 H         1 <0>         0.1152
     57 H25         1.7704   -4.5180   -5.9029 H         1 <0>         0.1157
     58 H26         0.6156   -5.0904   -3.5287 H         1 <0>         0.0854
     59 H27         2.2329   -4.3361   -3.4564 H         1 <0>         0.0925
@<TRIPOS>BOND
     1    1    2 1
     2    1   36 1
     3    1   37 1
     4    1   38 1
     5    2    3 1
     6    2    4 1
     7    2   39 1
     8    3   40 1
     9    3   41 1
    10    3   42 1
    11    4    5 1
    12    4   43 1
    13    4   44 1
    14    5    6 1
    15    5    7 1
    16    5   23 1
    17    7    8 2
    18    7    9 1
    19    9   10 1
    20   10   11 1
    21   10   45 1
    22   10   46 1
    23   11   12 2
    24   11   13 am
    25   13   14 1
    26   13   47 1
    27   14   19 ar
    28   14   15 ar
    29   15   16 ar
    30   15   48 1
    31   16   17 ar
    32   16   22 1
    33   17   18 ar
    34   17   49 1
    35   18   19 ar
    36   18   50 1
    37   19   20 1
    38   20   21 1
    39   21   51 1
    40   21   52 1
    41   21   53 1
    42   23   34 am
    43   23   24 am
    44   24   25 2
    45   24   26 1
    46   26   27 1
    47   26   32 1
    48   26   28 1
    49   28   29 1
    50   28   54 1
    51   28   55 1
    52   29   30 2
    53   29   56 1
    54   30   31 1
    55   30   57 1
    56   31   32 1
    57   31   58 1
    58   31   59 1
    59   32   33 1
    60   32   34 1
    61   34   35 2
@<TRIPOS>MOLECULE
ZINC09580294
   59    61     0     0     0
SMALL
USER_CHARGES

@<TRIPOS>ATOM
      1 C1         -0.8815    0.6043   -1.6643 C.3       1 <0>        -0.1429
      2 C2         -0.8371   -0.9178   -1.8130 C.3       1 <0>        -0.1062
      3 C3          0.1189   -1.2916   -2.9475 C.3       1 <0>        -0.1476
      4 C4         -0.3470   -1.5439   -0.5059 C.3       1 <0>        -0.1240
      5 C5         -0.4687   -3.0666   -0.5927 C.3       1 <0>         0.1408
      6 H1          0.0338   -3.4205   -1.4929 H         1 <0>         0.1460
      7 C6         -1.9246   -3.4520   -0.6456 C.2       1 <0>         0.4595
      8 O1         -2.3933   -4.1615    0.2128 O.2       1 <0>        -0.4818
      9 O2         -2.7007   -3.0071   -1.6463 O.3       1 <0>        -0.3158
     10 C7         -4.0712   -3.4117   -1.6335 C.3       1 <0>         0.0460
     11 C8         -4.7806   -2.8205   -2.8244 C.2       1 <0>         0.5168
     12 O3         -4.1725   -2.1213   -3.6071 O.2       1 <0>        -0.4887
     13 N1         -6.0909   -3.0685   -3.0197 N.am      1 <0>        -0.6543
     14 C9         -6.7227   -2.6190   -4.1868 C.ar      1 <0>         0.1346
     15 C10        -5.9677   -2.2844   -5.3014 C.ar      1 <0>        -0.0973
     16 C11        -6.5936   -1.8414   -6.4523 C.ar      1 <0>        -0.0480
     17 C12        -7.9723   -1.7305   -6.4947 C.ar      1 <0>        -0.0870
     18 C13        -8.7303   -2.0620   -5.3871 C.ar      1 <0>        -0.1742
     19 C14        -8.1107   -2.5124   -4.2326 C.ar      1 <0>         0.1034
     20 O4         -8.8559   -2.8445   -3.1446 O.3       1 <0>        -0.3186
     21 C15       -10.2736   -2.7104   -3.2637 C.3       1 <0>         0.0274
     22 Cl1        -5.6477   -1.4230   -7.8466 Cl        1 <0>        -0.0603
     23 N2          0.1549   -3.6742    0.5855 N.am      1 <0>        -0.5748
     24 C16         1.1173   -4.6132    0.5057 C.2       1 <0>         0.5286
     25 O5          1.7309   -4.9314   -0.4902 O.2       1 <0>        -0.4646
     26 C17         1.2930   -5.2059    1.9138 C.3       1 <0>        -0.0981
     27 H2          2.3134   -5.5201    2.1332 H         1 <0>         0.1390
     28 C18         0.2811   -6.3523    1.9849 C.3       1 <0>        -0.0856
     29 C19        -0.3175   -6.5286    3.3373 C.2       1 <0>        -0.1517
     30 C20        -0.2970   -5.6413    4.2754 C.2       1 <0>        -0.1474
     31 C21         0.3853   -4.3169    4.1384 C.3       1 <0>        -0.0743
     32 C22         0.8355   -3.9951    2.7433 C.3       1 <0>        -0.1219
     33 H3          1.6813   -3.3100    2.8005 H         1 <0>         0.1194
     34 C23        -0.1791   -3.3397    1.8520 C.2       1 <0>         0.5450
     35 O6         -1.1133   -2.6497    2.1995 O.2       1 <0>        -0.4510
     36 H4         -1.2307    1.0504   -2.5955 H         1 <0>         0.0609
     37 H5         -1.5626    0.8707   -0.8560 H         1 <0>         0.0535
     38 H6          0.1171    0.9763   -1.4353 H         1 <0>         0.0538
     39 H7         -1.8358   -1.2897   -2.0420 H         1 <0>         0.1018
     40 H8          0.1739   -2.3768   -3.0336 H         1 <0>         0.0522
     41 H9         -0.2467   -0.8710   -3.8843 H         1 <0>         0.0627
     42 H10         1.1106   -0.8934   -2.7330 H         1 <0>         0.0543
     43 H11         0.6954   -1.2715   -0.3410 H         1 <0>         0.0874
     44 H12        -0.9536   -1.1776    0.3223 H         1 <0>         0.0856
     45 H13        -4.1293   -4.4992   -1.6790 H         1 <0>         0.1067
     46 H14        -4.5452   -3.0605   -0.7170 H         1 <0>         0.1069
     47 H15        -6.5965   -3.5583   -2.3524 H         1 <0>         0.4208
     48 H16        -4.8915   -2.3695   -5.2703 H         1 <0>         0.1735
     49 H17        -8.4574   -1.3839   -7.3952 H         1 <0>         0.1391
     50 H18        -9.8061   -1.9740   -5.4232 H         1 <0>         0.1436
     51 H19       -10.6325   -3.3493   -4.0706 H         1 <0>         0.0594
     52 H20       -10.7465   -3.0071   -2.3275 H         1 <0>         0.1045
     53 H21       -10.5231   -1.6724   -3.4838 H         1 <0>         0.0594
     54 H22        -0.5192   -6.1570    1.2712 H         1 <0>         0.0794
     55 H23         0.7812   -7.2782    1.7005 H         1 <0>         0.0909
     56 H24        -0.8054   -7.4686    3.5492 H         1 <0>         0.1122
     57 H25        -0.7978   -5.8664    5.2054 H         1 <0>         0.1170
     58 H26        -0.2966   -3.5371    4.4775 H         1 <0>         0.0923
     59 H27         1.2651   -4.3101    4.7819 H         1 <0>         0.0921
@<TRIPOS>BOND
     1    1    2 1
     2    1   36 1
     3    1   37 1
     4    1   38 1
     5    2    3 1
     6    2    4 1
     7    2   39 1
     8    3   40 1
     9    3   41 1
    10    3   42 1
    11    4    5 1
    12    4   43 1
    13    4   44 1
    14    5    6 1
    15    5    7 1
    16    5   23 1
    17    7    8 2
    18    7    9 1
    19    9   10 1
    20   10   11 1
    21   10   45 1
    22   10   46 1
    23   11   12 2
    24   11   13 am
    25   13   14 1
    26   13   47 1
    27   14   19 ar
    28   14   15 ar
    29   15   16 ar
    30   15   48 1
    31   16   17 ar
    32   16   22 1
    33   17   18 ar
    34   17   49 1
    35   18   19 ar
    36   18   50 1
    37   19   20 1
    38   20   21 1
    39   21   51 1
    40   21   52 1
    41   21   53 1
    42   23   34 am
    43   23   24 am
    44   24   25 2
    45   24   26 1
    46   26   27 1
    47   26   32 1
    48   26   28 1
    49   28   29 1
    50   28   54 1
    51   28   55 1
    52   29   30 2
    53   29   56 1
    54   30   31 1
    55   30   57 1
    56   31   32 1
    57   31   58 1
    58   31   59 1
    59   32   33 1
    60   32   34 1
    61   34   35 2
@<TRIPOS>MOLECULE
ZINC03363856
   58    60     0     0     0
SMALL
USER_CHARGES

@<TRIPOS>ATOM
      1 C1          0.7213    1.4081    1.0175 C.3       1 <0>        -0.1450
      2 C2          0.6492   -0.1181    0.9371 C.3       1 <0>        -0.0999
      3 C3          1.7214   -0.6292   -0.0272 C.3       1 <0>        -0.1547
      4 C4          0.8868   -0.7137    2.3262 C.3       1 <0>         0.1342
      5 H1          0.1229   -0.3496    3.0132 H         1 <0>         0.1218
      6 C5          0.8158   -2.2170    2.2471 C.2       1 <0>         0.5231
      7 O1          1.7759   -2.8869    2.5636 O.2       1 <0>        -0.5016
      8 N1         -0.3148   -2.8169    1.8246 N.am      1 <0>        -0.7494
      9 C6         -0.3838   -4.2782    1.7476 C.3       1 <0>         0.0957
     10 C7         -1.8042   -4.7025    1.3691 C.3       1 <0>         0.1235
     11 H2         -2.0441   -4.3233    0.3757 H         1 <0>         0.1680
     12 C8         -1.8958   -6.2067    1.3682 C.2       1 <0>        -0.1024
     13 C9         -2.0051   -6.9875    0.2783 C.2       1 <0>        -0.1232
     14 C10        -2.0605   -8.3241    0.7358 C.2       1 <0>        -0.2121
     15 C11        -1.9817   -8.2801    2.0779 C.2       1 <0>         0.0105
     16 O2         -1.8762   -6.9954    2.4550 O.3       1 <0>        -0.1769
     17 N2         -2.7555   -4.1546    2.3453 N.4       1 <0>        -0.3830
     18 C12        -2.3649   -4.5755    3.6961 C.3       1 <0>        -0.0237
     19 C13        -3.3048   -3.9414    4.7237 C.3       1 <0>        -0.1419
     20 C14        -4.7405   -4.3934    4.4416 C.3       1 <0>        -0.1387
     21 C15        -5.1113   -4.0150    3.0047 C.3       1 <0>        -0.1439
     22 C16        -4.1045   -4.6464    2.0408 C.3       1 <0>        -0.0064
     23 N3          2.2100   -0.3121    2.8100 N.am      1 <0>        -0.7074
     24 C17         2.3689    0.8726    3.4326 C.2       1 <0>         0.6157
     25 O3          1.4133    1.6087    3.5929 O.2       1 <0>        -0.5111
     26 C18         3.6936    1.2746    3.9168 C.2       1 <0>        -0.0974
     27 C19         3.9916    2.4387    4.5653 C.2       1 <0>        -0.1049
     28 C20         5.3672    2.4054    4.8426 C.2       1 <0>        -0.2256
     29 C21         5.8425    1.2373    4.3574 C.2       1 <0>         0.0068
     30 O4          4.8302    0.5564    3.8048 O.3       1 <0>        -0.1654
     31 H3          1.7058    1.7069    1.3774 H         1 <0>         0.0593
     32 H4          0.5520    1.8325    0.0279 H         1 <0>         0.0596
     33 H5         -0.0426    1.7723    1.7045 H         1 <0>         0.0690
     34 H6         -0.3354   -0.4168    0.5772 H         1 <0>         0.0810
     35 H7          2.7060   -0.3304    0.3327 H         1 <0>         0.0633
     36 H8          1.6701   -1.7165   -0.0844 H         1 <0>         0.0512
     37 H9          1.5522   -0.2049   -1.0168 H         1 <0>         0.0678
     38 H10        -1.0827   -2.2811    1.5715 H         1 <0>         0.3993
     39 H11         0.3157   -4.6357    0.9920 H         1 <0>         0.1194
     40 H12        -0.1227   -4.7058    2.7157 H         1 <0>         0.1050
     41 H13        -2.0439   -6.6568   -0.7491 H         1 <0>         0.1633
     42 H14        -2.1494   -9.2103    0.1250 H         1 <0>         0.1651
     43 H15        -1.9966   -9.1334    2.7398 H         1 <0>         0.2192
     44 H16        -2.4262   -5.6613    3.7698 H         1 <0>         0.1426
     45 H17        -1.3419   -4.2559    3.8943 H         1 <0>         0.1301
     46 H18        -3.0143   -4.2566    5.7259 H         1 <0>         0.1133
     47 H19        -3.2442   -2.8555    4.6511 H         1 <0>         0.0876
     48 H20        -4.8132   -5.4741    4.5642 H         1 <0>         0.0818
     49 H21        -5.4210   -3.9001    5.1356 H         1 <0>         0.0960
     50 H22        -6.1121   -4.3828    2.7782 H         1 <0>         0.1143
     51 H23        -5.0882   -2.9307    2.8964 H         1 <0>         0.0889
     52 H24        -4.3657   -4.3791    1.0168 H         1 <0>         0.1321
     53 H25        -4.1286   -5.7307    2.1497 H         1 <0>         0.1296
     54 H26         2.9718   -0.8989    2.6822 H         1 <0>         0.4171
     55 H27         3.3024    3.2314    4.8162 H         1 <0>         0.1628
     56 H28         5.9383    3.1699    5.3484 H         1 <0>         0.1616
     57 H29         6.8691    0.9058    4.4097 H         1 <0>         0.2147
     58 H30        -2.7462   -3.1470    2.2933 H         1 <0>         0.4198
@<TRIPOS>BOND
     1    1    2 1
     2    1   31 1
     3    1   32 1
     4    1   33 1
     5    2    3 1
     6    2    4 1
     7    2   34 1
     8    3   35 1
     9    3   36 1
    10    3   37 1
    11    4    5 1
    12    4    6 1
    13    4   23 1
    14    6    7 2
    15    6    8 am
    16    8    9 1
    17    8   38 1
    18    9   10 1
    19    9   39 1
    20    9   40 1
    21   10   11 1
    22   10   12 1
    23   10   17 1
    24   12   16 1
    25   12   13 2
    26   13   14 1
    27   13   41 1
    28   14   15 2
    29   14   42 1
    30   15   16 1
    31   15   43 1
    32   17   22 1
    33   17   18 1
    34   17   58 1
    35   18   19 1
    36   18   44 1
    37   18   45 1
    38   19   20 1
    39   19   46 1
    40   19   47 1
    41   20   21 1
    42   20   48 1
    43   20   49 1
    44   21   22 1
    45   21   50 1
    46   21   51 1
    47   22   52 1
    48   22   53 1
    49   23   24 am
    50   23   54 1
    51   24   25 2
    52   24   26 1
    53   26   30 1
    54   26   27 2
    55   27   28 1
    56   27   55 1
    57   28   29 2
    58   28   56 1
    59   29   30 1
    60   29   57 1
@<TRIPOS>MOLECULE
ZINC03363859
   58    60     0     0     0
SMALL
USER_CHARGES

@<TRIPOS>ATOM
      1 C1         -0.1850    1.1303   -0.1662 C.3       1 <0>        -0.1580
      2 C2          0.0775   -0.3595    0.0632 C.3       1 <0>        -0.1054
      3 C3          0.8763   -0.9237   -1.1134 C.3       1 <0>        -0.1516
      4 C4          0.8749   -0.5436    1.3560 C.3       1 <0>         0.1371
      5 H1          0.3427   -0.0713    2.1816 H         1 <0>         0.1166
      6 C5          2.2324    0.0929    1.2038 C.2       1 <0>         0.5287
      7 O1          3.1998   -0.5945    0.9535 O.2       1 <0>        -0.5132
      8 N1          2.3715    1.4259    1.3460 N.am      1 <0>        -0.7252
      9 C6          3.7036    2.0332    1.2932 C.3       1 <0>         0.0990
     10 C7          3.5964    3.5262    1.6098 C.3       1 <0>         0.1200
     11 H2          2.8683    3.9877    0.9427 H         1 <0>         0.1651
     12 C8          3.1531    3.7061    3.0389 C.2       1 <0>        -0.1059
     13 C9          1.8997    3.9764    3.4456 C.2       1 <0>        -0.1336
     14 C10         1.9363    4.0618    4.8563 C.2       1 <0>        -0.2094
     15 C11         3.2098    3.8384    5.2274 C.2       1 <0>         0.0105
     16 O2          3.9412    3.6179    4.1227 O.3       1 <0>        -0.1780
     17 N2          4.9068    4.1624    1.4199 N.4       1 <0>        -0.3793
     18 C12         4.8313    5.5682    1.8353 C.3       1 <0>        -0.0050
     19 C13         6.2134    6.2141    1.7160 C.3       1 <0>        -0.1437
     20 C14         6.6840    6.1347    0.2608 C.3       1 <0>        -0.1394
     21 C15         6.6877    4.6697   -0.1850 C.3       1 <0>        -0.1442
     22 C16         5.2881    4.0810    0.0048 C.3       1 <0>        -0.0167
     23 N3          1.0342   -1.9735    1.6320 N.am      1 <0>        -0.7096
     24 C17         0.0660   -2.6456    2.2858 C.2       1 <0>         0.6143
     25 O3         -0.9405   -2.0646    2.6469 O.2       1 <0>        -0.5140
     26 C18         0.2254   -4.0770    2.5621 C.2       1 <0>        -0.0956
     27 C19        -0.6755   -4.8749    3.2072 C.2       1 <0>        -0.1053
     28 C20        -0.1174   -6.1621    3.2489 C.2       1 <0>        -0.2251
     29 C21         1.0847   -6.0944    2.6352 C.2       1 <0>         0.0056
     30 O4          1.2854   -4.8376    2.2184 O.3       1 <0>        -0.1654
     31 H3          0.7649    1.6562   -0.2617 H         1 <0>         0.0529
     32 H4         -0.7657    1.2604   -1.0794 H         1 <0>         0.0740
     33 H5         -0.7413    1.5355    0.6790 H         1 <0>         0.0644
     34 H6         -0.8725   -0.8876    0.1440 H         1 <0>         0.0985
     35 H7          1.8264   -0.3955   -1.1942 H         1 <0>         0.0532
     36 H8          1.0634   -1.9850   -0.9500 H         1 <0>         0.0621
     37 H9          0.3082   -0.7925   -2.0344 H         1 <0>         0.0661
     38 H10         1.5895    1.9831    1.4833 H         1 <0>         0.4098
     39 H11         4.3516    1.5520    2.0258 H         1 <0>         0.0984
     40 H12         4.1232    1.9025    0.2957 H         1 <0>         0.1001
     41 H13         1.0321    4.1044    2.8153 H         1 <0>         0.1616
     42 H14         1.1019    4.2672    5.5106 H         1 <0>         0.1653
     43 H15         3.5805    3.8334    6.2417 H         1 <0>         0.2190
     44 H16         4.1264    6.0984    1.1950 H         1 <0>         0.1311
     45 H17         4.4932    5.6231    2.8701 H         1 <0>         0.1295
     46 H18         6.1549    7.2583    2.0232 H         1 <0>         0.1142
     47 H19         6.9191    5.6847    2.3562 H         1 <0>         0.0886
     48 H20         6.0066    6.7069   -0.3730 H         1 <0>         0.0832
     49 H21         7.6917    6.5426    0.1809 H         1 <0>         0.0963
     50 H22         6.9682    4.6099   -1.2366 H         1 <0>         0.1161
     51 H23         7.4032    4.1082    0.4157 H         1 <0>         0.0897
     52 H24         5.2871    3.0380   -0.3119 H         1 <0>         0.1346
     53 H25         4.5734    4.6429   -0.5965 H         1 <0>         0.1343
     54 H26         1.8365   -2.4366    1.3442 H         1 <0>         0.4172
     55 H27        -1.6323   -4.5739    3.6077 H         1 <0>         0.1630
     56 H28        -0.5643   -7.0412    3.6890 H         1 <0>         0.1616
     57 H29         1.7692   -6.9188    2.5002 H         1 <0>         0.2147
     58 H30         5.5960    3.6845    1.9809 H         1 <0>         0.4274
@<TRIPOS>BOND
     1    1    2 1
     2    1   31 1
     3    1   32 1
     4    1   33 1
     5    2    3 1
     6    2    4 1
     7    2   34 1
     8    3   35 1
     9    3   36 1
    10    3   37 1
    11    4    5 1
    12    4    6 1
    13    4   23 1
    14    6    7 2
    15    6    8 am
    16    8    9 1
    17    8   38 1
    18    9   10 1
    19    9   39 1
    20    9   40 1
    21   10   11 1
    22   10   12 1
    23   10   17 1
    24   12   16 1
    25   12   13 2
    26   13   14 1
    27   13   41 1
    28   14   15 2
    29   14   42 1
    30   15   16 1
    31   15   43 1
    32   17   22 1
    33   17   18 1
    34   17   58 1
    35   18   19 1
    36   18   44 1
    37   18   45 1
    38   19   20 1
    39   19   46 1
    40   19   47 1
    41   20   21 1
    42   20   48 1
    43   20   49 1
    44   21   22 1
    45   21   50 1
    46   21   51 1
    47   22   52 1
    48   22   53 1
    49   23   24 am
    50   23   54 1
    51   24   25 2
    52   24   26 1
    53   26   30 1
    54   26   27 2
    55   27   28 1
    56   27   55 1
    57   28   29 2
    58   28   56 1
    59   29   30 1
    60   29   57 1
@<TRIPOS>MOLECULE
ZINC03363862
   58    60     0     0     0
SMALL
USER_CHARGES

@<TRIPOS>ATOM
      1 C1         -0.5744    1.4586   -0.7215 C.3       1 <0>        -0.1442
      2 C2         -0.4213   -0.0549   -0.5571 C.3       1 <0>        -0.0992
      3 C3          0.3265   -0.6259   -1.7635 C.3       1 <0>        -0.1528
      4 C4          0.3679   -0.3519    0.7195 C.3       1 <0>         0.1342
      5 H1         -0.1649    0.0549    1.5790 H         1 <0>         0.1206
      6 C5          0.5187   -1.8426    0.8815 C.2       1 <0>         0.5236
      7 O1          1.6243   -2.3398    0.9179 O.2       1 <0>        -0.5039
      8 N1         -0.5750   -2.6231    0.9858 N.am      1 <0>        -0.7455
      9 C6         -0.4285   -4.0722    1.1433 C.3       1 <0>         0.0958
     10 C7         -1.8042   -4.7025    1.3691 C.3       1 <0>         0.1247
     11 H2         -1.6863   -5.7641    1.5862 H         1 <0>         0.1767
     12 C8         -2.6438   -4.5335    0.1291 C.2       1 <0>        -0.1100
     13 C9         -2.8623   -5.4743   -0.8072 C.2       1 <0>        -0.1252
     14 C10        -3.6997   -4.8914   -1.7859 C.2       1 <0>        -0.2106
     15 C11        -3.9428   -3.6293   -1.3892 C.2       1 <0>         0.0117
     16 O2         -3.3054   -3.4199   -0.2258 O.3       1 <0>        -0.1840
     17 N2         -2.4656   -4.0415    2.5020 N.4       1 <0>        -0.3857
     18 C12        -1.6510   -4.2141    3.7108 C.3       1 <0>        -0.0160
     19 C13        -2.2942   -3.4591    4.8760 C.3       1 <0>        -0.1442
     20 C14        -3.7002   -4.0138    5.1226 C.3       1 <0>        -0.1389
     21 C15        -4.5179   -3.8965    3.8331 C.3       1 <0>        -0.1444
     22 C16        -3.7923   -4.6353    2.7065 C.3       1 <0>        -0.0064
     23 N3          1.6932    0.2660    0.6292 N.am      1 <0>        -0.7068
     24 C17         1.8604    1.5565    0.9804 C.2       1 <0>         0.6153
     25 O3          0.9105    2.2083    1.3725 O.2       1 <0>        -0.5113
     26 C18         3.1870    2.1750    0.8901 C.2       1 <0>        -0.0969
     27 C19         3.4951    3.4643    1.2175 C.2       1 <0>        -0.1051
     28 C20         4.8690    3.6241    0.9786 C.2       1 <0>        -0.2254
     29 C21         5.3335    2.4403    0.5215 C.2       1 <0>         0.0065
     30 O4          4.3180    1.5682    0.4744 O.3       1 <0>        -0.1654
     31 H3          0.4116    1.9183   -0.7887 H         1 <0>         0.0594
     32 H4         -1.1367    1.6702   -1.6310 H         1 <0>         0.0590
     33 H5         -1.1072    1.8654    0.1380 H         1 <0>         0.0687
     34 H6         -1.4073   -0.5146   -0.4899 H         1 <0>         0.0801
     35 H7          1.3126   -0.1661   -1.8307 H         1 <0>         0.0632
     36 H8          0.4356   -1.7041   -1.6464 H         1 <0>         0.0504
     37 H9         -0.2357   -0.4143   -2.6730 H         1 <0>         0.0665
     38 H10        -1.4593   -2.2254    0.9567 H         1 <0>         0.3994
     39 H11         0.0201   -4.4920    0.2429 H         1 <0>         0.1189
     40 H12         0.2121   -4.2817    2.0000 H         1 <0>         0.1100
     41 H13        -2.4724   -6.4814   -0.8109 H         1 <0>         0.1625
     42 H14        -4.0724   -5.3680   -2.6806 H         1 <0>         0.1643
     43 H15        -4.5507   -2.9080   -1.9151 H         1 <0>         0.2190
     44 H16        -1.5866   -5.2741    3.9566 H         1 <0>         0.1361
     45 H17        -0.6498   -3.8218    3.5327 H         1 <0>         0.1326
     46 H18        -1.6889   -3.5900    5.7730 H         1 <0>         0.1160
     47 H19        -2.3589   -2.3989    4.6314 H         1 <0>         0.0878
     48 H20        -3.6324   -5.0611    5.4172 H         1 <0>         0.0838
     49 H21        -4.1841   -3.4418    5.9143 H         1 <0>         0.0964
     50 H22        -5.5020   -4.3401    3.9845 H         1 <0>         0.1147
     51 H23        -4.6288   -2.8454    3.5667 H         1 <0>         0.0876
     52 H24        -4.3719   -4.5539    1.7869 H         1 <0>         0.1294
     53 H25        -3.6822   -5.6863    2.9737 H         1 <0>         0.1327
     54 H26         2.4503   -0.2536    0.3167 H         1 <0>         0.4170
     55 H27         2.8137    4.2156    1.5885 H         1 <0>         0.1627
     56 H28         5.4463    4.5240    1.1310 H         1 <0>         0.1615
     57 H29         6.3558    2.2308    0.2434 H         1 <0>         0.2147
     58 H30        -2.5657   -3.0572    2.3041 H         1 <0>         0.4188
@<TRIPOS>BOND
     1    1    2 1
     2    1   31 1
     3    1   32 1
     4    1   33 1
     5    2    3 1
     6    2    4 1
     7    2   34 1
     8    3   35 1
     9    3   36 1
    10    3   37 1
    11    4    5 1
    12    4    6 1
    13    4   23 1
    14    6    7 2
    15    6    8 am
    16    8    9 1
    17    8   38 1
    18    9   10 1
    19    9   39 1
    20    9   40 1
    21   10   11 1
    22   10   12 1
    23   10   17 1
    24   12   16 1
    25   12   13 2
    26   13   14 1
    27   13   41 1
    28   14   15 2
    29   14   42 1
    30   15   16 1
    31   15   43 1
    32   17   22 1
    33   17   18 1
    34   17   58 1
    35   18   19 1
    36   18   44 1
    37   18   45 1
    38   19   20 1
    39   19   46 1
    40   19   47 1
    41   20   21 1
    42   20   48 1
    43   20   49 1
    44   21   22 1
    45   21   50 1
    46   21   51 1
    47   22   52 1
    48   22   53 1
    49   23   24 am
    50   23   54 1
    51   24   25 2
    52   24   26 1
    53   26   30 1
    54   26   27 2
    55   27   28 1
    56   27   55 1
    57   28   29 2
    58   28   56 1
    59   29   30 1
    60   29   57 1
@<TRIPOS>MOLECULE
ZINC03363866
   58    60     0     0     0
SMALL
USER_CHARGES

@<TRIPOS>ATOM
      1 C1          0.3013   -1.1020   -0.5290 C.3       1 <0>        -0.1535
      2 C2         -0.3453   -0.2229    0.5435 C.3       1 <0>        -0.0973
      3 C3         -1.8268   -0.5825    0.6726 C.3       1 <0>        -0.1447
      4 C4          0.3548   -0.4557    1.8839 C.3       1 <0>         0.1345
      5 H1         -0.1442    0.1246    2.6600 H         1 <0>         0.1162
      6 C5          1.7946   -0.0229    1.7805 C.2       1 <0>         0.5253
      7 O1          2.6631   -0.8469    1.5867 O.2       1 <0>        -0.5021
      8 N1          2.1171    1.2799    1.9033 N.am      1 <0>        -0.7448
      9 C6          3.5239    1.6886    1.9120 C.3       1 <0>         0.0965
     10 C7          3.6158    3.1950    2.1640 C.3       1 <0>         0.1247
     11 H2          4.6544    3.5147    2.0795 H         1 <0>         0.1768
     12 C8          3.1058    3.5049    3.5477 C.2       1 <0>        -0.1100
     13 C9          3.8661    3.7296    4.6344 C.2       1 <0>        -0.1260
     14 C10         2.9816    3.9781    5.7090 C.2       1 <0>        -0.2113
     15 C11         1.7336    3.8904    5.2147 C.2       1 <0>         0.0119
     16 O2          1.8151    3.6093    3.9040 O.3       1 <0>        -0.1832
     17 N2          2.8015    3.9081    1.1708 N.4       1 <0>        -0.3861
     18 C12         3.3161    3.6267   -0.1747 C.3       1 <0>        -0.0167
     19 C13         2.4230    4.3015   -1.2180 C.3       1 <0>        -0.1438
     20 C14         2.4191    5.8138   -0.9772 C.3       1 <0>        -0.1392
     21 C15         1.9513    6.0917    0.4543 C.3       1 <0>        -0.1444
     22 C16         2.8620    5.3506    1.4356 C.3       1 <0>        -0.0066
     23 N3          0.2961   -1.8793    2.2247 N.am      1 <0>        -0.7079
     24 C17        -0.7880   -2.3781    2.8512 C.2       1 <0>         0.6145
     25 O3         -1.7181   -1.6459    3.1337 O.2       1 <0>        -0.5098
     26 C18        -0.8468   -3.8032    3.1924 C.2       1 <0>        -0.0973
     27 C19        -1.8818   -4.4362    3.8188 C.2       1 <0>        -0.1048
     28 C20        -1.5146   -5.7854    3.9418 C.2       1 <0>        -0.2255
     29 C21        -0.2870   -5.9151    3.3921 C.2       1 <0>         0.0067
     30 O4          0.1099   -4.7196    2.9371 O.3       1 <0>        -0.1655
     31 H3          0.2794   -2.1431   -0.2071 H         1 <0>         0.0640
     32 H4         -0.2497   -0.9990   -1.4639 H         1 <0>         0.0657
     33 H5          1.3347   -0.7900   -0.6800 H         1 <0>         0.0534
     34 H6         -0.2491    0.8253    0.2606 H         1 <0>         0.0775
     35 H7         -1.9229   -1.6308    0.9555 H         1 <0>         0.0618
     36 H8         -2.2874    0.0437    1.4367 H         1 <0>         0.0665
     37 H9         -2.3255   -0.4167   -0.2823 H         1 <0>         0.0593
     38 H10         1.4177    1.9470    1.9859 H         1 <0>         0.3970
     39 H11         4.0523    1.1552    2.7021 H         1 <0>         0.1212
     40 H12         3.9767    1.4530    0.9489 H         1 <0>         0.1073
     41 H13         4.9452    3.7212    4.6777 H         1 <0>         0.1626
     42 H14         3.2554    4.1962    6.7307 H         1 <0>         0.1645
     43 H15         0.8210    4.0269    5.7759 H         1 <0>         0.2193
     44 H16         4.3319    4.0122   -0.2628 H         1 <0>         0.1363
     45 H17         3.3213    2.5498   -0.3434 H         1 <0>         0.1334
     46 H18         2.8077    4.0928   -2.2162 H         1 <0>         0.1162
     47 H19         1.4069    3.9165   -1.1310 H         1 <0>         0.0878
     48 H20         3.4263    6.2073   -1.1144 H         1 <0>         0.0839
     49 H21         1.7400    6.2934   -1.6822 H         1 <0>         0.0964
     50 H22         1.9990    7.1627    0.6513 H         1 <0>         0.1147
     51 H23         0.9255    5.7439    0.5760 H         1 <0>         0.0876
     52 H24         2.5318    5.5465    2.4557 H         1 <0>         0.1295
     53 H25         3.8874    5.6993    1.3132 H         1 <0>         0.1330
     54 H26         1.0374   -2.4629    1.9995 H         1 <0>         0.4174
     55 H27        -2.8044   -3.9861    4.1545 H         1 <0>         0.1628
     56 H28        -2.1025   -6.5718    4.3916 H         1 <0>         0.1616
     57 H29         0.2794   -6.8324    3.3272 H         1 <0>         0.2148
     58 H30         1.8444    3.5952    1.2349 H         1 <0>         0.4178
@<TRIPOS>BOND
     1    1    2 1
     2    1   31 1
     3    1   32 1
     4    1   33 1
     5    2    3 1
     6    2    4 1
     7    2   34 1
     8    3   35 1
     9    3   36 1
    10    3   37 1
    11    4    5 1
    12    4    6 1
    13    4   23 1
    14    6    7 2
    15    6    8 am
    16    8    9 1
    17    8   38 1
    18    9   10 1
    19    9   39 1
    20    9   40 1
    21   10   11 1
    22   10   12 1
    23   10   17 1
    24   12   16 1
    25   12   13 2
    26   13   14 1
    27   13   41 1
    28   14   15 2
    29   14   42 1
    30   15   16 1
    31   15   43 1
    32   17   22 1
    33   17   18 1
    34   17   58 1
    35   18   19 1
    36   18   44 1
    37   18   45 1
    38   19   20 1
    39   19   46 1
    40   19   47 1
    41   20   21 1
    42   20   48 1
    43   20   49 1
    44   21   22 1
    45   21   50 1
    46   21   51 1
    47   22   52 1
    48   22   53 1
    49   23   24 am
    50   23   54 1
    51   24   25 2
    52   24   26 1
    53   26   30 1
    54   26   27 2
    55   27   28 1
    56   27   55 1
    57   28   29 2
    58   28   56 1
    59   29   30 1
    60   29   57 1
@<TRIPOS>MOLECULE
ZINC01852276
   50    52     0     0     0
SMALL
USER_CHARGES

@<TRIPOS>ATOM
      1 C1         -0.0184    1.5028    0.0103 C.3       1 <0>        -0.1092
      2 C2          0.0021   -0.0041    0.0020 C.ar      1 <0>        -0.1095
      3 C3          0.0057   -0.6889   -1.1980 C.ar      1 <0>        -0.0833
      4 C4          0.0240   -2.0712   -1.2062 C.ar      1 <0>        -0.1509
      5 C5          0.0391   -2.7720   -0.0142 C.ar      1 <0>        -0.0864
      6 C6          0.0359   -2.0920    1.1881 C.ar      1 <0>        -0.2067
      7 C7          0.0230   -0.7046    1.1991 C.ar      1 <0>         0.1234
      8 O1          0.0255   -0.0332    2.3806 O.3       1 <0>        -0.2866
      9 C8          0.0475   -0.8196    3.5736 C.3       1 <0>         0.0439
     10 C9          0.0471    0.0902    4.7750 C.2       1 <0>         0.5231
     11 O2          0.0297    1.2935    4.6245 O.2       1 <0>        -0.5059
     12 N1          0.0660   -0.4334    6.0168 N.am      1 <0>        -0.7232
     13 C10         0.0656    0.4510    7.1847 C.3       1 <0>         0.1309
     14 C11         0.0888   -0.3783    8.4428 C.2       1 <0>         0.4637
     15 O3          0.1041   -1.5844    8.3712 O.2       1 <0>        -0.5008
     16 O4          0.0925    0.2228    9.6429 O.3       1 <0>        -0.3264
     17 C12         0.1148   -0.6249   10.7931 C.3       1 <0>         0.0210
     18 C13         0.1157    0.2207   12.0405 C.2       1 <0>         0.3983
     19 O5          0.0989    1.4301   11.9531 O.2       1 <0>        -0.4241
     20 C14         0.1370   -0.4208   13.3637 C.ar      1 <0>        -0.1688
     21 C15         0.1624   -1.8263   13.4598 C.ar      1 <0>        -0.0876
     22 C16         0.1824   -2.4399   14.6692 C.ar      1 <0>        -0.1090
     23 C17         0.1776   -1.6728   15.8494 C.ar      1 <0>        -0.0271
     24 C18         0.1981   -2.2874   17.1121 C.ar      1 <0>        -0.1151
     25 C19         0.1932   -1.5200   18.2369 C.ar      1 <0>        -0.0985
     26 C20         0.1680   -0.1290   18.1571 C.ar      1 <0>        -0.1180
     27 C21         0.1472    0.5026   16.9518 C.ar      1 <0>        -0.0937
     28 C22         0.1520   -0.2571   15.7676 C.ar      1 <0>        -0.0694
     29 C23         0.1378    0.3625   14.5097 C.ar      1 <0>        -0.0224
     30 H1          1.0042    1.8801    0.0026 H         1 <0>         0.0696
     31 H2         -0.5455    1.8639   -0.8728 H         1 <0>         0.0658
     32 H3         -0.5286    1.8543    0.9071 H         1 <0>         0.0734
     33 H4         -0.0060   -0.1439   -2.1303 H         1 <0>         0.1306
     34 H5          0.0261   -2.6047   -2.1453 H         1 <0>         0.1251
     35 H6          0.0529   -3.8519   -0.0233 H         1 <0>         0.1257
     36 H7          0.0477   -2.6398    2.1188 H         1 <0>         0.1276
     37 H8         -0.8338   -1.4603    3.6027 H         1 <0>         0.0972
     38 H9          0.9459   -1.4367    3.5855 H         1 <0>         0.0973
     39 H10         0.0800   -1.3958    6.1372 H         1 <0>         0.4142
     40 H11         0.9470    1.0917    7.1556 H         1 <0>         0.1204
     41 H12        -0.8328    1.0681    7.1728 H         1 <0>         0.1204
     42 H13        -0.7668   -1.2659   10.7893 H         1 <0>         0.1092
     43 H14         1.0129   -1.2423   10.7720 H         1 <0>         0.1091
     44 H15         0.1656   -2.4224   12.5592 H         1 <0>         0.1322
     45 H16         0.2018   -3.5182   14.7267 H         1 <0>         0.1358
     46 H17         0.2173   -3.3644   17.1906 H         1 <0>         0.1321
     47 H18         0.2086   -1.9968   19.2059 H         1 <0>         0.1281
     48 H19         0.1646    0.4563   19.0648 H         1 <0>         0.1286
     49 H20         0.1271    1.5814   16.9045 H         1 <0>         0.1327
     50 H21         0.1227    1.4397   14.4332 H         1 <0>         0.1432
@<TRIPOS>BOND
     1    1    2 1
     2    1   30 1
     3    1   31 1
     4    1   32 1
     5    2    7 ar
     6    2    3 ar
     7    3    4 ar
     8    3   33 1
     9    4    5 ar
    10    4   34 1
    11    5    6 ar
    12    5   35 1
    13    6    7 ar
    14    6   36 1
    15    7    8 1
    16    8    9 1
    17    9   10 1
    18    9   37 1
    19    9   38 1
    20   10   11 2
    21   10   12 am
    22   12   13 1
    23   12   39 1
    24   13   14 1
    25   13   40 1
    26   13   41 1
    27   14   15 2
    28   14   16 1
    29   16   17 1
    30   17   18 1
    31   17   42 1
    32   17   43 1
    33   18   19 2
    34   18   20 1
    35   20   29 ar
    36   20   21 ar
    37   21   22 ar
    38   21   44 1
    39   22   23 ar
    40   22   45 1
    41   23   28 ar
    42   23   24 ar
    43   24   25 ar
    44   24   46 1
    45   25   26 ar
    46   25   47 1
    47   26   27 ar
    48   26   48 1
    49   27   28 ar
    50   27   49 1
    51   28   29 ar
    52   29   50 1
@<TRIPOS>MOLECULE
ZINC05212600
   43    45     0     0     0
SMALL
USER_CHARGES

@<TRIPOS>ATOM
      1 C1         -0.0169    1.3919    0.0097 C.ar      1 <0>        -0.0430
      2 C2          1.1695    2.0948    0.0021 C.ar      1 <0>        -0.1175
      3 C3          2.3782    1.4186   -0.0130 C.ar      1 <0>        -0.0088
      4 C4          2.4034    0.0338   -0.0212 C.ar      1 <0>        -0.1172
      5 C5          1.2236   -0.6800   -0.0137 C.ar      1 <0>        -0.0716
      6 C6          0.0021   -0.0041    0.0020 C.ar      1 <0>        -0.1339
      7 C7         -1.2659   -0.7632    0.0100 C.2       1 <0>         0.5676
      8 O1         -2.3281   -0.1722    0.0234 O.2       1 <0>        -0.5247
      9 N1         -1.2445   -2.1108    0.0026 N.am      1 <0>        -0.7216
     10 C8         -2.5014   -2.8634    0.0106 C.3       1 <0>         0.1286
     11 C9         -2.2026   -4.3404   -0.0002 C.2       1 <0>         0.4637
     12 O2         -1.0573   -4.7250   -0.0132 O.2       1 <0>        -0.5011
     13 O3         -3.2089   -5.2288    0.0046 O.3       1 <0>        -0.3259
     14 C10        -2.8527   -6.6126   -0.0062 C.3       1 <0>         0.0210
     15 C11        -4.1033   -7.4533    0.0012 C.2       1 <0>         0.4023
     16 O4         -5.1926   -6.9199    0.0145 O.2       1 <0>        -0.4218
     17 C12        -4.0032   -8.9185   -0.0076 C.ar      1 <0>        -0.1676
     18 C13        -2.7472   -9.5370   -0.0171 C.ar      1 <0>        -0.0675
     19 C14        -2.6579  -10.9101   -0.0268 C.ar      1 <0>        -0.1243
     20 C15        -3.8108  -11.6885   -0.0264 C.ar      1 <0>         0.0894
     21 C16        -5.0644  -11.0802   -0.0145 C.ar      1 <0>         0.0389
     22 C17        -5.1632   -9.7020   -0.0007 C.ar      1 <0>        -0.0472
     23 O5         -6.2015  -11.8290   -0.0061 O.3       1 <0>        -0.3030
     24 C18        -6.0703  -13.2022   -0.3895 C.3       1 <0>         0.0191
     25 C19        -4.8561  -13.7909    0.3416 C.3       1 <0>         0.0179
     26 O6         -3.6967  -13.0429   -0.0399 O.3       1 <0>        -0.3011
     27 Cl1         3.8676    2.3104   -0.0225 Cl        1 <0>        -0.0573
     28 H1         -0.9587    1.9202    0.0260 H         1 <0>         0.1488
     29 H2          1.1561    3.1747    0.0077 H         1 <0>         0.1440
     30 H3          3.3489   -0.4880   -0.0337 H         1 <0>         0.1428
     31 H4          1.2444   -1.7598   -0.0205 H         1 <0>         0.1376
     32 H5         -0.3969   -2.5824   -0.0080 H         1 <0>         0.4124
     33 H6         -3.0686   -2.6139    0.9074 H         1 <0>         0.1208
     34 H7         -3.0856   -2.6044   -0.8725 H         1 <0>         0.1208
     35 H8         -2.2730   -6.8315   -0.9030 H         1 <0>         0.1100
     36 H9         -2.2560   -6.8411    0.8769 H         1 <0>         0.1100
     37 H10        -1.8492   -8.9370   -0.0173 H         1 <0>         0.1434
     38 H11        -1.6883  -11.3857   -0.0350 H         1 <0>         0.1458
     39 H12        -6.1344   -9.2297    0.0111 H         1 <0>         0.1496
     40 H13        -6.9697  -13.7499   -0.1084 H         1 <0>         0.1278
     41 H14        -5.9193  -13.2703   -1.4668 H         1 <0>         0.0814
     42 H15        -5.0038  -13.7157    1.4189 H         1 <0>         0.0832
     43 H16        -4.7285  -14.8360    0.0596 H         1 <0>         0.1282
@<TRIPOS>BOND
     1    1    6 ar
     2    1    2 ar
     3    1   28 1
     4    2    3 ar
     5    2   29 1
     6    3    4 ar
     7    3   27 1
     8    4    5 ar
     9    4   30 1
    10    5    6 ar
    11    5   31 1
    12    6    7 1
    13    7    8 2
    14    7    9 am
    15    9   10 1
    16    9   32 1
    17   10   11 1
    18   10   33 1
    19   10   34 1
    20   11   12 2
    21   11   13 1
    22   13   14 1
    23   14   15 1
    24   14   35 1
    25   14   36 1
    26   15   16 2
    27   15   17 1
    28   17   22 ar
    29   17   18 ar
    30   18   19 ar
    31   18   37 1
    32   19   20 ar
    33   19   38 1
    34   20   26 1
    35   20   21 ar
    36   21   22 ar
    37   21   23 1
    38   22   39 1
    39   23   24 1
    40   24   25 1
    41   24   40 1
    42   24   41 1
    43   25   26 1
    44   25   42 1
    45   25   43 1
@<TRIPOS>MOLECULE
ZINC03242873
   52    54     0     0     0
SMALL
USER_CHARGES

@<TRIPOS>ATOM
      1 C1         -0.0393    1.3647    0.0423 C.ar      1 <0>        -0.1017
      2 C2          1.1456    2.0766    0.0272 C.ar      1 <0>        -0.1167
      3 C3          2.3543    1.4063    0.0027 C.ar      1 <0>        -0.0968
      4 C4          2.3782    0.0242   -0.0062 C.ar      1 <0>        -0.1297
      5 C5          1.1934   -0.6877    0.0098 C.ar      1 <0>        -0.0891
      6 C6         -0.0154   -0.0174    0.0329 C.ar      1 <0>        -0.1170
      7 C7          3.6960   -0.7064   -0.0340 C.3       1 <0>         0.1231
      8 H1          4.4757   -0.0359   -0.3951 H         1 <0>         0.1240
      9 C8          4.0402   -1.1744    1.3566 C.2       1 <0>         0.5271
     10 O1          4.0971   -2.3612    1.6004 O.2       1 <0>        -0.4809
     11 N1          4.2849   -0.2741    2.3293 N.am      1 <0>        -0.6586
     12 C9          4.4904   -0.7042    3.6454 C.ar      1 <0>         0.1624
     13 C10         3.9614   -1.9149    4.0724 C.ar      1 <0>        -0.0728
     14 C11         4.1663   -2.3369    5.3715 C.ar      1 <0>        -0.1555
     15 C12         4.8971   -1.5550    6.2474 C.ar      1 <0>        -0.0745
     16 C13         5.4255   -0.3488    5.8263 C.ar      1 <0>        -0.0856
     17 C14         5.2291    0.0767    4.5259 C.ar      1 <0>        -0.0403
     18 Cl1         5.8989    1.5879    3.9953 Cl        1 <0>        -0.0461
     19 C15         3.5923   -3.6509    5.8352 C.3       1 <0>         0.5115
     20 F1          4.5200   -4.6723    5.6047 F         1 <0>        -0.1707
     21 F2          3.3083   -3.5789    7.2032 F         1 <0>        -0.1734
     22 F3          2.4157   -3.9212    5.1282 F         1 <0>        -0.1725
     23 O2          3.5968   -1.8347   -0.9053 O.3       1 <0>        -0.3110
     24 C16         3.9111   -1.6378   -2.1954 C.2       1 <0>         0.4648
     25 O3          4.2589   -0.5438   -2.5723 O.2       1 <0>        -0.4937
     26 C17         3.8302   -2.7813   -3.1736 C.3       1 <0>         0.1310
     27 N2          4.2202   -2.3129   -4.5057 N.am      1 <0>        -0.7228
     28 C18         4.2233   -3.1687   -5.5469 C.2       1 <0>         0.5672
     29 O4          3.9024   -4.3293   -5.3806 O.2       1 <0>        -0.5279
     30 C19         4.6170   -2.6960   -6.8913 C.ar      1 <0>        -0.1385
     31 C20         4.9915   -1.3654   -7.0845 C.ar      1 <0>        -0.0850
     32 C21         5.3582   -0.9308   -8.3414 C.ar      1 <0>        -0.1270
     33 C22         5.3547   -1.8106   -9.4093 C.ar      1 <0>        -0.0898
     34 C23         4.9841   -3.1308   -9.2246 C.ar      1 <0>        -0.1272
     35 C24         4.6212   -3.5797   -7.9716 C.ar      1 <0>        -0.0566
     36 H2         -0.9836    1.8883    0.0660 H         1 <0>         0.1283
     37 H3          1.1269    3.1564    0.0342 H         1 <0>         0.1302
     38 H4          3.2800    1.9625   -0.0098 H         1 <0>         0.1271
     39 H5          1.2121   -1.7675    0.0025 H         1 <0>         0.1315
     40 H6         -0.9411   -0.5736    0.0450 H         1 <0>         0.1297
     41 H7          4.3186    0.6718    2.1173 H         1 <0>         0.4186
     42 H8          3.3900   -2.5260    3.3894 H         1 <0>         0.1686
     43 H9          5.0550   -1.8873    7.2628 H         1 <0>         0.1505
     44 H10         5.9954    0.2596    6.5128 H         1 <0>         0.1540
     45 H11         4.5030   -3.5784   -2.8573 H         1 <0>         0.1214
     46 H12         2.8085   -3.1599   -3.2063 H         1 <0>         0.1203
     47 H13         4.4763   -1.3868   -4.6385 H         1 <0>         0.4122
     48 H14         4.9939   -0.6775   -6.2519 H         1 <0>         0.1266
     49 H15         5.6482    0.0985   -8.4923 H         1 <0>         0.1308
     50 H16         5.6423   -1.4653  -10.3913 H         1 <0>         0.1294
     51 H17         4.9832   -3.8124  -10.0623 H         1 <0>         0.1325
     52 H18         4.3368   -4.6117   -7.8278 H         1 <0>         0.1382
@<TRIPOS>BOND
     1    1    6 ar
     2    1    2 ar
     3    1   36 1
     4    2    3 ar
     5    2   37 1
     6    3    4 ar
     7    3   38 1
     8    4    5 ar
     9    4    7 1
    10    5    6 ar
    11    5   39 1
    12    6   40 1
    13    7    8 1
    14    7    9 1
    15    7   23 1
    16    9   10 2
    17    9   11 am
    18   11   12 1
    19   11   41 1
    20   12   17 ar
    21   12   13 ar
    22   13   14 ar
    23   13   42 1
    24   14   15 ar
    25   14   19 1
    26   15   16 ar
    27   15   43 1
    28   16   17 ar
    29   16   44 1
    30   17   18 1
    31   19   20 1
    32   19   21 1
    33   19   22 1
    34   23   24 1
    35   24   25 2
    36   24   26 1
    37   26   27 1
    38   26   45 1
    39   26   46 1
    40   27   28 am
    41   27   47 1
    42   28   29 2
    43   28   30 1
    44   30   35 ar
    45   30   31 ar
    46   31   32 ar
    47   31   48 1
    48   32   33 ar
    49   32   49 1
    50   33   34 ar
    51   33   50 1
    52   34   35 ar
    53   34   51 1
    54   35   52 1
@<TRIPOS>MOLECULE
ZINC03242874
   52    54     0     0     0
SMALL
USER_CHARGES

@<TRIPOS>ATOM
      1 C1          0.0054    1.3899    0.0427 C.ar      1 <0>        -0.1024
      2 C2          1.1951    2.0936    0.0270 C.ar      1 <0>        -0.1151
      3 C3          2.3992    1.4150    0.0025 C.ar      1 <0>        -0.1002
      4 C4          2.4136    0.0328   -0.0058 C.ar      1 <0>        -0.1289
      5 C5          1.2238   -0.6709    0.0109 C.ar      1 <0>        -0.0893
      6 C6          0.0197    0.0077    0.0339 C.ar      1 <0>        -0.1159
      7 C7          3.7262   -0.7070   -0.0335 C.3       1 <0>         0.1231
      8 H1          4.5076   -0.0765    0.3906 H         1 <0>         0.1257
      9 C8          4.0777   -1.0532   -1.4575 C.2       1 <0>         0.5273
     10 O1          4.1286   -2.2143   -1.8044 O.2       1 <0>        -0.4803
     11 N1          4.3355   -0.0727   -2.3454 N.am      1 <0>        -0.6594
     12 C9          4.7742   -0.3941   -3.6353 C.ar      1 <0>         0.1616
     13 C10         5.4272   -1.5970   -3.8686 C.ar      1 <0>        -0.0737
     14 C11         5.8585   -1.9116   -5.1424 C.ar      1 <0>        -0.1555
     15 C12         5.6411   -1.0299   -6.1855 C.ar      1 <0>        -0.0741
     16 C13         4.9913    0.1689   -5.9575 C.ar      1 <0>        -0.0856
     17 C14         4.5520    0.4875   -4.6862 C.ar      1 <0>        -0.0399
     18 Cl1         3.7297    1.9896   -4.4016 Cl        1 <0>        -0.0447
     19 C15         6.5672   -3.2171   -5.3959 C.3       1 <0>         0.5115
     20 F1          5.6285   -4.2015   -5.7231 F         1 <0>        -0.1706
     21 F2          7.4676   -3.0609   -6.4553 F         1 <0>        -0.1733
     22 F3          7.2636   -3.6009   -4.2448 F         1 <0>        -0.1727
     23 O2          3.6131   -1.9068    0.7344 O.3       1 <0>        -0.3111
     24 C16         3.9191   -1.8265    2.0389 C.2       1 <0>         0.4646
     25 O3          4.2713   -0.7725    2.5130 O.2       1 <0>        -0.4932
     26 C17         3.8233   -3.0510    2.9121 C.3       1 <0>         0.1310
     27 N2          4.2066   -2.7045    4.2829 N.am      1 <0>        -0.7228
     28 C18         4.1962   -3.6486    5.2447 C.2       1 <0>         0.5673
     29 O4          3.8690   -4.7877    4.9746 O.2       1 <0>        -0.5278
     30 C19         4.5830   -3.2989    6.6281 C.ar      1 <0>        -0.1386
     31 C20         4.9537   -1.9905    6.9428 C.ar      1 <0>        -0.0850
     32 C21         5.3131   -1.6707    8.2357 C.ar      1 <0>        -0.1270
     33 C22         5.3069   -2.6436    9.2195 C.ar      1 <0>        -0.0898
     34 C23         4.9408   -3.9425    8.9141 C.ar      1 <0>        -0.1272
     35 C24         4.5734   -4.2743    7.6264 C.ar      1 <0>        -0.0566
     36 H2         -0.9352    1.9201    0.0664 H         1 <0>         0.1282
     37 H3          1.1839    3.1735    0.0335 H         1 <0>         0.1300
     38 H4          3.3287    1.9648   -0.0105 H         1 <0>         0.1264
     39 H5          1.2350   -1.7508    0.0040 H         1 <0>         0.1315
     40 H6         -0.9098   -0.5421    0.0466 H         1 <0>         0.1296
     41 H7          4.2171    0.8558   -2.0907 H         1 <0>         0.4185
     42 H8          5.5981   -2.2859   -3.0546 H         1 <0>         0.1683
     43 H9          5.9801   -1.2783   -7.1804 H         1 <0>         0.1506
     44 H10         4.8234    0.8554   -6.7742 H         1 <0>         0.1540
     45 H11         2.7990   -3.4236    2.9043 H         1 <0>         0.1203
     46 H12         4.4933   -3.8220    2.5314 H         1 <0>         0.1216
     47 H13         4.4677   -1.7955    4.4984 H         1 <0>         0.4122
     48 H14         4.9596   -1.2304    6.1756 H         1 <0>         0.1266
     49 H15         5.6001   -0.6588    8.4805 H         1 <0>         0.1308
     50 H16         5.5894   -2.3881   10.2301 H         1 <0>         0.1295
     51 H17         4.9385   -4.6974    9.6865 H         1 <0>         0.1324
     52 H18         4.2831   -5.2874    7.3904 H         1 <0>         0.1382
@<TRIPOS>BOND
     1    1    6 ar
     2    1    2 ar
     3    1   36 1
     4    2    3 ar
     5    2   37 1
     6    3    4 ar
     7    3   38 1
     8    4    5 ar
     9    4    7 1
    10    5    6 ar
    11    5   39 1
    12    6   40 1
    13    7    8 1
    14    7    9 1
    15    7   23 1
    16    9   10 2
    17    9   11 am
    18   11   12 1
    19   11   41 1
    20   12   17 ar
    21   12   13 ar
    22   13   14 ar
    23   13   42 1
    24   14   15 ar
    25   14   19 1
    26   15   16 ar
    27   15   43 1
    28   16   17 ar
    29   16   44 1
    30   17   18 1
    31   19   20 1
    32   19   21 1
    33   19   22 1
    34   23   24 1
    35   24   25 2
    36   24   26 1
    37   26   27 1
    38   26   45 1
    39   26   46 1
    40   27   28 am
    41   27   47 1
    42   28   29 2
    43   28   30 1
    44   30   35 ar
    45   30   31 ar
    46   31   32 ar
    47   31   48 1
    48   32   33 ar
    49   32   49 1
    50   33   34 ar
    51   33   50 1
    52   34   35 ar
    53   34   51 1
    54   35   52 1
@<TRIPOS>MOLECULE
ZINC02652324
   55    58     0     0     0
SMALL
USER_CHARGES
(5-methylisoxazol-3-yl)carbamoylmethyl 2-(4-fluorobenzoyl)amino-3-(1H-indol-3-yl)propanoate
@<TRIPOS>ATOM
      1 C1          2.5003    1.5459   -0.0140 C.3       1 <0>        -0.0767
      2 C2          1.0414    1.9233    0.0024 C.2       1 <0>        -0.0162
      3 C3         -0.0126    1.0758    0.0080 C.2       1 <0>        -0.2291
      4 C4         -1.1432    1.9353    0.0171 C.2       1 <0>         0.2449
      5 N1         -0.6740    3.1554    0.0255 N.2       1 <0>        -0.3855
      6 O1          0.5351    3.1648    0.0140 O.3       1 <0>         0.1003
      7 N2         -2.4851    1.5540    0.0204 N.am      1 <0>        -0.6280
      8 C5         -2.8143    0.2471    0.0146 C.2       1 <0>         0.5255
      9 O2         -1.9439   -0.5974    0.0065 O.2       1 <0>        -0.4830
     10 C6         -4.2639   -0.1648    0.0181 C.3       1 <0>         0.0549
     11 O3         -4.3553   -1.6139    0.0105 O.3       1 <0>        -0.3224
     12 C7         -5.5873   -2.1468    0.0125 C.2       1 <0>         0.4668
     13 O4         -6.5571   -1.4263    0.0203 O.2       1 <0>        -0.4977
     14 C8         -5.7607   -3.6438    0.0051 C.3       1 <0>         0.1674
     15 H1         -5.2957   -4.0590   -0.8890 H         1 <0>         0.1339
     16 C9         -5.0980   -4.2402    1.2485 C.3       1 <0>        -0.0497
     17 C10        -5.1637   -5.7442    1.1802 C.2       1 <0>        -0.1601
     18 C11        -6.0955   -6.5291    1.7437 C.2       1 <0>         0.0638
     19 N3         -5.8298   -7.8423    1.4655 N.pl3     1 <0>        -0.5893
     20 H2         -6.3647   -8.5944    1.7639 H         1 <0>         0.4131
     21 C12        -4.6867   -7.9373    0.7038 C.ar      1 <0>         0.1050
     22 C13        -4.2193   -6.6273    0.4916 C.ar      1 <0>        -0.0804
     23 C14        -3.0613   -6.4137   -0.2581 C.ar      1 <0>        -0.0721
     24 C15        -2.3865   -7.4800   -0.7828 C.ar      1 <0>        -0.1464
     25 C16        -2.8432   -8.7742   -0.5760 C.ar      1 <0>        -0.1010
     26 C17        -3.9840   -9.0077    0.1606 C.ar      1 <0>        -0.1317
     27 N4         -7.1889   -3.9699    0.0090 N.am      1 <0>        -0.7161
     28 C18        -7.6124   -5.1485   -0.4891 C.2       1 <0>         0.5631
     29 O5         -6.8092   -5.9410   -0.9415 O.2       1 <0>        -0.4985
     30 C19        -9.0526   -5.4774   -0.4851 C.ar      1 <0>        -0.1453
     31 C20        -9.9768   -4.5713    0.0392 C.ar      1 <0>        -0.0571
     32 C21       -11.3201   -4.8803    0.0343 C.ar      1 <0>        -0.1602
     33 C22       -11.7530   -6.0938   -0.4783 C.ar      1 <0>         0.1271
     34 C23       -10.8390   -6.9997   -0.9945 C.ar      1 <0>        -0.1615
     35 C24        -9.4941   -6.6979   -1.0005 C.ar      1 <0>        -0.0284
     36 F1        -13.0701   -6.3943   -0.4752 F         1 <0>        -0.1323
     37 H3          2.8420    1.4607   -1.0455 H         1 <0>         0.0914
     38 H4          3.0800    2.3136    0.4986 H         1 <0>         0.0862
     39 H5          2.6342    0.5904    0.4932 H         1 <0>         0.0950
     40 H6          0.0021   -0.0041    0.0020 H         1 <0>         0.1915
     41 H7         -3.1812    2.2295    0.0268 H         1 <0>         0.4224
     42 H8         -4.7503    0.2253    0.9121 H         1 <0>         0.1139
     43 H9         -4.7573    0.2350   -0.8678 H         1 <0>         0.1133
     44 H10        -4.0559   -3.9236    1.2920 H         1 <0>         0.0981
     45 H11        -5.6205   -3.8938    2.1402 H         1 <0>         0.0789
     46 H12        -6.9321   -6.1763    2.3285 H         1 <0>         0.1582
     47 H13        -2.6999   -5.4094   -0.4228 H         1 <0>         0.1193
     48 H14        -1.4909   -7.3143   -1.3631 H         1 <0>         0.1195
     49 H15        -2.2990   -9.6067   -0.9970 H         1 <0>         0.1216
     50 H16        -4.3317  -10.0185    0.3153 H         1 <0>         0.1156
     51 H17        -7.8298   -3.3376    0.3700 H         1 <0>         0.4072
     52 H18        -9.6402   -3.6279    0.4430 H         1 <0>         0.1373
     53 H19       -12.0363   -4.1780    0.4345 H         1 <0>         0.1437
     54 H20       -11.1815   -7.9433   -1.3928 H         1 <0>         0.1438
     55 H21        -8.7830   -7.4039   -1.4035 H         1 <0>         0.1462
@<TRIPOS>BOND
     1    1    2 1
     2    1   37 1
     3    1   38 1
     4    1   39 1
     5    2    6 1
     6    2    3 2
     7    3    4 1
     8    3   40 1
     9    4    5 2
    10    4    7 1
    11    5    6 1
    12    7    8 am
    13    7   41 1
    14    8    9 2
    15    8   10 1
    16   10   11 1
    17   10   42 1
    18   10   43 1
    19   11   12 1
    20   12   13 2
    21   12   14 1
    22   14   15 1
    23   14   16 1
    24   14   27 1
    25   16   17 1
    26   16   44 1
    27   16   45 1
    28   17   22 1
    29   17   18 2
    30   18   19 1
    31   18   46 1
    32   19   20 1
    33   19   21 1
    34   21   26 ar
    35   21   22 ar
    36   22   23 ar
    37   23   24 ar
    38   23   47 1
    39   24   25 ar
    40   24   48 1
    41   25   26 ar
    42   25   49 1
    43   26   50 1
    44   27   28 am
    45   27   51 1
    46   28   29 2
    47   28   30 1
    48   30   35 ar
    49   30   31 ar
    50   31   32 ar
    51   31   52 1
    52   32   33 ar
    53   32   53 1
    54   33   34 ar
    55   33   36 1
    56   34   35 ar
    57   34   54 1
    58   35   55 1
@<TRIPOS>MOLECULE
ZINC02652325
   55    58     0     0     0
SMALL
USER_CHARGES

@<TRIPOS>ATOM
      1 C1         -0.0184    1.5028    0.0103 C.3       1 <0>        -0.0901
      2 C2          0.0021   -0.0041    0.0020 C.2       1 <0>         0.0836
      3 C3         -1.0762   -0.8076    0.0026 C.2       1 <0>        -0.2893
      4 C4         -0.6254   -2.1466   -0.0073 C.2       1 <0>         0.3323
      5 N1          0.6829   -2.1299   -0.0135 N.2       1 <0>        -0.3493
      6 O1          1.0997   -0.7765   -0.0131 O.3       1 <0>        -0.0671
      7 N2         -1.4321   -3.2847   -0.0099 N.am      1 <0>        -0.6305
      8 C5         -2.7740   -3.1595   -0.0028 C.2       1 <0>         0.5280
      9 O2         -3.2802   -2.0574    0.0060 O.2       1 <0>        -0.4767
     10 C6         -3.6455   -4.3889   -0.0057 C.3       1 <0>         0.0533
     11 O3         -5.0201   -3.9984    0.0032 O.3       1 <0>        -0.3207
     12 C7         -5.9331   -4.9824    0.0019 C.2       1 <0>         0.4665
     13 O4         -5.5771   -6.1369   -0.0064 O.2       1 <0>        -0.4945
     14 C8         -7.4023   -4.6470    0.0109 C.3       1 <0>         0.1692
     15 H1         -7.6465   -4.0601   -0.8745 H         1 <0>         0.1327
     16 C9         -7.7330   -3.8375    1.2664 C.3       1 <0>        -0.0494
     17 C10        -9.1734   -3.3975    1.2155 C.2       1 <0>        -0.1684
     18 C11        -9.6333   -2.2209    0.7615 C.2       1 <0>         0.0749
     19 N3        -10.9966   -2.1790    0.8716 N.pl3     1 <0>        -0.5912
     20 H2        -11.5542   -1.4305    0.6076 H         1 <0>         0.4146
     21 C12       -11.4590   -3.3576    1.4129 C.ar      1 <0>         0.1044
     22 C13       -10.3378   -4.1751    1.6462 C.ar      1 <0>        -0.0790
     23 C14       -10.5060   -5.4487    2.1923 C.ar      1 <0>        -0.0795
     24 C15       -11.7611   -5.8969    2.4946 C.ar      1 <0>        -0.1405
     25 C16       -12.8706   -5.0960    2.2626 C.ar      1 <0>        -0.1027
     26 C17       -12.7266   -3.8321    1.7329 C.ar      1 <0>        -0.1274
     27 N4         -8.1858   -5.8849    0.0076 N.am      1 <0>        -0.7176
     28 C18        -9.4424   -5.8857   -0.4797 C.2       1 <0>         0.5731
     29 O5         -9.9257   -4.8593   -0.9164 O.2       1 <0>        -0.5060
     30 C19       -10.2325   -7.1339   -0.4831 C.ar      1 <0>        -0.1369
     31 C20        -9.6818   -8.3132    0.0233 C.ar      1 <0>        -0.0589
     32 C21       -10.4233   -9.4750    0.0177 C.ar      1 <0>        -0.1600
     33 C22       -11.7136   -9.4745   -0.4899 C.ar      1 <0>         0.1257
     34 C23       -12.2653   -8.3065   -0.9938 C.ar      1 <0>        -0.1599
     35 C24       -11.5348   -7.1376   -0.9874 C.ar      1 <0>        -0.0226
     36 F1        -12.4358  -10.6163   -0.4938 F         1 <0>        -0.1339
     37 H3          1.0042    1.8801    0.0026 H         1 <0>         0.0869
     38 H4         -0.5455    1.8639   -0.8728 H         1 <0>         0.0985
     39 H5         -0.5286    1.8543    0.9071 H         1 <0>         0.0986
     40 H6         -2.1071   -0.4855    0.0097 H         1 <0>         0.1831
     41 H7         -1.0273   -4.1661   -0.0170 H         1 <0>         0.4256
     42 H8         -3.4407   -4.9774   -0.9000 H         1 <0>         0.1125
     43 H9         -3.4322   -4.9876    0.8799 H         1 <0>         0.1132
     44 H10        -7.5729   -4.4556    2.1499 H         1 <0>         0.0794
     45 H11        -7.0868   -2.9610    1.3143 H         1 <0>         0.0969
     46 H12        -9.0184   -1.4251    0.3680 H         1 <0>         0.1670
     47 H13        -9.6473   -6.0777    2.3750 H         1 <0>         0.1110
     48 H14       -11.8907   -6.8823    2.9171 H         1 <0>         0.1158
     49 H15       -13.8562   -5.4645    2.5060 H         1 <0>         0.1207
     50 H16       -13.5963   -3.2169    1.5549 H         1 <0>         0.1158
     51 H17        -7.8002   -6.7039    0.3560 H         1 <0>         0.4066
     52 H18        -8.6766   -8.3148    0.4182 H         1 <0>         0.1347
     53 H19        -9.9984  -10.3876    0.4090 H         1 <0>         0.1420
     54 H20       -13.2706   -8.3116   -1.3883 H         1 <0>         0.1421
     55 H21       -11.9671   -6.2273   -1.3757 H         1 <0>         0.1433
@<TRIPOS>BOND
     1    1    2 1
     2    1   37 1
     3    1   38 1
     4    1   39 1
     5    2    6 1
     6    2    3 2
     7    3    4 1
     8    3   40 1
     9    4    5 2
    10    4    7 1
    11    5    6 1
    12    7    8 am
    13    7   41 1
    14    8    9 2
    15    8   10 1
    16   10   11 1
    17   10   42 1
    18   10   43 1
    19   11   12 1
    20   12   13 2
    21   12   14 1
    22   14   15 1
    23   14   16 1
    24   14   27 1
    25   16   17 1
    26   16   44 1
    27   16   45 1
    28   17   22 1
    29   17   18 2
    30   18   19 1
    31   18   46 1
    32   19   20 1
    33   19   21 1
    34   21   26 ar
    35   21   22 ar
    36   22   23 ar
    37   23   24 ar
    38   23   47 1
    39   24   25 ar
    40   24   48 1
    41   25   26 ar
    42   25   49 1
    43   26   50 1
    44   27   28 am
    45   27   51 1
    46   28   29 2
    47   28   30 1
    48   30   35 ar
    49   30   31 ar
    50   31   32 ar
    51   31   52 1
    52   32   33 ar
    53   32   53 1
    54   33   34 ar
    55   33   36 1
    56   34   35 ar
    57   34   54 1
    58   35   55 1
@<TRIPOS>MOLECULE
ZINC08693976
   59    61     0     0     0
SMALL
USER_CHARGES

@<TRIPOS>ATOM
      1 C1         -0.0110    1.5260    0.0292 C.3       1 <0>        -0.1463
      2 C2          0.0055   -0.0038    0.0104 C.3       1 <0>        -0.0917
      3 C3          0.7462   -0.5211    1.2452 C.3       1 <0>        -0.1560
      4 C4         -1.4313   -0.5295    0.0202 C.3       1 <0>        -0.1305
      5 C5         -1.4182   -2.0526   -0.1242 C.3       1 <0>         0.1430
      6 H1         -0.7915   -2.4861    0.6553 H         1 <0>         0.1463
      7 C6         -2.8229   -2.5820    0.0084 C.2       1 <0>         0.4623
      8 O1         -3.3249   -3.1978   -0.9019 O.2       1 <0>        -0.4887
      9 O2         -3.5164   -2.3693    1.1378 O.3       1 <0>        -0.3193
     10 C7         -4.8423   -2.8994    1.1945 C.3       1 <0>         0.0499
     11 C8         -5.4606   -2.5645    2.5274 C.2       1 <0>         0.5160
     12 O3         -4.8281   -1.9339    3.3481 O.2       1 <0>        -0.4907
     13 N1         -6.7164   -2.9657    2.8075 N.am      1 <0>        -0.6652
     14 C9         -7.2566   -2.7395    4.0803 C.ar      1 <0>         0.1155
     15 C10        -8.1168   -3.6716    4.6454 C.ar      1 <0>        -0.0940
     16 C11        -8.6487   -3.4488    5.9002 C.ar      1 <0>        -0.1793
     17 C12        -8.3242   -2.2940    6.5966 C.ar      1 <0>         0.1286
     18 C13        -7.4648   -1.3612    6.0325 C.ar      1 <0>        -0.0521
     19 C14        -6.9274   -1.5861    4.7793 C.ar      1 <0>        -0.0728
     20 Cl1        -7.0595    0.0842    6.9043 Cl        1 <0>        -0.0464
     21 O4         -8.8486   -2.0753    7.8322 O.3       1 <0>        -0.3036
     22 C15        -9.7259   -3.0768    8.3511 C.3       1 <0>         0.0243
     23 N2         -0.8822   -2.4139   -1.4389 N.am      1 <0>        -0.5721
     24 C16        -1.4444   -2.0159   -2.5964 C.2       1 <0>         0.5349
     25 O5         -2.3065   -1.1734   -2.7249 O.2       1 <0>        -0.4593
     26 C17        -0.7883   -2.8293   -3.7246 C.3       1 <0>        -0.0997
     27 H2         -0.7060   -2.2862   -4.6660 H         1 <0>         0.1369
     28 C18        -1.6348   -4.1001   -3.8341 C.3       1 <0>        -0.0877
     29 C19        -0.8409   -5.3097   -4.1877 C.2       1 <0>        -0.1525
     30 C20         0.4420   -5.4093   -4.0776 C.2       1 <0>        -0.1502
     31 C21         1.3166   -4.2857   -3.6185 C.3       1 <0>        -0.0749
     32 C22         0.5697   -3.1095   -3.0608 C.3       1 <0>        -0.1213
     33 H3          1.1797   -2.2159   -3.1934 H         1 <0>         0.1201
     34 C23         0.2250   -3.1724   -1.6011 C.2       1 <0>         0.5435
     35 O6          0.8201   -3.7838   -0.7399 O.2       1 <0>        -0.4607
     36 H4          1.0126    1.9004    0.0222 H         1 <0>         0.0593
     37 H5         -0.5387    1.8944   -0.8505 H         1 <0>         0.0564
     38 H6         -0.5187    1.8728    0.9292 H         1 <0>         0.0601
     39 H7          0.5132   -0.3507   -0.8896 H         1 <0>         0.0646
     40 H8          0.7579   -1.6109    1.2319 H         1 <0>         0.0555
     41 H9          1.7698   -0.1466    1.2383 H         1 <0>         0.0604
     42 H10         0.2385   -0.1742    2.1453 H         1 <0>         0.0632
     43 H11        -1.9112   -0.2578    0.9604 H         1 <0>         0.1002
     44 H12        -1.9845   -0.0906   -0.8102 H         1 <0>         0.0933
     45 H13        -5.4424   -2.4634    0.3958 H         1 <0>         0.1072
     46 H14        -4.8063   -3.9819    1.0724 H         1 <0>         0.1063
     47 H15        -7.2462   -3.4111    2.1280 H         1 <0>         0.4160
     48 H16        -8.3701   -4.5708    4.1035 H         1 <0>         0.1375
     49 H17        -9.3180   -4.1738    6.3393 H         1 <0>         0.1439
     50 H18        -6.2552   -0.8627    4.3421 H         1 <0>         0.1574
     51 H19       -10.5818   -3.1903    7.6857 H         1 <0>         0.0583
     52 H20        -9.1931   -4.0250    8.4227 H         1 <0>         0.0582
     53 H21       -10.0722   -2.7790    9.3408 H         1 <0>         0.1048
     54 H22        -2.1298   -4.2738   -2.8786 H         1 <0>         0.0862
     55 H23        -2.3978   -3.9472   -4.5974 H         1 <0>         0.0899
     56 H24        -1.3783   -6.1677   -4.5639 H         1 <0>         0.1121
     57 H25         0.9067   -6.3512   -4.3293 H         1 <0>         0.1173
     58 H26         1.9983   -4.6639   -2.8567 H         1 <0>         0.0928
     59 H27         1.9058   -3.9345   -4.4656 H         1 <0>         0.0927
@<TRIPOS>BOND
     1    1    2 1
     2    1   36 1
     3    1   37 1
     4    1   38 1
     5    2    3 1
     6    2    4 1
     7    2   39 1
     8    3   40 1
     9    3   41 1
    10    3   42 1
    11    4    5 1
    12    4   43 1
    13    4   44 1
    14    5    6 1
    15    5    7 1
    16    5   23 1
    17    7    8 2
    18    7    9 1
    19    9   10 1
    20   10   11 1
    21   10   45 1
    22   10   46 1
    23   11   12 2
    24   11   13 am
    25   13   14 1
    26   13   47 1
    27   14   19 ar
    28   14   15 ar
    29   15   16 ar
    30   15   48 1
    31   16   17 ar
    32   16   49 1
    33   17   18 ar
    34   17   21 1
    35   18   19 ar
    36   18   20 1
    37   19   50 1
    38   21   22 1
    39   22   51 1
    40   22   52 1
    41   22   53 1
    42   23   34 am
    43   23   24 am
    44   24   25 2
    45   24   26 1
    46   26   27 1
    47   26   32 1
    48   26   28 1
    49   28   29 1
    50   28   54 1
    51   28   55 1
    52   29   30 2
    53   29   56 1
    54   30   31 1
    55   30   57 1
    56   31   32 1
    57   31   58 1
    58   31   59 1
    59   32   33 1
    60   32   34 1
    61   34   35 2
@<TRIPOS>MOLECULE
ZINC08693977
   59    61     0     0     0
SMALL
USER_CHARGES

@<TRIPOS>ATOM
      1 C1          0.8874   -0.4523   -1.0040 C.3       1 <0>        -0.1545
      2 C2          0.0540   -0.0915    0.2273 C.3       1 <0>        -0.0923
      3 C3          0.0611    1.4261    0.4212 C.3       1 <0>        -0.1471
      4 C4         -1.3844   -0.5736    0.0287 C.3       1 <0>        -0.1281
      5 C5         -1.4081   -2.1027   -0.0170 C.3       1 <0>         0.1455
      6 H1         -0.7310   -2.4535   -0.7958 H         1 <0>         0.1464
      7 C6         -2.8074   -2.5746   -0.3179 C.2       1 <0>         0.4585
      8 O1         -3.3880   -3.2842    0.4691 O.2       1 <0>        -0.4831
      9 O2         -3.4086   -2.2068   -1.4602 O.3       1 <0>        -0.3214
     10 C7         -4.7350   -2.6908   -1.6802 C.3       1 <0>         0.0499
     11 C8         -5.2436   -2.1787   -3.0032 C.2       1 <0>         0.5156
     12 O3         -4.5395   -1.4690   -3.6900 O.2       1 <0>        -0.4898
     13 N1         -6.4809   -2.5093   -3.4231 N.am      1 <0>        -0.6664
     14 C9         -6.9137   -2.1247   -4.6989 C.ar      1 <0>         0.1190
     15 C10        -8.2435   -1.7836   -4.9077 C.ar      1 <0>        -0.0944
     16 C11        -8.6699   -1.4041   -6.1651 C.ar      1 <0>        -0.1781
     17 C12        -7.7704   -1.3634   -7.2201 C.ar      1 <0>         0.1281
     18 C13        -6.4410   -1.7046   -7.0128 C.ar      1 <0>        -0.0505
     19 C14        -6.0121   -2.0790   -5.7535 C.ar      1 <0>        -0.0725
     20 Cl1        -5.3157   -1.6540   -8.3337 Cl        1 <0>        -0.0462
     21 O4         -8.1912   -0.9895   -8.4581 O.3       1 <0>        -0.3036
     22 C15        -9.5726   -0.6523   -8.5994 C.3       1 <0>         0.0243
     23 N2         -0.9807   -2.6366    1.2786 N.am      1 <0>        -0.5778
     24 C16        -1.5679   -2.2956    2.4551 C.2       1 <0>         0.5475
     25 O5         -2.6151   -1.7024    2.6006 O.2       1 <0>        -0.4507
     26 C17        -0.6619   -2.7996    3.5371 C.3       1 <0>        -0.1288
     27 H2          0.1118   -2.0640    3.7570 H         1 <0>         0.1281
     28 C18        -1.2882   -3.3035    4.8203 C.3       1 <0>        -0.0687
     29 C19        -0.2107   -4.0602    5.5684 C.2       1 <0>        -0.1534
     30 C20         0.8806   -4.5093    5.0260 C.2       1 <0>        -0.1538
     31 C21         1.2275   -4.3665    3.5589 C.3       1 <0>        -0.0691
     32 C22        -0.0464   -4.0419    2.8219 C.3       1 <0>        -0.1300
     33 H3         -0.7263   -4.8919    2.8811 H         1 <0>         0.1290
     34 C23         0.0373   -3.5250    1.4188 C.2       1 <0>         0.5481
     35 O6          0.8523   -3.8365    0.5772 O.2       1 <0>        -0.4592
     36 H4          1.9122   -0.1089   -0.8625 H         1 <0>         0.0599
     37 H5          0.8823   -1.5335   -1.1422 H         1 <0>         0.0577
     38 H6          0.4614    0.0285   -1.8847 H         1 <0>         0.0620
     39 H7          0.4800   -0.5723    1.1079 H         1 <0>         0.0661
     40 H8         -0.6031    1.6904    1.2441 H         1 <0>         0.0555
     41 H9          1.0736    1.7584    0.6504 H         1 <0>         0.0594
     42 H10        -0.2821    1.9108   -0.4928 H         1 <0>         0.0602
     43 H11        -2.0020   -0.2252    0.8565 H         1 <0>         0.0856
     44 H12        -1.7747   -0.1760   -0.9082 H         1 <0>         0.1019
     45 H13        -4.7268   -3.7808   -1.6914 H         1 <0>         0.1063
     46 H14        -5.3870   -2.3406   -0.8801 H         1 <0>         0.1063
     47 H15        -7.0717   -3.0136   -2.8421 H         1 <0>         0.4160
     48 H16        -8.9444   -1.8155   -4.0866 H         1 <0>         0.1377
     49 H17        -9.7043   -1.1392   -6.3272 H         1 <0>         0.1440
     50 H18        -4.9768   -2.3402   -5.5909 H         1 <0>         0.1513
     51 H19       -10.1859   -1.5118   -8.3288 H         1 <0>         0.0583
     52 H20        -9.8111    0.1851   -7.9437 H         1 <0>         0.0583
     53 H21        -9.7745   -0.3731   -9.6335 H         1 <0>         0.1048
     54 H22        -1.6369   -2.4625    5.4196 H         1 <0>         0.0917
     55 H23        -2.1203   -3.9695    4.5919 H         1 <0>         0.0874
     56 H24        -0.3594   -4.2379    6.6233 H         1 <0>         0.1151
     57 H25         1.5880   -5.0182    5.6639 H         1 <0>         0.1156
     58 H26         1.9389   -3.5521    3.4221 H         1 <0>         0.0860
     59 H27         1.6506   -5.2985    3.1840 H         1 <0>         0.0921
@<TRIPOS>BOND
     1    1    2 1
     2    1   36 1
     3    1   37 1
     4    1   38 1
     5    2    3 1
     6    2    4 1
     7    2   39 1
     8    3   40 1
     9    3   41 1
    10    3   42 1
    11    4    5 1
    12    4   43 1
    13    4   44 1
    14    5    6 1
    15    5    7 1
    16    5   23 1
    17    7    8 2
    18    7    9 1
    19    9   10 1
    20   10   11 1
    21   10   45 1
    22   10   46 1
    23   11   12 2
    24   11   13 am
    25   13   14 1
    26   13   47 1
    27   14   19 ar
    28   14   15 ar
    29   15   16 ar
    30   15   48 1
    31   16   17 ar
    32   16   49 1
    33   17   18 ar
    34   17   21 1
    35   18   19 ar
    36   18   20 1
    37   19   50 1
    38   21   22 1
    39   22   51 1
    40   22   52 1
    41   22   53 1
    42   23   34 am
    43   23   24 am
    44   24   25 2
    45   24   26 1
    46   26   27 1
    47   26   32 1
    48   26   28 1
    49   28   29 1
    50   28   54 1
    51   28   55 1
    52   29   30 2
    53   29   56 1
    54   30   31 1
    55   30   57 1
    56   31   32 1
    57   31   58 1
    58   31   59 1
    59   32   33 1
    60   32   34 1
    61   34   35 2
@<TRIPOS>MOLECULE
ZINC00943080
   39    41     0     0     0
SMALL
USER_CHARGES

@<TRIPOS>ATOM
      1 C1         -0.0166    1.3743    0.0096 C.ar      1 <0>        -0.0977
      2 C2          1.1700    2.0939    0.0021 C.ar      1 <0>        -0.1266
      3 C3          2.3749    1.4505   -0.0133 C.ar      1 <0>        -0.0622
      4 C4          2.4184    0.0538   -0.0212 C.ar      1 <0>         0.0462
      5 C5          1.2173   -0.6752   -0.0132 C.ar      1 <0>         0.0484
      6 C6          0.0021   -0.0041    0.0020 C.ar      1 <0>        -0.1134
      7 N1          1.5799   -2.0072   -0.0240 N.pl3     1 <0>        -0.5966
      8 H1          0.9771   -2.7672   -0.0224 H         1 <0>         0.4230
      9 C7          2.9393   -2.0564   -0.0378 C.2       1 <0>         0.2829
     10 N2          3.4303   -0.8515   -0.0362 N.2       1 <0>        -0.4808
     11 C8          3.7573   -3.3220   -0.0522 C.3       1 <0>        -0.0509
     12 C9          4.7172   -3.2952   -1.2434 C.3       1 <0>         0.1300
     13 N3          5.5124   -4.5255   -1.2574 N.am      1 <0>        -0.7298
     14 C10         6.4309   -4.7232   -2.2237 C.2       1 <0>         0.5158
     15 O1          6.5991   -3.8826   -3.0816 O.2       1 <0>        -0.5015
     16 C11         7.2489   -5.9888   -2.2382 C.3       1 <0>         0.0394
     17 O2          8.1455   -5.9638   -3.3507 O.3       1 <0>        -0.2757
     18 C12         8.9612   -7.0393   -3.5101 C.ar      1 <0>         0.1537
     19 C13         8.8960   -8.0992   -2.6176 C.ar      1 <0>        -0.2065
     20 C14         9.7261   -9.1911   -2.7816 C.ar      1 <0>        -0.0637
     21 C15        10.6218   -9.2286   -3.8344 C.ar      1 <0>        -0.1507
     22 C16        10.6893   -8.1740   -4.7256 C.ar      1 <0>        -0.0516
     23 C17         9.8569   -7.0814   -4.5694 C.ar      1 <0>        -0.1240
     24 Br1         9.9436   -5.6427   -5.7935 Br        1 <0>        -0.0291
     25 H2         -0.9611    1.8978    0.0260 H         1 <0>         0.1320
     26 H3          1.1406    3.1734    0.0082 H         1 <0>         0.1315
     27 H4          3.2924    2.0203   -0.0197 H         1 <0>         0.1310
     28 H5         -0.9243   -0.5593    0.0083 H         1 <0>         0.1239
     29 H6          4.3285   -3.3960    0.8731 H         1 <0>         0.1066
     30 H7          3.0939   -4.1824   -0.1395 H         1 <0>         0.0920
     31 H8          4.1460   -3.2212   -2.1687 H         1 <0>         0.0736
     32 H9          5.3806   -2.4348   -1.1561 H         1 <0>         0.0890
     33 H10         5.3779   -5.1979   -0.5713 H         1 <0>         0.4024
     34 H11         7.8201   -6.0629   -1.3128 H         1 <0>         0.0974
     35 H12         6.5855   -6.8493   -2.3255 H         1 <0>         0.0965
     36 H13         8.1969   -8.0705   -1.7948 H         1 <0>         0.1361
     37 H14         9.6757  -10.0162   -2.0866 H         1 <0>         0.1335
     38 H15        11.2701  -10.0832   -3.9604 H         1 <0>         0.1349
     39 H16        11.3900   -8.2055   -5.5469 H         1 <0>         0.1407
@<TRIPOS>BOND
     1    1    6 ar
     2    1    2 ar
     3    1   25 1
     4    2    3 ar
     5    2   26 1
     6    3    4 ar
     7    3   27 1
     8    4   10 1
     9    4    5 ar
    10    5    6 ar
    11    5    7 1
    12    6   28 1
    13    7    8 1
    14    7    9 1
    15    9   10 2
    16    9   11 1
    17   11   12 1
    18   11   29 1
    19   11   30 1
    20   12   13 1
    21   12   31 1
    22   12   32 1
    23   13   14 am
    24   13   33 1
    25   14   15 2
    26   14   16 1
    27   16   17 1
    28   16   34 1
    29   16   35 1
    30   17   18 1
    31   18   23 ar
    32   18   19 ar
    33   19   20 ar
    34   19   36 1
    35   20   21 ar
    36   20   37 1
    37   21   22 ar
    38   21   38 1
    39   22   23 ar
    40   22   39 1
    41   23   24 1
@<TRIPOS>MOLECULE
ZINC13553652
   26    27     0     0     0
SMALL
USER_CHARGES

@<TRIPOS>ATOM
      1 C1         -0.0184    1.5028    0.0103 C.3       1 <0>        -0.1183
      2 C2          0.0021   -0.0041    0.0020 C.ar      1 <0>        -0.0854
      3 C3          0.0058   -0.6862   -1.1982 C.ar      1 <0>        -0.0525
      4 C4          0.0245   -2.0712   -1.2222 C.ar      1 <0>        -0.0555
      5 C5          0.0401   -2.7837   -0.0382 C.ar      1 <0>        -0.0276
      6 C6          0.0370   -2.1047    1.1748 C.ar      1 <0>        -0.0922
      7 C7          0.0230   -0.7040    1.2030 C.ar      1 <0>         0.1706
      8 N1          0.0288   -0.2712    2.5249 N.am      1 <0>        -0.6394
      9 C8          0.0509   -1.3070    3.3808 C.2       1 <0>         0.5424
     10 O1          0.0604   -1.2322    4.5955 O.2       1 <0>        -0.4792
     11 C9          0.0502   -2.5513    2.5873 C.2       1 <0>         0.1089
     12 N2          0.0692   -3.7841    3.0350 N.2       1 <0>        -0.1741
     13 N3          0.0795   -4.0282    4.4146 N.pl3     1 <0>        -0.5275
     14 C10         0.0990   -5.2949    4.8746 C.2       1 <0>         0.5920
     15 S1          0.1116   -5.5932    6.5604 S.2       1 <0>        -0.5775
     16 N4          0.1087   -6.3267    4.0076 N.pl3     1 <0>        -0.7806
     17 Cl1         0.0277   -2.9124   -2.7408 Cl        1 <0>        -0.0483
     18 H1          1.0042    1.8801    0.0026 H         1 <0>         0.0814
     19 H2         -0.5455    1.8639   -0.8728 H         1 <0>         0.0819
     20 H3         -0.5286    1.8543    0.9071 H         1 <0>         0.0681
     21 H4         -0.0064   -0.1351   -2.1269 H         1 <0>         0.1511
     22 H5          0.0544   -3.8634   -0.0551 H         1 <0>         0.1493
     23 H6          0.0185    0.6605    2.7948 H         1 <0>         0.4292
     24 H7          0.0726   -3.2856    5.0386 H         1 <0>         0.4385
     25 H8          0.1015   -6.1576    3.0525 H         1 <0>         0.4088
     26 H9          0.1227   -7.2383    4.3387 H         1 <0>         0.4359
@<TRIPOS>BOND
     1    1    2 1
     2    1   18 1
     3    1   19 1
     4    1   20 1
     5    2    7 ar
     6    2    3 ar
     7    3    4 ar
     8    3   21 1
     9    4    5 ar
    10    4   17 1
    11    5    6 ar
    12    5   22 1
    13    6   11 1
    14    6    7 ar
    15    7    8 1
    16    8    9 am
    17    8   23 1
    18    9   10 2
    19    9   11 1
    20   11   12 2
    21   12   13 1
    22   13   14 1
    23   13   24 1
    24   14   15 2
    25   14   16 1
    26   16   25 1
    27   16   26 1
@<TRIPOS>MOLECULE
ZINC13553652
   27    28     0     0     0
SMALL
USER_CHARGES

@<TRIPOS>ATOM
      1 C1         -0.0184    1.5028    0.0103 C.3       1 <0>        -0.1350
      2 C2          0.0021   -0.0041    0.0020 C.ar      1 <0>        -0.0128
      3 C3          0.0058   -0.6871   -1.1965 C.ar      1 <0>        -0.0766
      4 C4          0.0250   -2.0737   -1.2188 C.ar      1 <0>         0.0022
      5 C5          0.0406   -2.7869   -0.0370 C.ar      1 <0>        -0.0579
      6 C6          0.0371   -2.1081    1.1776 C.ar      1 <0>        -0.0227
      7 C7          0.0230   -0.7052    1.2017 C.ar      1 <0>         0.0634
      8 N1          0.0292   -0.3002    2.5267 N.pl3     1 <0>        -0.4790
      9 H1          0.0187    0.6238    2.8216 H         1 <0>         0.4522
     10 C8          0.0516   -1.3740    3.3539 C.2       1 <0>         0.4611
     11 C9          0.0499   -2.5424    2.5892 C.2       1 <0>        -0.0112
     12 N2          0.0693   -3.8012    3.0435 N.2       1 <0>        -0.0283
     13 N3          0.0786   -4.0287    4.3132 N.pl3     1 <0>        -0.4039
     14 C10         0.0981   -5.2962    4.7706 C.2       1 <0>         0.4792
     15 N4          0.1080   -6.3456    3.8852 N.pl3     1 <0>        -0.7677
     16 S1          0.1102   -5.5889    6.4046 S.3       1 <0>        -0.3459
     17 O1          0.0630   -1.3221    4.7029 O.3       1 <0>        -0.4447
     18 Cl1         0.0288   -2.9148   -2.7374 Cl        1 <0>        -0.0127
     19 H2          1.0042    1.8801    0.0026 H         1 <0>         0.0966
     20 H3         -0.5455    1.8639   -0.8728 H         1 <0>         0.0977
     21 H4         -0.5286    1.8543    0.9071 H         1 <0>         0.0724
     22 H5         -0.0067   -0.1372   -2.1259 H         1 <0>         0.1671
     23 H6          0.0552   -3.8667   -0.0551 H         1 <0>         0.1624
     24 H7         -0.8170   -1.3197    5.1038 H         1 <0>         0.4512
     25 H8          0.1009   -6.1746    2.9304 H         1 <0>         0.4133
     26 H9          0.0717   -3.2874    4.9388 H         1 <0>         0.4320
     27 H10         0.1220   -7.2579    4.2144 H         1 <0>         0.4478
@<TRIPOS>BOND
     1    1    2 1
     2    1   19 1
     3    1   20 1
     4    1   21 1
     5    2    7 ar
     6    2    3 ar
     7    3    4 ar
     8    3   22 1
     9    4    5 ar
    10    4   18 1
    11    5    6 ar
    12    5   23 1
    13    6   11 1
    14    6    7 ar
    15    7    8 1
    16    8    9 1
    17    8   10 1
    18   10   11 2
    19   10   17 1
    20   11   12 1
    21   12   13 2
    22   13   14 1
    23   13   26 1
    24   14   15 2
    25   14   16 1
    26   15   25 1
    27   15   27 1
    28   17   24 1
@<TRIPOS>MOLECULE
ZINC13553652
   26    27     0     0     0
SMALL
USER_CHARGES

@<TRIPOS>ATOM
      1 C1         -0.0184    1.5028    0.0103 C.3       1 <0>        -0.1246
      2 C2          0.0021   -0.0041    0.0020 C.ar      1 <0>        -0.0417
      3 C3          0.0057   -0.6871   -1.1963 C.ar      1 <0>        -0.0839
      4 C4          0.0240   -2.0738   -1.2186 C.ar      1 <0>        -0.0137
      5 C5          0.0392   -2.7872   -0.0372 C.ar      1 <0>        -0.0619
      6 C6          0.0362   -2.1084    1.1778 C.ar      1 <0>        -0.0084
      7 C7          0.0230   -0.7053    1.2017 C.ar      1 <0>         0.0818
      8 N1          0.0300   -0.3013    2.5266 N.pl3     1 <0>        -0.5226
      9 H1          0.0197    0.6224    2.8225 H         1 <0>         0.4403
     10 C8          0.0524   -1.3772    3.3529 C.2       1 <0>         0.4242
     11 C9          0.0484   -2.5425    2.5890 C.2       1 <0>        -0.0925
     12 N2          0.0672   -3.8042    3.0437 N.2       1 <0>         0.0349
     13 N3          0.0760   -4.0320    4.3134 N.pl3     1 <0>        -0.2980
     14 C10         0.0950   -5.3118    4.7747 C.2       1 <0>         0.4643
     15 N4          0.1044   -6.3111    3.9308 N.2       1 <0>        -0.6828
     16 S1          0.1071   -5.6231    6.5090 S.3       1 <0>        -0.8191
     17 O1          0.0645   -1.3268    4.7026 O.3       1 <0>        -0.4517
     18 Cl1         0.0271   -2.9148   -2.7373 Cl        1 <0>        -0.0350
     19 H2          1.0042    1.8801    0.0026 H         1 <0>         0.0868
     20 H3         -0.5455    1.8639   -0.8728 H         1 <0>         0.0883
     21 H4         -0.5286    1.8543    0.9071 H         1 <0>         0.0673
     22 H5         -0.0061   -0.1371   -2.1257 H         1 <0>         0.1560
     23 H6          0.0531   -3.8670   -0.0554 H         1 <0>         0.1594
     24 H7         -0.8153   -1.3245    5.1040 H         1 <0>         0.4403
     25 H8          0.0690   -3.2910    4.9392 H         1 <0>         0.4165
     26 H9          0.1180   -7.2236    4.2597 H         1 <0>         0.3757
@<TRIPOS>BOND
     1    1    2 1
     2    1   19 1
     3    1   20 1
     4    1   21 1
     5    2    7 ar
     6    2    3 ar
     7    3    4 ar
     8    3   22 1
     9    4    5 ar
    10    4   18 1
    11    5    6 ar
    12    5   23 1
    13    6   11 1
    14    6    7 ar
    15    7    8 1
    16    8    9 1
    17    8   10 1
    18   10   11 2
    19   10   17 1
    20   11   12 1
    21   12   13 2
    22   13   14 1
    23   13   25 1
    24   14   15 2
    25   14   16 1
    26   15   26 1
    27   17   24 1
@<TRIPOS>MOLECULE
ZINC13553652
   26    27     0     0     0
SMALL
USER_CHARGES

@<TRIPOS>ATOM
      1 C1         -0.0184    1.5028    0.0103 C.3       1 <0>        -0.1186
      2 C2          0.0021   -0.0041    0.0020 C.ar      1 <0>        -0.0590
      3 C3          0.0058   -0.6871   -1.1965 C.ar      1 <0>        -0.0901
      4 C4          0.0250   -2.0737   -1.2188 C.ar      1 <0>        -0.0287
      5 C5          0.0406   -2.7869   -0.0370 C.ar      1 <0>        -0.0607
      6 C6          0.0371   -2.1081    1.1776 C.ar      1 <0>        -0.0193
      7 C7          0.0230   -0.7052    1.2017 C.ar      1 <0>         0.0915
      8 N1          0.0292   -0.3002    2.5267 N.pl3     1 <0>        -0.5589
      9 H1          0.0187    0.6238    2.8216 H         1 <0>         0.4274
     10 C8          0.0516   -1.3740    3.3539 C.2       1 <0>         0.4014
     11 C9          0.0499   -2.5424    2.5892 C.2       1 <0>        -0.0521
     12 N2          0.0693   -3.8012    3.0435 N.2       1 <0>        -0.0326
     13 N3          0.0786   -4.0287    4.3132 N.2       1 <0>        -0.3602
     14 C10         0.0981   -5.2962    4.7706 C.cat     1 <0>         0.4875
     15 N4          0.1081   -5.5383    6.1222 N.pl3     1 <0>        -0.7771
     16 S1          0.1100   -6.5648    3.7001 S.3       1 <0>        -0.5341
     17 O1          0.0630   -1.3221    4.7029 O.3       1 <0>        -0.4397
     18 Cl1         0.0288   -2.9148   -2.7374 Cl        1 <0>        -0.0511
     19 H2          1.0042    1.8801    0.0026 H         1 <0>         0.0803
     20 H3         -0.5455    1.8639   -0.8728 H         1 <0>         0.0820
     21 H4         -0.5286    1.8543    0.9071 H         1 <0>         0.0637
     22 H5         -0.0067   -0.1372   -2.1259 H         1 <0>         0.1474
     23 H6          0.0552   -3.8667   -0.0551 H         1 <0>         0.1527
     24 H7         -0.8170   -1.3197    5.1038 H         1 <0>         0.4194
     25 H8          0.1011   -4.7970    6.7477 H         1 <0>         0.4007
     26 H9          0.1221   -6.4506    6.4514 H         1 <0>         0.4280
@<TRIPOS>BOND
     1    1    2 1
     2    1   19 1
     3    1   20 1
     4    1   21 1
     5    2    7 ar
     6    2    3 ar
     7    3    4 ar
     8    3   22 1
     9    4    5 ar
    10    4   18 1
    11    5    6 ar
    12    5   23 1
    13    6   11 1
    14    6    7 ar
    15    7    8 1
    16    8    9 1
    17    8   10 1
    18   10   11 2
    19   10   17 1
    20   11   12 1
    21   12   13 2
    22   13   14 1
    23   14   15 2
    24   14   16 1
    25   15   25 1
    26   15   26 1
    27   17   24 1
@<TRIPOS>MOLECULE
ZINC13553652
   26    27     0     0     0
SMALL
USER_CHARGES

@<TRIPOS>ATOM
      1 C1         -0.0184    1.5028    0.0103 C.3       1 <0>        -0.1252
      2 C2          0.0021   -0.0041    0.0020 C.ar      1 <0>        -0.0403
      3 C3          0.0057   -0.6871   -1.1963 C.ar      1 <0>        -0.0835
      4 C4          0.0240   -2.0738   -1.2186 C.ar      1 <0>        -0.0130
      5 C5          0.0392   -2.7872   -0.0372 C.ar      1 <0>        -0.0644
      6 C6          0.0362   -2.1084    1.1778 C.ar      1 <0>        -0.0118
      7 C7          0.0230   -0.7053    1.2017 C.ar      1 <0>         0.0828
      8 N1          0.0300   -0.3013    2.5266 N.pl3     1 <0>        -0.5225
      9 H1          0.0197    0.6224    2.8225 H         1 <0>         0.4409
     10 C8          0.0524   -1.3772    3.3529 C.2       1 <0>         0.4256
     11 C9          0.0484   -2.5425    2.5890 C.2       1 <0>        -0.0840
     12 N2          0.0672   -3.8042    3.0437 N.2       1 <0>        -0.0119
     13 N3          0.0760   -4.0320    4.3134 N.pl3     1 <0>        -0.3274
     14 C10         0.0950   -5.3118    4.7747 C.2       1 <0>         0.4502
     15 N4          0.1044   -6.3111    3.9308 N.2       1 <0>        -0.6542
     16 S1          0.1071   -5.6231    6.5090 S.3       1 <0>        -0.7057
     17 O1          0.0645   -1.3268    4.7026 O.3       1 <0>        -0.4502
     18 Cl1         0.0271   -2.9148   -2.7373 Cl        1 <0>        -0.0339
     19 H2          1.0042    1.8801    0.0026 H         1 <0>         0.0874
     20 H3         -0.5455    1.8639   -0.8728 H         1 <0>         0.0889
     21 H4         -0.5286    1.8543    0.9071 H         1 <0>         0.0677
     22 H5         -0.0061   -0.1371   -2.1257 H         1 <0>         0.1567
     23 H6          0.0531   -3.8670   -0.0554 H         1 <0>         0.1571
     24 H7         -0.8153   -1.3245    5.1040 H         1 <0>         0.4404
     25 H8          0.0690   -3.2910    4.9392 H         1 <0>         0.4031
     26 H9          0.0978   -6.1398    2.9761 H         1 <0>         0.3273
@<TRIPOS>BOND
     1    1    2 1
     2    1   19 1
     3    1   20 1
     4    1   21 1
     5    2    7 ar
     6    2    3 ar
     7    3    4 ar
     8    3   22 1
     9    4    5 ar
    10    4   18 1
    11    5    6 ar
    12    5   23 1
    13    6   11 1
    14    6    7 ar
    15    7    8 1
    16    8    9 1
    17    8   10 1
    18   10   11 2
    19   10   17 1
    20   11   12 1
    21   12   13 2
    22   13   14 1
    23   13   25 1
    24   14   15 2
    25   14   16 1
    26   15   26 1
    27   17   24 1
@<TRIPOS>MOLECULE
ZINC06094108
   24    25     0     0     0
SMALL
USER_CHARGES

@<TRIPOS>ATOM
      1 C1         -0.0167    1.3821    0.0096 C.ar      1 <0>        -0.0445
      2 C2          1.1609    2.1006    0.0023 C.ar      1 <0>        -0.0616
      3 C3          2.3808    1.4351   -0.0129 C.ar      1 <0>         0.0835
      4 C4          2.3979    0.0320   -0.0206 C.ar      1 <0>        -0.0398
      5 C5          1.2038   -0.6821   -0.0130 C.ar      1 <0>        -0.0226
      6 C6          0.0021   -0.0041    0.0020 C.ar      1 <0>        -0.0789
      7 I1         -1.7998   -1.0728    0.0141 I         1 <0>         0.0207
      8 C7          3.8216   -0.3606   -0.0367 C.2       1 <0>        -0.0086
      9 C8          4.5516    0.8297   -0.0376 C.2       1 <0>         0.4685
     10 N1          3.6930    1.8788   -0.0235 N.pl3     1 <0>        -0.4841
     11 H1          3.9606    2.8112   -0.0215 H         1 <0>         0.4544
     12 O1          5.8984    0.9212   -0.0500 O.3       1 <0>        -0.4442
     13 N2          4.3128   -1.6056   -0.0478 N.2       1 <0>        -0.0307
     14 N3          5.5886   -1.7956   -0.0615 N.pl3     1 <0>        -0.4043
     15 C9          6.0832   -3.0493   -0.0726 C.2       1 <0>         0.5066
     16 S1          7.7764   -3.3014   -0.0907 S.2       1 <0>        -0.4016
     17 N4          5.2448   -4.1045   -0.0695 N.pl3     1 <0>        -0.7487
     18 H2         -0.9620    1.9043    0.0260 H         1 <0>         0.1631
     19 H3          1.1347    3.1803    0.0079 H         1 <0>         0.1624
     20 H4          1.2174   -1.7620   -0.0192 H         1 <0>         0.1577
     21 H5          6.2824    0.9524   -0.9369 H         1 <0>         0.4529
     22 H6          4.2854   -3.9617   -0.0593 H         1 <0>         0.4158
     23 H7          5.6007   -5.0068   -0.0776 H         1 <0>         0.4509
     24 H8          6.1921   -1.0362   -0.0637 H         1 <0>         0.4333
@<TRIPOS>BOND
     1    1    6 ar
     2    1    2 ar
     3    1   18 1
     4    2    3 ar
     5    2   19 1
     6    3   10 1
     7    3    4 ar
     8    4    5 ar
     9    4    8 1
    10    5    6 ar
    11    5   20 1
    12    6    7 1
    13    8    9 2
    14    8   13 1
    15    9   10 1
    16    9   12 1
    17   10   11 1
    18   12   21 1
    19   13   14 2
    20   14   15 1
    21   14   24 1
    22   15   16 2
    23   15   17 1
    24   17   22 1
    25   17   23 1
@<TRIPOS>MOLECULE
ZINC06094108
   22    23     0     0     0
SMALL
USER_CHARGES

@<TRIPOS>ATOM
      1 C1         -0.0167    1.3821    0.0096 C.ar      1 <0>        -0.0321
      2 C2          1.1574    2.1036    0.0023 C.ar      1 <0>        -0.1578
      3 C3          2.3875    1.4381   -0.0135 C.ar      1 <0>         0.2259
      4 C4          2.3965    0.0281   -0.0212 C.ar      1 <0>        -0.1855
      5 C5          1.2059   -0.6831   -0.0132 C.ar      1 <0>         0.0086
      6 C6          0.0021   -0.0041    0.0020 C.ar      1 <0>        -0.1770
      7 I1         -1.7997   -1.0729    0.0135 I         1 <0>        -0.0722
      8 C7          3.8256   -0.3588   -0.0379 C.2       1 <0>         0.1011
      9 N1          4.3336   -1.5700   -0.0503 N.2       1 <0>        -0.2471
     10 N2          5.6132   -1.7326   -0.0642 N.pl3     1 <0>        -0.4701
     11 C8          6.1345   -2.9754   -0.0769 C.2       1 <0>         0.5895
     12 S1          7.8327   -3.1913   -0.0954 S.2       1 <0>        -0.6224
     13 N3          5.3188   -4.0483   -0.0751 N.pl3     1 <0>        -0.7859
     14 C9          4.5484    0.9272   -0.0385 C.2       1 <0>         0.4368
     15 O1          5.8944    1.0807   -0.0519 O.3       1 <0>        -0.6351
     16 N4          3.6676    1.8936   -0.0242 N.2       1 <0>        -0.6214
     17 H1         -0.9628    1.9028    0.0260 H         1 <0>         0.1231
     18 H2          1.1277    3.1831    0.0084 H         1 <0>         0.1289
     19 H3          1.2193   -1.7630   -0.0191 H         1 <0>         0.1179
     20 H4          6.2003   -0.9604   -0.0656 H         1 <0>         0.4366
     21 H5          4.3566   -3.9260   -0.0646 H         1 <0>         0.4091
     22 H6          5.6939   -4.9428   -0.0842 H         1 <0>         0.4292
@<TRIPOS>BOND
     1    1    6 ar
     2    1    2 ar
     3    1   17 1
     4    2    3 ar
     5    2   18 1
     6    3   16 1
     7    3    4 ar
     8    4    5 ar
     9    4    8 1
    10    5    6 ar
    11    5   19 1
    12    6    7 1
    13    8    9 2
    14    8   14 1
    15    9   10 1
    16   10   11 1
    17   10   20 1
    18   11   12 2
    19   11   13 1
    20   13   21 1
    21   13   22 1
    22   14   15 1
    23   14   16 2
@<TRIPOS>MOLECULE
ZINC06094108
   22    23     0     0     0
SMALL
USER_CHARGES

@<TRIPOS>ATOM
      1 C1          0.0485    1.3985    0.6352 C.ar      1 <0>        -0.0269
      2 C2          1.1943    2.1128    0.3595 C.ar      1 <0>        -0.1592
      3 C3          2.4048    1.4424    0.1557 C.ar      1 <0>         0.2408
      4 C4          2.4237    0.0350    0.2388 C.ar      1 <0>        -0.2591
      5 C5          1.2618   -0.6690    0.5176 C.ar      1 <0>        -0.0043
      6 C6          0.0769    0.0148    0.7150 C.ar      1 <0>        -0.1756
      7 I1         -1.6817   -1.0432    1.1359 I         1 <0>        -0.0649
      8 C7          3.8272   -0.3584   -0.0217 C.2       1 <0>         0.1169
      9 N1          4.3336   -1.5700   -0.0503 N.2       1 <0>        -0.2378
     10 N2          3.5578   -2.5958    0.0488 N.pl3     1 <0>        -0.4867
     11 C8          4.0847   -3.8331    0.1376 C.2       1 <0>         0.5909
     12 S1          3.0551   -5.1946    0.2691 S.2       1 <0>        -0.6285
     13 N3          5.4222   -3.9986    0.1229 N.pl3     1 <0>        -0.7784
     14 C9          4.5265    0.9216   -0.2427 C.2       1 <0>         0.4931
     15 O1          5.8445    1.0680   -0.5196 O.3       1 <0>        -0.6126
     16 N4          3.6562    1.8906   -0.1259 N.2       1 <0>        -0.6249
     17 H1         -0.8817    1.9232    0.7955 H         1 <0>         0.1250
     18 H2          1.1575    3.1906    0.3004 H         1 <0>         0.1303
     19 H3          1.2826   -1.7470    0.5800 H         1 <0>         0.1067
     20 H4          2.5952   -2.4767    0.0594 H         1 <0>         0.4097
     21 H5          6.0056   -3.2273    0.0484 H         1 <0>         0.4148
     22 H6          5.8014   -4.8891    0.1868 H         1 <0>         0.4305
@<TRIPOS>BOND
     1    1    6 ar
     2    1    2 ar
     3    1   17 1
     4    2    3 ar
     5    2   18 1
     6    3   16 1
     7    3    4 ar
     8    4    5 ar
     9    4    8 1
    10    5    6 ar
    11    5   19 1
    12    6    7 1
    13    8    9 2
    14    8   14 1
    15    9   10 1
    16   10   11 1
    17   10   20 1
    18   11   12 2
    19   11   13 1
    20   13   21 1
    21   13   22 1
    22   14   15 1
    23   14   16 2
@<TRIPOS>MOLECULE
ZINC17953024
   56    60     0     0     0
SMALL
USER_CHARGES

@<TRIPOS>ATOM
      1 C1          0.0914    0.6267   -0.7078 C.3       1 <0>        -0.1712
      2 C2         -0.8322   -0.5033   -0.2484 C.3       1 <0>         0.1003
      3 C3         -0.8167   -0.5854    1.2794 C.3       1 <0>        -0.1694
      4 N1         -2.1970   -0.2363   -0.7092 N.pl3     1 <0>        -0.6094
      5 C4         -2.7691   -1.0451   -1.5813 C.2       1 <0>         0.3623
      6 C5         -2.0214   -2.0868   -2.1748 C.2       1 <0>        -0.3048
      7 C6         -2.6147   -2.9188   -3.0730 C.2       1 <0>         0.2597
      8 N2         -1.9027   -3.9430   -3.6641 N.pl3     1 <0>        -0.3903
      9 C7         -2.5509   -4.7619   -4.5703 C.ar      1 <0>         0.1668
     10 C8         -1.8639   -5.8040   -5.1848 C.ar      1 <0>        -0.1587
     11 C9         -2.5145   -6.6178   -6.0870 C.ar      1 <0>        -0.0118
     12 C10        -3.8540   -6.4061   -6.3899 C.ar      1 <0>        -0.1232
     13 C11        -4.5488   -5.3915   -5.8015 C.ar      1 <0>        -0.0197
     14 C12        -3.9105   -4.5459   -4.8760 C.ar      1 <0>         0.0480
     15 N3         -4.6005   -3.5496   -4.2996 N.2       1 <0>        -0.3191
     16 C13        -4.0325   -2.7368   -3.4279 C.2       1 <0>         0.1114
     17 C14        -4.7792   -1.6908   -2.8311 C.2       1 <0>        -0.0103
     18 C15        -4.1895   -0.8654   -1.9314 C.2       1 <0>         0.1137
     19 N4         -4.9240    0.1558   -1.3429 N.pl3     1 <0>        -0.6866
     20 C16        -5.0815    0.1928    0.0447 C.ar      1 <0>         0.1732
     21 C17        -5.7539    1.2525    0.6409 C.ar      1 <0>        -0.1520
     22 C18        -5.9084    1.2861    2.0127 C.ar      1 <0>        -0.0616
     23 C19        -5.3943    0.2657    2.7936 C.ar      1 <0>        -0.0669
     24 C20        -4.7241   -0.7911    2.2025 C.ar      1 <0>        -0.0641
     25 C21        -4.5710   -0.8328    0.8308 C.ar      1 <0>        -0.1758
     26 Cl1        -5.5900    0.3117    4.5179 Cl        1 <0>        -0.0561
     27 C22        -0.5559   -4.1476   -3.3538 C.ar      1 <0>         0.0588
     28 C23         0.4340   -3.5248   -4.1046 C.ar      1 <0>        -0.0764
     29 C24         1.7641   -3.7285   -3.7953 C.ar      1 <0>        -0.0960
     30 C25         2.1121   -4.5523   -2.7389 C.ar      1 <0>        -0.0065
     31 C26         1.1285   -5.1744   -1.9896 C.ar      1 <0>        -0.0961
     32 C27        -0.2035   -4.9696   -2.2902 C.ar      1 <0>        -0.0769
     33 Cl2         3.7855   -4.8065   -2.3533 Cl        1 <0>        -0.0311
     34 H1          1.1068    0.4281   -0.3649 H         1 <0>         0.0893
     35 H2          0.0803    0.6852   -1.7962 H         1 <0>         0.0676
     36 H3         -0.2550    1.5718   -0.2896 H         1 <0>         0.0717
     37 H4         -0.4858   -1.4484   -0.6666 H         1 <0>         0.1111
     38 H5         -1.4746   -1.3904    1.6067 H         1 <0>         0.0698
     39 H6          0.1988   -0.7840    1.6222 H         1 <0>         0.0900
     40 H7         -1.1630    0.3597    1.6976 H         1 <0>         0.0723
     41 H8         -0.9815   -2.2220   -1.9164 H         1 <0>         0.1652
     42 H9         -0.8224   -5.9749   -4.9554 H         1 <0>         0.1497
     43 H10        -1.9789   -7.4261   -6.5626 H         1 <0>         0.1560
     44 H11        -4.3498   -7.0521   -7.0993 H         1 <0>         0.1567
     45 H12        -5.5894   -5.2368   -6.0458 H         1 <0>         0.1622
     46 H13        -5.8190   -1.5540   -3.0892 H         1 <0>         0.1789
     47 H14        -5.3277    0.8433   -1.8954 H         1 <0>         0.4257
     48 H15        -6.1550    2.0492    0.0320 H         1 <0>         0.1409
     49 H16        -6.4307    2.1097    2.4767 H         1 <0>         0.1437
     50 H17        -4.3239   -1.5860    2.8144 H         1 <0>         0.1383
     51 H18        -4.0518   -1.6600    0.3697 H         1 <0>         0.1238
     52 H19         0.1630   -2.8824   -4.9295 H         1 <0>         0.1453
     53 H20         2.5337   -3.2448   -4.3784 H         1 <0>         0.1550
     54 H21         1.4031   -5.8169   -1.1661 H         1 <0>         0.1552
     55 H22        -0.9706   -5.4514   -1.7022 H         1 <0>         0.1455
     56 H23        -2.6802    0.5348   -0.3734 H         1 <0>         0.4258
@<TRIPOS>BOND
     1    1    2 1
     2    1   34 1
     3    1   35 1
     4    1   36 1
     5    2    3 1
     6    2    4 1
     7    2   37 1
     8    3   38 1
     9    3   39 1
    10    3   40 1
    11    4    5 2
    12    4   56 1
    13    5   18 1
    14    5    6 1
    15    6    7 2
    16    6   41 1
    17    7   16 1
    18    7    8 1
    19    8    9 1
    20    8   27 1
    21    9   14 ar
    22    9   10 ar
    23   10   11 ar
    24   10   42 1
    25   11   12 ar
    26   11   43 1
    27   12   13 ar
    28   12   44 1
    29   13   14 ar
    30   13   45 1
    31   14   15 1
    32   15   16 2
    33   16   17 1
    34   17   18 2
    35   17   46 1
    36   18   19 1
    37   19   20 1
    38   19   47 1
    39   20   25 ar
    40   20   21 ar
    41   21   22 ar
    42   21   48 1
    43   22   23 ar
    44   22   49 1
    45   23   24 ar
    46   23   26 1
    47   24   25 ar
    48   24   50 1
    49   25   51 1
    50   27   32 ar
    51   27   28 ar
    52   28   29 ar
    53   28   52 1
    54   29   30 ar
    55   29   53 1
    56   30   31 ar
    57   30   33 1
    58   31   32 ar
    59   31   54 1
    60   32   55 1
@<TRIPOS>MOLECULE
ZINC17953024
   56    60     0     0     0
SMALL
USER_CHARGES

@<TRIPOS>ATOM
      1 C1          1.6444   -3.4068    1.3063 C.3       1 <0>        -0.1681
      2 C2          1.0112   -3.6655   -0.0623 C.3       1 <0>         0.0711
      3 C3          1.7320   -4.8291   -0.7460 C.3       1 <0>        -0.1713
      4 N1         -0.4042   -4.0016    0.1102 N.pl3     1 <0>        -0.6142
      5 C4         -1.3091   -3.4821   -0.6980 C.2       1 <0>         0.3661
      6 C5         -2.6749   -3.5040   -0.3367 C.2       1 <0>        -0.2972
      7 C6         -3.6047   -2.9671   -1.1722 C.2       1 <0>         0.2569
      8 N2         -4.9440   -2.9775   -0.8382 N.pl3     1 <0>        -0.3890
      9 C7         -5.8500   -2.4188   -1.7208 C.ar      1 <0>         0.1702
     10 C8         -7.2075   -2.4119   -1.4161 C.ar      1 <0>        -0.1616
     11 C9         -8.1066   -1.8535   -2.2989 C.ar      1 <0>        -0.0083
     12 C10        -7.6687   -1.2961   -3.4940 C.ar      1 <0>        -0.1238
     13 C11        -6.3438   -1.2910   -3.8155 C.ar      1 <0>        -0.0174
     14 C12        -5.4037   -1.8532   -2.9330 C.ar      1 <0>         0.0465
     15 N3         -4.1009   -1.8440   -3.2550 N.2       1 <0>        -0.3127
     16 C13        -3.1920   -2.3638   -2.4508 C.2       1 <0>         0.1023
     17 C14        -1.8215   -2.3439   -2.8103 C.2       1 <0>         0.0106
     18 C15        -0.8942   -2.8736   -1.9748 C.2       1 <0>         0.1040
     19 N4          0.4492   -2.8484   -2.3257 N.pl3     1 <0>        -0.6973
     20 C16         1.1669   -1.6518   -2.2563 C.ar      1 <0>         0.1783
     21 C17         0.5236   -0.4742   -1.8962 C.ar      1 <0>        -0.1694
     22 C18         1.2357    0.7070   -1.8280 C.ar      1 <0>        -0.0635
     23 C19         2.5889    0.7184   -2.1178 C.ar      1 <0>        -0.0669
     24 C20         3.2325   -0.4530   -2.4768 C.ar      1 <0>        -0.0620
     25 C21         2.5267   -1.6382   -2.5416 C.ar      1 <0>        -0.1564
     26 Cl1         3.4808    2.2053   -2.0316 Cl        1 <0>        -0.0575
     27 C22        -5.3750   -3.5410    0.3655 C.ar      1 <0>         0.0614
     28 C23        -6.0365   -4.7632    0.3646 C.ar      1 <0>        -0.0782
     29 C24        -6.4607   -5.3177    1.5558 C.ar      1 <0>        -0.0943
     30 C25        -6.2282   -4.6574    2.7499 C.ar      1 <0>        -0.0074
     31 C26        -5.5700   -3.4398    2.7538 C.ar      1 <0>        -0.0951
     32 C27        -5.1379   -2.8832    1.5664 C.ar      1 <0>        -0.0795
     33 Cl2        -6.7636   -5.3576    4.2455 Cl        1 <0>        -0.0312
     34 H1          2.6676   -3.0555    1.1727 H         1 <0>         0.0893
     35 H2          1.0667   -2.6498    1.8367 H         1 <0>         0.0677
     36 H3          1.6501   -4.3308    1.8846 H         1 <0>         0.0681
     37 H4          1.0997   -2.7708   -0.6785 H         1 <0>         0.1454
     38 H5          1.2809   -5.0134   -1.7210 H         1 <0>         0.0609
     39 H6          2.7851   -4.5791   -0.8743 H         1 <0>         0.0891
     40 H7          1.6435   -5.7238   -0.1297 H         1 <0>         0.0717
     41 H8         -2.9800   -3.9461    0.6003 H         1 <0>         0.1614
     42 H9         -7.5562   -2.8437   -0.4896 H         1 <0>         0.1508
     43 H10        -9.1598   -1.8494   -2.0600 H         1 <0>         0.1569
     44 H11        -8.3856   -0.8626   -4.1757 H         1 <0>         0.1575
     45 H12        -6.0161   -0.8554   -4.7478 H         1 <0>         0.1630
     46 H13        -1.5151   -1.9028   -3.7473 H         1 <0>         0.1795
     47 H14         0.8893   -3.6615   -2.6190 H         1 <0>         0.4214
     48 H15        -0.5325   -0.4825   -1.6702 H         1 <0>         0.1275
     49 H16         0.7361    1.6228   -1.5485 H         1 <0>         0.1391
     50 H17         4.2886   -0.4411   -2.7025 H         1 <0>         0.1430
     51 H18         3.0303   -2.5529   -2.8175 H         1 <0>         0.1388
     52 H19        -6.2188   -5.2785   -0.5668 H         1 <0>         0.1461
     53 H20        -6.9749   -6.2675    1.5558 H         1 <0>         0.1556
     54 H21        -5.3902   -2.9268    3.6870 H         1 <0>         0.1550
     55 H22        -4.6201   -1.9354    1.5706 H         1 <0>         0.1455
     56 H23        -0.6764   -4.6059    0.8185 H         1 <0>         0.4216
@<TRIPOS>BOND
     1    1    2 1
     2    1   34 1
     3    1   35 1
     4    1   36 1
     5    2    3 1
     6    2    4 1
     7    2   37 1
     8    3   38 1
     9    3   39 1
    10    3   40 1
    11    4    5 2
    12    4   56 1
    13    5   18 1
    14    5    6 1
    15    6    7 2
    16    6   41 1
    17    7   16 1
    18    7    8 1
    19    8    9 1
    20    8   27 1
    21    9   14 ar
    22    9   10 ar
    23   10   11 ar
    24   10   42 1
    25   11   12 ar
    26   11   43 1
    27   12   13 ar
    28   12   44 1
    29   13   14 ar
    30   13   45 1
    31   14   15 1
    32   15   16 2
    33   16   17 1
    34   17   18 2
    35   17   46 1
    36   18   19 1
    37   19   20 1
    38   19   47 1
    39   20   25 ar
    40   20   21 ar
    41   21   22 ar
    42   21   48 1
    43   22   23 ar
    44   22   49 1
    45   23   24 ar
    46   23   26 1
    47   24   25 ar
    48   24   50 1
    49   25   51 1
    50   27   32 ar
    51   27   28 ar
    52   28   29 ar
    53   28   52 1
    54   29   30 ar
    55   29   53 1
    56   30   31 ar
    57   30   33 1
    58   31   32 ar
    59   31   54 1
    60   32   55 1
@<TRIPOS>MOLECULE
ZINC22001688
   60    64     0     0     0
SMALL
USER_CHARGES

@<TRIPOS>ATOM
      1 C1         -0.0695    1.2888    0.0144 C.ar      1 <0>        -0.1226
      2 C2          1.1149    2.0014   -0.0010 C.ar      1 <0>        -0.1175
      3 C3          2.3242    1.3319   -0.0166 C.ar      1 <0>        -0.1183
      4 C4          2.3491   -0.0502   -0.0164 C.ar      1 <0>        -0.0868
      5 C5          1.1647   -0.7628   -0.0001 C.ar      1 <0>        -0.1182
      6 C6         -0.0446   -0.0933    0.0141 C.ar      1 <0>        -0.1174
      7 C7          3.6674   -0.7801   -0.0344 C.3       1 <0>        -0.0793
      8 C8          4.1336   -1.0265    1.4019 C.3       1 <0>        -0.1107
      9 C9          5.4720   -1.7676    1.3836 C.3       1 <0>        -0.1202
     10 C10         5.9382   -2.0140    2.8199 C.3       1 <0>         0.0540
     11 O1          7.1883   -2.7061    2.8028 O.3       1 <0>        -0.3048
     12 C11         7.7441   -3.0040    4.0045 C.ar      1 <0>         0.1799
     13 C12         7.0937   -2.6410    5.1780 C.ar      1 <0>        -0.2170
     14 C13         7.6542   -2.9414    6.3994 C.ar      1 <0>        -0.0017
     15 C14         8.8788   -3.6122    6.4579 C.ar      1 <0>        -0.1969
     16 C15         9.5295   -3.9754    5.2758 C.ar      1 <0>        -0.0438
     17 C16         8.9595   -3.6763    4.0585 C.ar      1 <0>        -0.1600
     18 C17         9.4834   -3.9358    7.7647 C.2       1 <0>         0.5765
     19 O2          8.9159   -3.6186    8.7924 O.2       1 <0>        -0.5047
     20 N1         10.6644   -4.5827    7.8191 N.am      1 <0>        -0.6747
     21 C18        11.2836   -4.8064    9.0542 C.ar      1 <0>         0.1616
     22 C19        10.5188   -5.0571   10.1806 C.ar      1 <0>        -0.0202
     23 C20        11.1220   -5.2802   11.4098 C.ar      1 <0>        -0.0862
     24 C21        12.4828   -5.2565   11.5311 C.ar      1 <0>        -0.0344
     25 C22        13.2770   -5.0058   10.4075 C.ar      1 <0>        -0.1431
     26 C23        12.6765   -4.7836    9.1556 C.ar      1 <0>         0.1275
     27 O3         13.4448   -4.5465    8.0738 O.3       1 <0>        -0.1769
     28 C24        14.7816   -4.5191    8.1461 C.2       1 <0>         0.3497
     29 C25        15.4593   -4.7325    9.3356 C.2       1 <0>        -0.2765
     30 C26        14.7408   -4.9728   10.5026 C.2       1 <0>         0.3889
     31 O4         15.3693   -5.1841   11.6789 O.3       1 <0>        -0.3833
     32 C27        15.5558   -4.2544    6.9229 C.2       1 <0>         0.1616
     33 N2         15.0670   -4.0239    5.7020 N.pl3     1 <0>        -0.3499
     34 H1         14.1295   -3.9996    5.4544 H         1 <0>         0.4712
     35 N3         16.0693   -3.8396    4.9124 N.2       1 <0>        -0.0230
     36 N4         17.1633   -3.9439    5.5821 N.2       1 <0>        -0.0251
     37 N5         16.8852   -4.1916    6.8164 N.2       1 <0>        -0.2121
     38 H2         -1.0142    1.8119    0.0311 H         1 <0>         0.1225
     39 H3          1.0955    3.0813   -0.0011 H         1 <0>         0.1226
     40 H4          3.2496    1.8887   -0.0293 H         1 <0>         0.1206
     41 H5          1.1841   -1.8426   -0.0002 H         1 <0>         0.1208
     42 H6         -0.9700   -0.6500    0.0265 H         1 <0>         0.1227
     43 H7          3.5471   -1.7349   -0.5462 H         1 <0>         0.0751
     44 H8          4.4091   -0.1777   -0.5588 H         1 <0>         0.0749
     45 H9          4.2539   -0.0717    1.9137 H         1 <0>         0.0685
     46 H10         3.3919   -1.6290    1.9263 H         1 <0>         0.0687
     47 H11         5.3517   -2.7224    0.8718 H         1 <0>         0.0781
     48 H12         6.2137   -1.1651    0.8592 H         1 <0>         0.0778
     49 H13         6.0585   -1.0592    3.3317 H         1 <0>         0.0695
     50 H14         5.1965   -2.6164    3.3443 H         1 <0>         0.0699
     51 H15         6.1475   -2.1223    5.1319 H         1 <0>         0.1429
     52 H16         7.1484   -2.6587    7.3107 H         1 <0>         0.1444
     53 H17        10.4760   -4.4940    5.3168 H         1 <0>         0.1269
     54 H18         9.4596   -3.9606    3.1444 H         1 <0>         0.1437
     55 H19        11.0854   -4.8934    7.0023 H         1 <0>         0.4183
     56 H20         9.4419   -5.0788   10.1016 H         1 <0>         0.1829
     57 H21        10.5105   -5.4739   12.2786 H         1 <0>         0.1697
     58 H22        12.9438   -5.4306   12.4921 H         1 <0>         0.1711
     59 H23        16.5386   -4.7037    9.3584 H         1 <0>         0.2134
     60 H24        16.3337   -5.1389   11.6232 H         1 <0>         0.4496
@<TRIPOS>BOND
     1    1    6 ar
     2    1    2 ar
     3    1   38 1
     4    2    3 ar
     5    2   39 1
     6    3    4 ar
     7    3   40 1
     8    4    5 ar
     9    4    7 1
    10    5    6 ar
    11    5   41 1
    12    6   42 1
    13    7    8 1
    14    7   43 1
    15    7   44 1
    16    8    9 1
    17    8   45 1
    18    8   46 1
    19    9   10 1
    20    9   47 1
    21    9   48 1
    22   10   11 1
    23   10   49 1
    24   10   50 1
    25   11   12 1
    26   12   17 ar
    27   12   13 ar
    28   13   14 ar
    29   13   51 1
    30   14   15 ar
    31   14   52 1
    32   15   16 ar
    33   15   18 1
    34   16   17 ar
    35   16   53 1
    36   17   54 1
    37   18   19 2
    38   18   20 am
    39   20   21 1
    40   20   55 1
    41   21   26 ar
    42   21   22 ar
    43   22   23 ar
    44   22   56 1
    45   23   24 ar
    46   23   57 1
    47   24   25 ar
    48   24   58 1
    49   25   30 1
    50   25   26 ar
    51   26   27 1
    52   27   28 1
    53   28   29 1
    54   28   32 2
    55   29   30 2
    56   29   59 1
    57   30   31 1
    58   31   60 1
    59   32   37 1
    60   32   33 1
    61   33   34 1
    62   33   35 2
    63   35   36 1
    64   36   37 2
@<TRIPOS>MOLECULE
ZINC22001688
   60    64     0     0     0
SMALL
USER_CHARGES

@<TRIPOS>ATOM
      1 C1         -0.0695    1.2888    0.0144 C.ar      1 <0>        -0.1228
      2 C2          1.1149    2.0014   -0.0010 C.ar      1 <0>        -0.1176
      3 C3          2.3242    1.3319   -0.0166 C.ar      1 <0>        -0.1184
      4 C4          2.3491   -0.0502   -0.0164 C.ar      1 <0>        -0.0866
      5 C5          1.1647   -0.7628   -0.0001 C.ar      1 <0>        -0.1181
      6 C6         -0.0446   -0.0933    0.0141 C.ar      1 <0>        -0.1174
      7 C7          3.6674   -0.7801   -0.0344 C.3       1 <0>        -0.0793
      8 C8          4.1336   -1.0265    1.4019 C.3       1 <0>        -0.1108
      9 C9          5.4720   -1.7676    1.3836 C.3       1 <0>        -0.1200
     10 C10         5.9382   -2.0140    2.8199 C.3       1 <0>         0.0542
     11 O1          7.1883   -2.7061    2.8028 O.3       1 <0>        -0.3058
     12 C11         7.7441   -3.0040    4.0045 C.ar      1 <0>         0.1779
     13 C12         7.0937   -2.6410    5.1780 C.ar      1 <0>        -0.2182
     14 C13         7.6542   -2.9414    6.3994 C.ar      1 <0>        -0.0027
     15 C14         8.8788   -3.6122    6.4579 C.ar      1 <0>        -0.1955
     16 C15         9.5295   -3.9754    5.2758 C.ar      1 <0>        -0.0405
     17 C16         8.9595   -3.6763    4.0585 C.ar      1 <0>        -0.1602
     18 C17         9.4834   -3.9358    7.7647 C.2       1 <0>         0.5768
     19 O2          8.9159   -3.6186    8.7924 O.2       1 <0>        -0.5078
     20 N1         10.6644   -4.5827    7.8191 N.am      1 <0>        -0.6725
     21 C18        11.2836   -4.8064    9.0542 C.ar      1 <0>         0.1635
     22 C19        10.5188   -5.0571   10.1806 C.ar      1 <0>        -0.0244
     23 C20        11.1220   -5.2802   11.4098 C.ar      1 <0>        -0.0869
     24 C21        12.4828   -5.2565   11.5311 C.ar      1 <0>        -0.0383
     25 C22        13.2770   -5.0058   10.4075 C.ar      1 <0>        -0.1430
     26 C23        12.6765   -4.7836    9.1556 C.ar      1 <0>         0.1247
     27 O3         13.4448   -4.5465    8.0738 O.3       1 <0>        -0.1558
     28 C24        14.7816   -4.5191    8.1461 C.2       1 <0>         0.3785
     29 C25        15.4593   -4.7325    9.3356 C.2       1 <0>        -0.2906
     30 C26        14.7408   -4.9728   10.5026 C.2       1 <0>         0.3838
     31 O4         15.3693   -5.1841   11.6789 O.3       1 <0>        -0.3874
     32 C27        15.5558   -4.2544    6.9229 C.2       1 <0>         0.1448
     33 N2         15.0670   -4.0239    5.7020 N.2       1 <0>        -0.2207
     34 N3         16.0693   -3.8396    4.9124 N.pl3     1 <0>        -0.1848
     35 H1         16.0085   -3.6513    3.9628 H         1 <0>         0.4946
     36 N4         17.1633   -3.9439    5.5821 N.2       1 <0>        -0.0072
     37 N5         16.8852   -4.1916    6.8164 N.2       1 <0>        -0.2118
     38 H2         -1.0142    1.8119    0.0311 H         1 <0>         0.1224
     39 H3          1.0955    3.0813   -0.0011 H         1 <0>         0.1225
     40 H4          3.2496    1.8887   -0.0293 H         1 <0>         0.1205
     41 H5          1.1841   -1.8426   -0.0002 H         1 <0>         0.1208
     42 H6         -0.9700   -0.6500    0.0265 H         1 <0>         0.1227
     43 H7          3.5471   -1.7349   -0.5462 H         1 <0>         0.0750
     44 H8          4.4091   -0.1777   -0.5588 H         1 <0>         0.0747
     45 H9          4.2539   -0.0717    1.9137 H         1 <0>         0.0684
     46 H10         3.3919   -1.6290    1.9263 H         1 <0>         0.0687
     47 H11         5.3517   -2.7224    0.8718 H         1 <0>         0.0778
     48 H12         6.2137   -1.1651    0.8592 H         1 <0>         0.0773
     49 H13         6.0585   -1.0592    3.3317 H         1 <0>         0.0690
     50 H14         5.1965   -2.6164    3.3443 H         1 <0>         0.0695
     51 H15         6.1475   -2.1223    5.1319 H         1 <0>         0.1420
     52 H16         7.1484   -2.6587    7.3107 H         1 <0>         0.1439
     53 H17        10.4760   -4.4940    5.3168 H         1 <0>         0.1300
     54 H18         9.4596   -3.9606    3.1444 H         1 <0>         0.1426
     55 H19        11.0854   -4.8934    7.0023 H         1 <0>         0.4214
     56 H20         9.4419   -5.0788   10.1016 H         1 <0>         0.1817
     57 H21        10.5105   -5.4739   12.2786 H         1 <0>         0.1680
     58 H22        12.9438   -5.4306   12.4921 H         1 <0>         0.1695
     59 H23        16.5386   -4.7037    9.3584 H         1 <0>         0.2102
     60 H24        16.3337   -5.1389   11.6232 H         1 <0>         0.4473
@<TRIPOS>BOND
     1    1    6 ar
     2    1    2 ar
     3    1   38 1
     4    2    3 ar
     5    2   39 1
     6    3    4 ar
     7    3   40 1
     8    4    5 ar
     9    4    7 1
    10    5    6 ar
    11    5   41 1
    12    6   42 1
    13    7    8 1
    14    7   43 1
    15    7   44 1
    16    8    9 1
    17    8   45 1
    18    8   46 1
    19    9   10 1
    20    9   47 1
    21    9   48 1
    22   10   11 1
    23   10   49 1
    24   10   50 1
    25   11   12 1
    26   12   17 ar
    27   12   13 ar
    28   13   14 ar
    29   13   51 1
    30   14   15 ar
    31   14   52 1
    32   15   16 ar
    33   15   18 1
    34   16   17 ar
    35   16   53 1
    36   17   54 1
    37   18   19 2
    38   18   20 am
    39   20   21 1
    40   20   55 1
    41   21   26 ar
    42   21   22 ar
    43   22   23 ar
    44   22   56 1
    45   23   24 ar
    46   23   57 1
    47   24   25 ar
    48   24   58 1
    49   25   30 1
    50   25   26 ar
    51   26   27 1
    52   27   28 1
    53   28   29 1
    54   28   32 2
    55   29   30 2
    56   29   59 1
    57   30   31 1
    58   31   60 1
    59   32   37 1
    60   32   33 1
    61   33   34 2
    62   34   35 1
    63   34   36 1
    64   36   37 2
@<TRIPOS>MOLECULE
ZINC04097343
   87    93     0     0     0
SMALL
USER_CHARGES
4-[4-[4-[4-[[2-(2,4-dichlorophenyl)-2-(1,2,4-triazol-1-ylmethyl)-1,3-dioxolan-4-yl]methoxy]phenyl]piperazin-1-yl]phenyl]-2-sec-butyl-1,2,4-triazol-3-one
@<TRIPOS>ATOM
      1 C1          4.1679   -0.8173    1.3405 C.3       1 <0>        -0.1508
      2 C2          3.6502   -0.4775    2.7396 C.3       1 <0>        -0.1337
      3 C3          3.4116    1.0303    2.8428 C.3       1 <0>         0.1820
      4 H1          2.7428    1.3479    2.0429 H         1 <0>         0.1085
      5 C4          2.7775    1.3548    4.1969 C.3       1 <0>        -0.1628
      6 N1          4.6894    1.7364    2.7202 N.am      1 <0>        -0.4408
      7 C5          5.0145    2.6429    1.7751 C.2       1 <0>         0.6462
      8 O1          4.2993    3.0247    0.8658 O.2       1 <0>        -0.5423
      9 N2          6.2765    3.0479    2.0217 N.am      1 <0>        -0.4985
     10 C6          6.7345    2.3815    3.1338 C.2       1 <0>         0.2486
     11 N3          5.7983    1.5997    3.5666 N.2       1 <0>        -0.2636
     12 C7          6.9992    3.9887    1.2716 C.ar      1 <0>         0.1258
     13 C8          6.4173    4.5863    0.1618 C.ar      1 <0>        -0.1052
     14 C9          7.1260    5.5153   -0.5734 C.ar      1 <0>        -0.1421
     15 C10         8.4255    5.8439   -0.2091 C.ar      1 <0>         0.1042
     16 C11         9.0093    5.2419    0.8981 C.ar      1 <0>        -0.1131
     17 C12         8.2978    4.3172    1.6362 C.ar      1 <0>        -0.1125
     18 N4          9.1457    6.7809   -0.9568 N.pl3     1 <0>        -0.4886
     19 C13         9.6162    7.8835   -0.1068 C.3       1 <0>         0.0577
     20 C14        10.4646    8.8435   -0.9441 C.3       1 <0>         0.0575
     21 N5          9.6619    9.3521   -2.0651 N.pl3     1 <0>        -0.4877
     22 C15         9.1914    8.2495   -2.9151 C.3       1 <0>         0.0520
     23 C16         8.3430    7.2896   -2.0778 C.3       1 <0>         0.0495
     24 C17        10.3826   10.2897   -2.8132 C.ar      1 <0>         0.0746
     25 C18        10.5706   10.0953   -4.1752 C.ar      1 <0>        -0.1279
     26 C19        11.2763   11.0246   -4.9141 C.ar      1 <0>        -0.1826
     27 C20        11.8081   12.1453   -4.2936 C.ar      1 <0>         0.1102
     28 C21        11.6261   12.3371   -2.9320 C.ar      1 <0>        -0.1222
     29 C22        10.9150   11.4122   -2.1929 C.ar      1 <0>        -0.0964
     30 O2         12.5081   13.0568   -5.0208 O.3       1 <0>        -0.3024
     31 C23        12.6569   12.7960   -6.4179 C.3       1 <0>         0.0672
     32 C24        13.4667   13.9221   -7.0635 C.3       1 <0>         0.0499
     33 H2         14.4328   14.0314   -6.5707 H         1 <0>         0.1021
     34 C25        13.6476   13.6660   -8.5806 C.3       1 <0>         0.0203
     35 O3         13.8205   15.0112   -9.0874 O.3       1 <0>        -0.3411
     36 C26        12.9489   15.8223   -8.2819 C.3       1 <0>         0.2961
     37 O4         12.7329   15.1628   -7.0274 O.3       1 <0>        -0.3275
     38 C27        11.6115   16.0102   -9.0009 C.3       1 <0>         0.1126
     39 N6         10.7492   16.8886   -8.2065 N.pl3     1 <0>        -0.3731
     40 C28        10.1882   18.0430   -8.6061 C.2       1 <0>         0.2537
     41 N7          9.4922   18.5231   -7.6077 N.2       1 <0>        -0.5393
     42 C29         9.5844   17.7068   -6.5586 C.2       1 <0>         0.1918
     43 N8         10.3394   16.6888   -6.8781 N.2       1 <0>        -0.2861
     44 C30        13.5856   17.1673   -8.0439 C.ar      1 <0>        -0.0962
     45 C31        13.7073   17.6562   -6.7565 C.ar      1 <0>        -0.0530
     46 C32        14.2915   18.8893   -6.5374 C.ar      1 <0>        -0.1081
     47 C33        14.7549   19.6355   -7.6066 C.ar      1 <0>        -0.0114
     48 C34        14.6335   19.1469   -8.8948 C.ar      1 <0>        -0.1076
     49 C35        14.0533   17.9100   -9.1131 C.ar      1 <0>        -0.0044
     50 Cl1        13.9064   17.2930  -10.7291 Cl        1 <0>        -0.0409
     51 Cl2        15.4882   21.1848   -7.3312 Cl        1 <0>        -0.0494
     52 H3          4.3378   -1.8915    1.2670 H         1 <0>         0.0597
     53 H4          5.1038   -0.2882    1.1609 H         1 <0>         0.0469
     54 H5          3.4308   -0.5143    0.5969 H         1 <0>         0.0565
     55 H6          2.7143   -1.0065    2.9191 H         1 <0>         0.0841
     56 H7          4.3873   -0.7805    3.4832 H         1 <0>         0.0777
     57 H8          3.4463    1.0371    4.9968 H         1 <0>         0.0707
     58 H9          2.6075    2.4289    4.2704 H         1 <0>         0.0599
     59 H10         1.8268    0.8294    4.2881 H         1 <0>         0.0781
     60 H11         7.7130    2.4956    3.5764 H         1 <0>         0.2324
     61 H12         5.4086    4.3272   -0.1242 H         1 <0>         0.1559
     62 H13         6.6717    5.9834   -1.4341 H         1 <0>         0.1357
     63 H14        10.0198    5.4969    1.1814 H         1 <0>         0.1356
     64 H15         8.7517    3.8491    2.4972 H         1 <0>         0.1331
     65 H16         8.7592    8.4183    0.3026 H         1 <0>         0.0571
     66 H17        10.2184    7.4827    0.7086 H         1 <0>         0.0921
     67 H18        11.3362    8.3154   -1.3311 H         1 <0>         0.0550
     68 H19        10.7907    9.6773   -0.3225 H         1 <0>         0.0916
     69 H20        10.0485    7.7147   -3.3245 H         1 <0>         0.0569
     70 H21         8.5892    8.6503   -3.7304 H         1 <0>         0.0914
     71 H22         8.0169    6.4557   -2.6994 H         1 <0>         0.0927
     72 H23         7.4713    7.8173   -1.6908 H         1 <0>         0.0598
     73 H24        10.1610    9.2201   -4.6575 H         1 <0>         0.1292
     74 H25        11.4182   10.8761   -5.9744 H         1 <0>         0.1257
     75 H26        12.0402   13.2102   -2.4498 H         1 <0>         0.1336
     76 H27        10.7727   11.5621   -1.1329 H         1 <0>         0.1323
     77 H28        13.1771   11.8483   -6.5572 H         1 <0>         0.0798
     78 H29        11.6731   12.7424   -6.8842 H         1 <0>         0.0724
     79 H30        14.5336   13.0603   -8.7711 H         1 <0>         0.1236
     80 H31        12.7591   13.1998   -9.0063 H         1 <0>         0.0848
     81 H32        11.7847   16.4589   -9.9790 H         1 <0>         0.1221
     82 H33        11.1271   15.0418   -9.1260 H         1 <0>         0.1004
     83 H34        10.2941   18.4955   -9.5809 H         1 <0>         0.2133
     84 H35         9.1088   17.8594   -5.6010 H         1 <0>         0.2149
     85 H36        13.3454   17.0743   -5.9217 H         1 <0>         0.1524
     86 H37        14.3866   19.2706   -5.5314 H         1 <0>         0.1442
     87 H38        14.9947   19.7291   -9.7297 H         1 <0>         0.1490
@<TRIPOS>BOND
     1    1    2 1
     2    1   52 1
     3    1   53 1
     4    1   54 1
     5    2    3 1
     6    2   55 1
     7    2   56 1
     8    3    4 1
     9    3    5 1
    10    3    6 1
    11    5   57 1
    12    5   58 1
    13    5   59 1
    14    6   11 1
    15    6    7 am
    16    7    8 2
    17    7    9 am
    18    9   10 1
    19    9   12 1
    20   10   11 2
    21   10   60 1
    22   12   17 ar
    23   12   13 ar
    24   13   14 ar
    25   13   61 1
    26   14   15 ar
    27   14   62 1
    28   15   16 ar
    29   15   18 1
    30   16   17 ar
    31   16   63 1
    32   17   64 1
    33   18   23 1
    34   18   19 1
    35   19   20 1
    36   19   65 1
    37   19   66 1
    38   20   21 1
    39   20   67 1
    40   20   68 1
    41   21   22 1
    42   21   24 1
    43   22   23 1
    44   22   69 1
    45   22   70 1
    46   23   71 1
    47   23   72 1
    48   24   29 ar
    49   24   25 ar
    50   25   26 ar
    51   25   73 1
    52   26   27 ar
    53   26   74 1
    54   27   28 ar
    55   27   30 1
    56   28   29 ar
    57   28   75 1
    58   29   76 1
    59   30   31 1
    60   31   32 1
    61   31   77 1
    62   31   78 1
    63   32   33 1
    64   32   37 1
    65   32   34 1
    66   34   35 1
    67   34   79 1
    68   34   80 1
    69   35   36 1
    70   36   37 1
    71   36   38 1
    72   36   44 1
    73   38   39 1
    74   38   81 1
    75   38   82 1
    76   39   43 1
    77   39   40 1
    78   40   41 2
    79   40   83 1
    80   41   42 1
    81   42   43 2
    82   42   84 1
    83   44   49 ar
    84   44   45 ar
    85   45   46 ar
    86   45   85 1
    87   46   47 ar
    88   46   86 1
    89   47   48 ar
    90   47   51 1
    91   48   49 ar
    92   48   87 1
    93   49   50 1
@<TRIPOS>MOLECULE
ZINC04097344
   87    93     0     0     0
SMALL
USER_CHARGES
4-[4-[4-[4-[[2-(2,4-dichlorophenyl)-2-(1,2,4-triazol-1-ylmethyl)-1,3-dioxolan-4-yl]methoxy]phenyl]piperazin-1-yl]phenyl]-2-sec-butyl-1,2,4-triazol-3-one
@<TRIPOS>ATOM
      1 C1         -2.1330    0.0091    0.1658 C.3       1 <0>        -0.1507
      2 C2         -2.8145   -0.2535   -1.1786 C.3       1 <0>        -0.1337
      3 C3         -1.8280    0.0273   -2.3139 C.3       1 <0>         0.1820
      4 H1         -1.4386    1.0405   -2.2146 H         1 <0>         0.1085
      5 C4         -2.5441   -0.1144   -3.6585 C.3       1 <0>        -0.1628
      6 N1         -0.7211   -0.9300   -2.2469 N.am      1 <0>        -0.4408
      7 C5          0.5853   -0.6319   -2.0878 C.2       1 <0>         0.6462
      8 O1          1.0615    0.4833   -1.9723 O.2       1 <0>        -0.5422
      9 N2          1.2665   -1.7953   -2.0796 N.am      1 <0>        -0.4985
     10 C6          0.3672   -2.8235   -2.2359 C.2       1 <0>         0.2486
     11 N3         -0.8224   -2.3248   -2.3420 N.2       1 <0>        -0.2637
     12 C7          2.6560   -1.9332   -1.9366 C.ar      1 <0>         0.1258
     13 C8          3.4540   -0.8064   -1.7921 C.ar      1 <0>        -0.1052
     14 C9          4.8201   -0.9420   -1.6465 C.ar      1 <0>        -0.1421
     15 C10         5.3974   -2.2053   -1.6553 C.ar      1 <0>         0.1042
     16 C11         4.5992   -3.3321   -1.8052 C.ar      1 <0>        -0.1131
     17 C12         3.2325   -3.1960   -1.9454 C.ar      1 <0>        -0.1125
     18 N4          6.7818   -2.3427   -1.5127 N.pl3     1 <0>        -0.4886
     19 C13         7.1102   -3.2163   -0.3776 C.3       1 <0>         0.0577
     20 C14         8.6273   -3.4046   -0.3044 C.3       1 <0>         0.0575
     21 N5          9.2747   -2.0932   -0.1605 N.pl3     1 <0>        -0.4877
     22 C15         8.9463   -1.2195   -1.2957 C.3       1 <0>         0.0520
     23 C16         7.4292   -1.0313   -1.3688 C.3       1 <0>         0.0495
     24 C17        10.6600   -2.2307   -0.0179 C.ar      1 <0>         0.0746
     25 C18        11.5167   -1.5832   -0.8983 C.ar      1 <0>        -0.1279
     26 C19        12.8838   -1.7142   -0.7528 C.ar      1 <0>        -0.1826
     27 C20        13.4010   -2.5023    0.2646 C.ar      1 <0>         0.1102
     28 C21        12.5459   -3.1543    1.1407 C.ar      1 <0>        -0.1223
     29 C22        11.1786   -3.0192    1.0007 C.ar      1 <0>        -0.0964
     30 O2         14.7473   -2.6356    0.4035 O.3       1 <0>        -0.3023
     31 C23        15.5686   -1.9362   -0.5337 C.3       1 <0>         0.0672
     32 C24        17.0420   -2.2049   -0.2208 C.3       1 <0>         0.0498
     33 H2         17.2469   -3.2755   -0.2284 H         1 <0>         0.1021
     34 C25        17.9591   -1.4610   -1.2235 C.3       1 <0>         0.0203
     35 O3         19.1698   -1.2948   -0.4471 O.3       1 <0>        -0.3411
     36 C26        18.7156   -1.0584    0.8961 C.3       1 <0>         0.2960
     37 O4         17.4074   -1.6251    1.0478 O.3       1 <0>        -0.3275
     38 C27        18.6574    0.4473    1.1616 C.3       1 <0>         0.1125
     39 N6         18.2548    0.6832    2.5503 N.pl3     1 <0>        -0.3730
     40 C28        18.9336    1.3789    3.4789 C.2       1 <0>         0.2537
     41 N7         18.2409    1.3579    4.5886 N.2       1 <0>        -0.5393
     42 C29        17.1193    0.6617    4.4082 C.2       1 <0>         0.1919
     43 N8         17.0800    0.2326    3.1742 N.2       1 <0>        -0.2861
     44 C30        19.6639   -1.7052    1.8725 C.ar      1 <0>        -0.0962
     45 C31        19.1780   -2.5575    2.8465 C.ar      1 <0>        -0.0530
     46 C32        20.0471   -3.1514    3.7420 C.ar      1 <0>        -0.1081
     47 C33        21.4044   -2.8932    3.6641 C.ar      1 <0>        -0.0114
     48 C34        21.8911   -2.0406    2.6899 C.ar      1 <0>        -0.1076
     49 C35        21.0211   -1.4504    1.7904 C.ar      1 <0>        -0.0044
     50 Cl1        21.6319   -0.3853    0.5632 Cl        1 <0>        -0.0408
     51 Cl2        22.4959   -3.6389    4.7894 Cl        1 <0>        -0.0493
     52 H3         -2.8358   -0.1909    0.9746 H         1 <0>         0.0598
     53 H4         -1.2664   -0.6441    0.2676 H         1 <0>         0.0468
     54 H5         -1.8113    1.0495    0.2130 H         1 <0>         0.0565
     55 H6         -3.6811    0.3997   -1.2804 H         1 <0>         0.0841
     56 H7         -3.1362   -1.2939   -1.2258 H         1 <0>         0.0777
     57 H8         -3.3677    0.5979   -3.7084 H         1 <0>         0.0781
     58 H9         -1.8413    0.0856   -4.4673 H         1 <0>         0.0599
     59 H10        -2.9335   -1.1276   -3.7578 H         1 <0>         0.0707
     60 H11         0.6135   -3.8745   -2.2692 H         1 <0>         0.2324
     61 H12         3.0055    0.1760   -1.7894 H         1 <0>         0.1559
     62 H13         5.4404   -0.0656   -1.5300 H         1 <0>         0.1357
     63 H14         5.0477   -4.3145   -1.8124 H         1 <0>         0.1356
     64 H15         2.6119   -4.0721   -2.0623 H         1 <0>         0.1331
     65 H16         6.7553   -2.7604    0.5467 H         1 <0>         0.0571
     66 H17         6.6297   -4.1852   -0.5134 H         1 <0>         0.0921
     67 H18         8.9786   -3.8853   -1.2175 H         1 <0>         0.0550
     68 H19         8.8753   -4.0287    0.5541 H         1 <0>         0.0916
     69 H20         9.3011   -1.6754   -2.2200 H         1 <0>         0.0569
     70 H21         9.4268   -0.2507   -1.1598 H         1 <0>         0.0914
     71 H22         7.1812   -0.4071   -2.2273 H         1 <0>         0.0926
     72 H23         7.0776   -0.5504   -0.4560 H         1 <0>         0.0598
     73 H24        11.1140   -0.9737   -1.6938 H         1 <0>         0.1292
     74 H25        13.5504   -1.2065   -1.4343 H         1 <0>         0.1257
     75 H26        12.9495   -3.7676    1.9328 H         1 <0>         0.1336
     76 H27        10.5130   -3.5264    1.6834 H         1 <0>         0.1323
     77 H28        15.3427   -2.2809   -1.5428 H         1 <0>         0.0798
     78 H29        15.3713   -0.8666   -0.4624 H         1 <0>         0.0724
     79 H30        18.1437   -2.0694   -2.1088 H         1 <0>         0.1236
     80 H31        17.5353   -0.4948   -1.4972 H         1 <0>         0.0848
     81 H32        19.6407    0.8849    0.9891 H         1 <0>         0.1221
     82 H33        17.9323    0.9069    0.4900 H         1 <0>         0.1004
     83 H34        19.8850    1.8691    3.3343 H         1 <0>         0.2134
     84 H35        16.3631    0.4844    5.1587 H         1 <0>         0.2149
     85 H36        18.1187   -2.7590    2.9078 H         1 <0>         0.1524
     86 H37        19.6669   -3.8174    4.5024 H         1 <0>         0.1442
     87 H38        22.9503   -1.8385    2.6291 H         1 <0>         0.1490
@<TRIPOS>BOND
     1    1    2 1
     2    1   52 1
     3    1   53 1
     4    1   54 1
     5    2    3 1
     6    2   55 1
     7    2   56 1
     8    3    4 1
     9    3    5 1
    10    3    6 1
    11    5   57 1
    12    5   58 1
    13    5   59 1
    14    6   11 1
    15    6    7 am
    16    7    8 2
    17    7    9 am
    18    9   10 1
    19    9   12 1
    20   10   11 2
    21   10   60 1
    22   12   17 ar
    23   12   13 ar
    24   13   14 ar
    25   13   61 1
    26   14   15 ar
    27   14   62 1
    28   15   16 ar
    29   15   18 1
    30   16   17 ar
    31   16   63 1
    32   17   64 1
    33   18   23 1
    34   18   19 1
    35   19   20 1
    36   19   65 1
    37   19   66 1
    38   20   21 1
    39   20   67 1
    40   20   68 1
    41   21   22 1
    42   21   24 1
    43   22   23 1
    44   22   69 1
    45   22   70 1
    46   23   71 1
    47   23   72 1
    48   24   29 ar
    49   24   25 ar
    50   25   26 ar
    51   25   73 1
    52   26   27 ar
    53   26   74 1
    54   27   28 ar
    55   27   30 1
    56   28   29 ar
    57   28   75 1
    58   29   76 1
    59   30   31 1
    60   31   32 1
    61   31   77 1
    62   31   78 1
    63   32   33 1
    64   32   37 1
    65   32   34 1
    66   34   35 1
    67   34   79 1
    68   34   80 1
    69   35   36 1
    70   36   37 1
    71   36   38 1
    72   36   44 1
    73   38   39 1
    74   38   81 1
    75   38   82 1
    76   39   43 1
    77   39   40 1
    78   40   41 2
    79   40   83 1
    80   41   42 1
    81   42   43 2
    82   42   84 1
    83   44   49 ar
    84   44   45 ar
    85   45   46 ar
    86   45   85 1
    87   46   47 ar
    88   46   86 1
    89   47   48 ar
    90   47   51 1
    91   48   49 ar
    92   48   87 1
    93   49   50 1
@<TRIPOS>MOLECULE
ZINC00378481
   34    35     0     0     0
SMALL
USER_CHARGES

@<TRIPOS>ATOM
      1 C1         -0.3552    1.3394   -0.0700 C.3       1 <0>        -0.0770
      2 C2         -0.0914   -0.1430   -0.0079 C.2       1 <0>        -0.0076
      3 C3          0.0307   -0.9693   -1.0666 C.2       1 <0>        -0.2066
      4 C4          0.2720   -2.2638   -0.5657 C.2       1 <0>        -0.2318
      5 C5          0.2882   -2.1793    0.7801 C.2       1 <0>         0.0527
      6 N1          0.0708   -0.8791    1.1282 N.pl3     1 <0>        -0.4090
      7 C6          0.0169   -0.3595    2.4969 C.3       1 <0>         0.0644
      8 H1         -0.1254    0.7208    2.4701 H         1 <0>         0.0853
      9 C7         -1.1499   -1.0092    3.2435 C.3       1 <0>        -0.0821
     10 C8         -1.3018   -0.3641    4.5970 C.ar      1 <0>        -0.0682
     11 C9         -0.6175   -0.8720    5.6854 C.ar      1 <0>        -0.0914
     12 C10        -0.7568   -0.2803    6.9269 C.ar      1 <0>        -0.1196
     13 C11        -1.5800    0.8197    7.0799 C.ar      1 <0>        -0.1292
     14 C12        -2.2635    1.3282    5.9912 C.ar      1 <0>        -0.1269
     15 C13        -2.1209    0.7390    4.7489 C.ar      1 <0>        -0.1188
     16 C14         1.3075   -0.6788    3.2066 C.2       1 <0>         0.5000
     17 O1          2.0030    0.2230    3.6419 O.co2     1 <0>        -0.6822
     18 O2          1.6560   -1.8388    3.3454 O.co2     1 <0>        -0.6703
     19 C15         0.5127   -3.3238    1.7345 C.3       1 <0>        -0.0688
     20 H2          0.5928    1.8756   -0.1135 H         1 <0>         0.0640
     21 H3         -0.9425    1.5670   -0.9595 H         1 <0>         0.0706
     22 H4         -0.9066    1.6478    0.8182 H         1 <0>         0.0568
     23 H5         -0.0430   -0.6900   -2.1073 H         1 <0>         0.1237
     24 H6          0.4174   -3.1592   -1.1517 H         1 <0>         0.1246
     25 H7         -2.0678   -0.8738    2.6714 H         1 <0>         0.0639
     26 H8         -0.9534   -2.0740    3.3685 H         1 <0>         0.0897
     27 H9          0.0256   -1.7314    5.5659 H         1 <0>         0.1277
     28 H10        -0.2228   -0.6775    7.7774 H         1 <0>         0.1184
     29 H11        -1.6894    1.2816    8.0500 H         1 <0>         0.1157
     30 H12        -2.9069    2.1873    6.1108 H         1 <0>         0.1162
     31 H13        -2.6520    1.1385    3.8976 H         1 <0>         0.1156
     32 H14         1.5830   -3.4812    1.8677 H         1 <0>         0.0782
     33 H15         0.0574   -3.0891    2.6967 H         1 <0>         0.0786
     34 H16         0.0599   -4.2288    1.3294 H         1 <0>         0.0431
@<TRIPOS>BOND
     1    1    2 1
     2    1   20 1
     3    1   21 1
     4    1   22 1
     5    2    6 1
     6    2    3 2
     7    3    4 1
     8    3   23 1
     9    4    5 2
    10    4   24 1
    11    5    6 1
    12    5   19 1
    13    6    7 1
    14    7    8 1
    15    7    9 1
    16    7   16 1
    17    9   10 1
    18    9   25 1
    19    9   26 1
    20   10   15 ar
    21   10   11 ar
    22   11   12 ar
    23   11   27 1
    24   12   13 ar
    25   12   28 1
    26   13   14 ar
    27   13   29 1
    28   14   15 ar
    29   14   30 1
    30   15   31 1
    31   16   17 2
    32   16   18 1
    33   19   32 1
    34   19   33 1
    35   19   34 1
@<TRIPOS>MOLECULE
ZINC00378484
   34    35     0     0     0
SMALL
USER_CHARGES
2-(2,5-dimethylpyrrol-1-yl)-3-phenyl-propanoic acid
@<TRIPOS>ATOM
      1 C1          0.4566    1.7079    0.2342 C.3       1 <0>        -0.0779
      2 C2          0.3014    0.2187    0.0635 C.2       1 <0>        -0.0071
      3 C3          0.3076   -0.4476   -1.1089 C.2       1 <0>        -0.2038
      4 C4          0.1364   -1.8154   -0.8176 C.2       1 <0>        -0.2304
      5 C5          0.0242   -1.9320    0.5212 C.2       1 <0>         0.0649
      6 N1          0.1247   -0.6868    1.0674 N.pl3     1 <0>        -0.4084
      7 C6          0.0549   -0.3736    2.4969 C.3       1 <0>         0.0851
      8 H1          0.0751    0.7076    2.6333 H         1 <0>         0.0937
      9 C7          1.2512   -1.0008    3.2154 C.3       1 <0>        -0.0711
     10 C8          1.2721   -0.5421    4.6507 C.ar      1 <0>        -0.0724
     11 C9          1.9636    0.6026    5.0005 C.ar      1 <0>        -0.1195
     12 C10         1.9788    1.0261    6.3163 C.ar      1 <0>        -0.1421
     13 C11         1.3110    0.2991    7.2841 C.ar      1 <0>        -0.1251
     14 C12         0.6238   -0.8485    6.9351 C.ar      1 <0>        -0.1321
     15 C13         0.6043   -1.2690    5.6185 C.ar      1 <0>        -0.0251
     16 C14        -1.2232   -0.9285    3.0708 C.2       1 <0>         0.4571
     17 O1         -1.9965   -1.5245    2.3590 O.co2     1 <0>        -0.6129
     18 C15        -0.1783   -3.2168    1.2822 C.3       1 <0>        -0.0775
     19 H2          1.5124    1.9522    0.3511 H         1 <0>         0.0616
     20 H3          0.0609    2.2175   -0.6443 H         1 <0>         0.0718
     21 H4         -0.0913    2.0312    1.1193 H         1 <0>         0.0581
     22 H5          0.4246   -0.0128   -2.0906 H         1 <0>         0.1237
     23 H6          0.0981   -2.6218   -1.5349 H         1 <0>         0.1243
     24 H7          1.1663   -2.0870    3.1823 H         1 <0>         0.0755
     25 H8          2.1733   -0.6933    2.7222 H         1 <0>         0.0657
     26 H9          2.4890    1.1681    4.2451 H         1 <0>         0.1100
     27 H10         2.5160    1.9224    6.5890 H         1 <0>         0.1108
     28 H11         1.3265    0.6275    8.3128 H         1 <0>         0.1102
     29 H12         0.1024   -1.4166    7.6913 H         1 <0>         0.1125
     30 H13         0.0677   -2.1658    5.3459 H         1 <0>         0.1193
     31 H14        -1.2399   -3.4632    1.3033 H         1 <0>         0.0810
     32 H15         0.3714   -4.0201    0.7917 H         1 <0>         0.0577
     33 H16         0.1871   -3.0965    2.3021 H         1 <0>         0.0576
     34 O2         -1.5027   -0.7608    4.3730 O.co2     1 <0>        -0.7351
@<TRIPOS>BOND
     1    1    2 1
     2    1   19 1
     3    1   20 1
     4    1   21 1
     5    2    6 1
     6    2    3 2
     7    3    4 1
     8    3   22 1
     9    4    5 2
    10    4   23 1
    11    5    6 1
    12    5   18 1
    13    6    7 1
    14    7    8 1
    15    7    9 1
    16    7   16 1
    17    9   10 1
    18    9   24 1
    19    9   25 1
    20   10   15 ar
    21   10   11 ar
    22   11   12 ar
    23   11   26 1
    24   12   13 ar
    25   12   27 1
    26   13   14 ar
    27   13   28 1
    28   14   15 ar
    29   14   29 1
    30   15   30 1
    31   16   17 2
    32   16   34 1
    33   18   31 1
    34   18   32 1
    35   18   33 1
@<TRIPOS>MOLECULE
ZINC02410151
   52    53     0     0     0
SMALL
USER_CHARGES

@<TRIPOS>ATOM
      1 C1         -0.0187    1.5258    0.0104 C.3       1 <0>        -0.1373
      2 C2          0.0021   -0.0041    0.0020 C.3       1 <0>        -0.1055
      3 C3         -1.4333   -0.5336    0.0129 C.3       1 <0>        -0.1569
      4 C4          0.7182   -0.4975   -1.2568 C.3       1 <0>         0.2629
      5 H1          1.7408   -0.1202   -1.2645 H         1 <0>         0.1341
      6 C5          0.7387   -2.0043   -1.2651 C.2       1 <0>         0.1951
      7 N1         -0.2663   -2.7875   -1.5370 N.2       1 <0>        -0.2659
      8 N2          0.1123   -4.0140   -1.4492 N.2       1 <0>        -0.1657
      9 C6          1.3716   -4.0551   -1.1182 C.2       1 <0>        -0.3610
     10 O1          1.7982   -2.7866   -0.9990 O.3       1 <0>        -0.1629
     11 S1          2.3395   -5.5077   -0.8774 S.o2      1 <0>         2.5110
     12 O2          3.3676   -5.1135    0.0208 O.2       1 <0>        -0.8830
     13 O3          1.4026   -6.5111   -0.5107 O.2       1 <0>        -0.8611
     14 C7          3.0423   -5.8753   -2.5088 C.3       1 <0>        -0.5535
     15 C8          3.8981   -7.1125   -2.4199 C.ar      1 <0>        -0.1350
     16 C9          5.2444   -7.0031   -2.1154 C.ar      1 <0>         0.1363
     17 C10         6.0296   -8.1404   -2.0340 C.ar      1 <0>        -0.1464
     18 C11         5.4694   -9.3844   -2.2568 C.ar      1 <0>        -0.0570
     19 C12         4.1257   -9.4936   -2.5607 C.ar      1 <0>        -0.1165
     20 C13         3.3381   -8.3582   -2.6368 C.ar      1 <0>         0.0049
     21 Cl1         1.6488   -8.4972   -3.0117 Cl        1 <0>        -0.0285
     22 F1          5.7916   -5.7871   -1.8982 F         1 <0>        -0.1172
     23 N3          0.0097   -0.0122   -2.4437 N.am      1 <0>        -0.7035
     24 C14         0.2742    1.2162   -2.9311 C.2       1 <0>         0.6611
     25 O4          1.1004    1.9211   -2.3862 O.2       1 <0>        -0.5519
     26 O5         -0.3770    1.6622   -4.0219 O.3       1 <0>        -0.3528
     27 C15        -0.0467    2.9736   -4.4836 C.3       1 <0>         0.1348
     28 C16         1.4400    3.0290   -4.8410 C.3       1 <0>        -0.1872
     29 C17        -0.8817    3.3034   -5.7225 C.3       1 <0>        -0.1418
     30 C18        -0.3446    3.9924   -3.3817 C.3       1 <0>        -0.1873
     31 H2          1.0039    1.9031    0.0027 H         1 <0>         0.0713
     32 H3         -0.5459    1.8868   -0.8726 H         1 <0>         0.0583
     33 H4         -0.5289    1.8773    0.9072 H         1 <0>         0.0615
     34 H5          0.5293   -0.3651    0.8851 H         1 <0>         0.0922
     35 H6         -1.9605   -0.1726   -0.8702 H         1 <0>         0.0639
     36 H7         -1.4185   -1.6235    0.0069 H         1 <0>         0.0625
     37 H8         -1.9435   -0.1821    0.9097 H         1 <0>         0.0664
     38 H9          2.2356   -6.0421   -3.2227 H         1 <0>         0.1630
     39 H10         3.6522   -5.0346   -2.8396 H         1 <0>         0.1612
     40 H11         7.0798   -8.0558   -1.7969 H         1 <0>         0.1542
     41 H12         6.0823  -10.2714   -2.1936 H         1 <0>         0.1538
     42 H13         3.6891  -10.4660   -2.7349 H         1 <0>         0.1528
     43 H14        -0.6499   -0.5749   -2.8787 H         1 <0>         0.4170
     44 H15         1.6522    2.3032   -5.6261 H         1 <0>         0.0594
     45 H16         1.6919    4.0292   -5.1933 H         1 <0>         0.0725
     46 H17         2.0349    2.7940   -3.9584 H         1 <0>         0.0882
     47 H18        -1.9408    3.2639   -5.4679 H         1 <0>         0.0679
     48 H19        -0.6297    4.3037   -6.0747 H         1 <0>         0.0828
     49 H20        -0.6694    2.5776   -6.5075 H         1 <0>         0.0671
     50 H21         0.2503    3.7574   -2.4991 H         1 <0>         0.0892
     51 H22        -0.0926    4.9926   -3.7340 H         1 <0>         0.0721
     52 H23        -1.4037    3.9529   -3.1271 H         1 <0>         0.0605
@<TRIPOS>BOND
     1    1    2 1
     2    1   31 1
     3    1   32 1
     4    1   33 1
     5    2    3 1
     6    2    4 1
     7    2   34 1
     8    3   35 1
     9    3   36 1
    10    3   37 1
    11    4    5 1
    12    4    6 1
    13    4   23 1
    14    6   10 1
    15    6    7 2
    16    7    8 1
    17    8    9 2
    18    9   10 1
    19    9   11 1
    20   11   12 2
    21   11   13 2
    22   11   14 1
    23   14   15 1
    24   14   38 1
    25   14   39 1
    26   15   20 ar
    27   15   16 ar
    28   16   17 ar
    29   16   22 1
    30   17   18 ar
    31   17   40 1
    32   18   19 ar
    33   18   41 1
    34   19   20 ar
    35   19   42 1
    36   20   21 1
    37   23   24 am
    38   23   43 1
    39   24   25 2
    40   24   26 1
    41   26   27 1
    42   27   28 1
    43   27   29 1
    44   27   30 1
    45   28   44 1
    46   28   45 1
    47   28   46 1
    48   29   47 1
    49   29   48 1
    50   29   49 1
    51   30   50 1
    52   30   51 1
    53   30   52 1
@<TRIPOS>MOLECULE
ZINC00466797
   38    39     0     0     0
SMALL
USER_CHARGES
ethyl [(4E)-4-[(4-dimethylaminophenyl)methylene]-5-oxo-thiazol-2-yl]sulfanylformate
@<TRIPOS>ATOM
      1 C1          7.3142    4.2027   12.1730 C.3       1 <0>        -0.1553
      2 C2          6.4007    3.8745   10.9904 C.3       1 <0>         0.0622
      3 O1          5.0321    4.2270   11.3236 O.3       1 <0>        -0.3408
      4 C3          4.0957    3.9995   10.3829 C.2       1 <0>         0.4242
      5 O2          4.4137    3.5194    9.3128 O.2       1 <0>        -0.4489
      6 S1          2.4096    4.3978   10.7036 S.3       1 <0>         0.2083
      7 C4          1.6824    3.9019    9.1772 C.2       1 <0>         0.0966
      8 N1          2.2738    3.3863    8.1277 N.2       1 <0>        -0.4098
      9 C5          1.5988    3.0503    7.0190 C.2       1 <0>        -0.1057
     10 C6          2.2237    2.5091    5.9180 C.2       1 <0>         0.1428
     11 C7          1.4259    1.9844    4.8072 C.ar      1 <0>        -0.1919
     12 C8          1.8095    2.2407    3.4829 C.ar      1 <0>        -0.0165
     13 C9          1.0619    1.7495    2.4508 C.ar      1 <0>        -0.2108
     14 C10        -0.0795    0.9953    2.7117 C.ar      1 <0>         0.2531
     15 C11        -0.4680    0.7428    4.0251 C.ar      1 <0>        -0.2043
     16 C12         0.2758    1.2245    5.0644 C.ar      1 <0>         0.0106
     17 N2         -0.8375    0.4974    1.6567 N.pl3     1 <0>        -0.6248
     18 C13        -0.4345    0.7666    0.2742 C.3       1 <0>         0.0855
     19 C14        -2.0386   -0.2962    1.9282 C.3       1 <0>         0.0848
     20 C15         0.1400    3.3033    7.0503 C.2       1 <0>         0.4001
     21 O3         -0.7045    3.1029    6.1960 O.2       1 <0>        -0.3728
     22 S2         -0.0342    3.9839    8.6943 S.3       1 <0>        -0.1246
     23 H1          8.3510    3.9357   11.9206 H         1 <0>         0.0846
     24 H2          6.9923    3.6296   13.0550 H         1 <0>         0.0697
     25 H3          7.2560    5.2788   12.3936 H         1 <0>         0.0697
     26 H4          6.7226    4.4476   10.1084 H         1 <0>         0.0751
     27 H5          6.4589    2.7984   10.7697 H         1 <0>         0.0751
     28 H6          3.3221    2.4707    5.8725 H         1 <0>         0.1586
     29 H7          2.6946    2.8251    3.2796 H         1 <0>         0.1305
     30 H8          1.3563    1.9466    1.4305 H         1 <0>         0.1291
     31 H9         -1.3564    0.1611    4.2221 H         1 <0>         0.1277
     32 H10        -0.0239    1.0244    6.0825 H         1 <0>         0.1196
     33 H11        -1.1508    0.2954   -0.4149 H         1 <0>         0.0787
     34 H12         0.5697    0.3537    0.0980 H         1 <0>         0.0602
     35 H13        -0.4198    1.8529    0.1015 H         1 <0>         0.0600
     36 H14        -2.5007   -0.5990    0.9770 H         1 <0>         0.0788
     37 H15        -2.7533    0.3068    2.5075 H         1 <0>         0.0607
     38 H16        -1.7636   -1.1923    2.5039 H         1 <0>         0.0601
@<TRIPOS>BOND
     1    1    2 1
     2    1   23 1
     3    1   24 1
     4    1   25 1
     5    2    3 1
     6    2   26 1
     7    2   27 1
     8    3    4 1
     9    4    5 2
    10    4    6 1
    11    6    7 1
    12    7   22 1
    13    7    8 2
    14    8    9 1
    15    9   10 2
    16    9   20 1
    17   10   11 1
    18   10   28 1
    19   11   16 ar
    20   11   12 ar
    21   12   13 ar
    22   12   29 1
    23   13   14 ar
    24   13   30 1
    25   14   15 ar
    26   14   17 1
    27   15   16 ar
    28   15   31 1
    29   16   32 1
    30   17   18 1
    31   17   19 1
    32   18   33 1
    33   18   34 1
    34   18   35 1
    35   19   36 1
    36   19   37 1
    37   19   38 1
    38   20   21 2
    39   20   22 1
@<TRIPOS>MOLECULE
ZINC00602632
   43    45     0     0     0
SMALL
USER_CHARGES
4-[6-amino-5-bromo-2-(4-cyanophenyl)amino-pyrimidin-4-yl]oxy-3,5-dimethyl-benzonitrile
@<TRIPOS>ATOM
      1 C1          2.3134    5.1441   -2.3257 C.3       1 <0>        -0.1194
      2 C2          2.1650    6.0648   -1.1419 C.ar      1 <0>        -0.0679
      3 C3          2.0573    7.4240   -1.3372 C.ar      1 <0>        -0.0684
      4 C4          1.9246    8.2774   -0.2384 C.ar      1 <0>        -0.0083
      5 C5          1.8968    7.7467    1.0542 C.ar      1 <0>        -0.0683
      6 C6          2.0002    6.3859    1.2402 C.ar      1 <0>        -0.0685
      7 C7          2.1316    5.5409    0.1448 C.ar      1 <0>         0.1103
      8 O1          2.2333    4.2001    0.3326 O.3       1 <0>        -0.2193
      9 C8          1.0899    3.4720    0.3545 C.ar      1 <0>         0.4551
     10 C9          1.1354    2.0957    0.5433 C.ar      1 <0>        -0.3292
     11 C10        -0.0649    1.3883    0.5582 C.ar      1 <0>         0.5268
     12 N1         -1.2073    2.0489    0.3872 N.ar      1 <0>        -0.6132
     13 C11        -1.2114    3.3619    0.2149 C.ar      1 <0>         0.6407
     14 N2         -0.0892    4.0653    0.1953 N.ar      1 <0>        -0.6238
     15 N3         -2.4211    4.0165    0.0458 N.pl3     1 <0>        -0.6282
     16 C12        -3.6023    3.2835   -0.0520 C.ar      1 <0>         0.1955
     17 C13        -3.5968    2.0375   -0.6717 C.ar      1 <0>        -0.1163
     18 C14        -4.7608    1.3086   -0.7658 C.ar      1 <0>        -0.0484
     19 C15        -5.9514    1.8260   -0.2470 C.ar      1 <0>        -0.0482
     20 C16        -5.9544    3.0804    0.3702 C.ar      1 <0>        -0.0454
     21 C17        -4.7857    3.8017    0.4651 C.ar      1 <0>        -0.1478
     22 C18        -7.1653    1.0730   -0.3480 C.1       1 <0>         0.2530
     23 N4         -8.1282    0.4756   -0.4280 N.1       1 <0>        -0.4174
     24 N5         -0.0686    0.0142    0.7430 N.pl3     1 <0>        -0.8164
     25 Br1         2.7871    1.2043    0.7739 Br        1 <0>        -0.0126
     26 C19         1.9704    5.8126    2.6336 C.3       1 <0>        -0.1138
     27 C20         1.8169    9.6915   -0.4365 C.1       1 <0>         0.2500
     28 N6          1.7314   10.8133   -0.5936 N.1       1 <0>        -0.4050
     29 H1          1.3270    4.8363   -2.6725 H         1 <0>         0.0752
     30 H2          2.8345    5.6656   -3.1285 H         1 <0>         0.0777
     31 H3          2.8861    4.2643   -2.0321 H         1 <0>         0.0754
     32 H4          2.0796    7.8301   -2.3377 H         1 <0>         0.1414
     33 H5          1.7940    8.4027    1.9060 H         1 <0>         0.1415
     34 H6         -2.4456    4.9849   -0.0044 H         1 <0>         0.4302
     35 H7         -2.6774    1.6403   -1.0759 H         1 <0>         0.1454
     36 H8         -4.7549    0.3397   -1.2429 H         1 <0>         0.1357
     37 H9         -6.8724    3.4832    0.7717 H         1 <0>         0.1377
     38 H10        -4.7872    4.7708    0.9417 H         1 <0>         0.1376
     39 H11         0.7683   -0.4613    0.8630 H         1 <0>         0.4184
     40 H12        -0.9081   -0.4717    0.7522 H         1 <0>         0.4158
     41 H13         2.9857    5.7595    3.0264 H         1 <0>         0.0828
     42 H14         1.3649    6.4515    3.2765 H         1 <0>         0.0752
     43 H15         1.5388    4.8120    2.6055 H         1 <0>         0.0644
@<TRIPOS>BOND
     1    1    2 1
     2    1   29 1
     3    1   30 1
     4    1   31 1
     5    2    7 ar
     6    2    3 ar
     7    3    4 ar
     8    3   32 1
     9    4    5 ar
    10    4   27 1
    11    5    6 ar
    12    5   33 1
    13    6    7 ar
    14    6   26 1
    15    7    8 1
    16    8    9 1
    17    9   14 ar
    18    9   10 ar
    19   10   11 ar
    20   10   25 1
    21   11   12 ar
    22   11   24 1
    23   12   13 ar
    24   13   14 ar
    25   13   15 1
    26   15   16 1
    27   15   34 1
    28   16   21 ar
    29   16   17 ar
    30   17   18 ar
    31   17   35 1
    32   18   19 ar
    33   18   36 1
    34   19   20 ar
    35   19   22 1
    36   20   21 ar
    37   20   37 1
    38   21   38 1
    39   22   23 3
    40   24   39 1
    41   24   40 1
    42   26   41 1
    43   26   42 1
    44   26   43 1
    45   27   28 3
@<TRIPOS>MOLECULE
ZINC12403599
   34    35     0     0     0
SMALL
USER_CHARGES

@<TRIPOS>ATOM
      1 C1         -0.0184    1.5028    0.0103 C.3       1 <0>        -0.1613
      2 C2          0.0021   -0.0041    0.0020 C.2       1 <0>         0.1495
      3 N1          0.0216   -0.6591    1.1227 N.2       1 <0>        -0.2022
      4 N2          0.0237    0.0348    2.3397 N.pl3     1 <0>        -0.5565
      5 C3          0.0443   -0.6555    3.5205 C.cat     1 <0>         0.5583
      6 N3          0.0463    0.0219    4.7085 N.pl3     1 <0>        -0.8134
      7 S1          0.0668   -2.3153    3.5114 S.3       1 <0>        -0.5239
      8 C4         -0.0001   -0.7339   -1.2781 C.ar      1 <0>        -0.0544
      9 C5         -0.0153   -0.0291   -2.4855 C.ar      1 <0>        -0.0858
     10 C6         -0.0169   -0.7123   -3.6804 C.ar      1 <0>        -0.1175
     11 C7         -0.0037   -2.1074   -3.6871 C.ar      1 <0>        -0.0223
     12 C8          0.0110   -2.8122   -2.4832 C.ar      1 <0>        -0.1157
     13 C9          0.0188   -2.1319   -1.2867 C.ar      1 <0>        -0.0665
     14 C10        -0.0059   -2.8418   -4.9752 C.ar      1 <0>        -0.0536
     15 C11        -0.0153   -2.1409   -6.1802 C.ar      1 <0>        -0.1079
     16 C12        -0.0173   -2.8297   -7.3760 C.ar      1 <0>        -0.1191
     17 C13        -0.0106   -4.2130   -7.3804 C.ar      1 <0>        -0.1153
     18 C14        -0.0012   -4.9139   -6.1878 C.ar      1 <0>        -0.1180
     19 C15         0.0072   -4.2357   -4.9859 C.ar      1 <0>        -0.1066
     20 H1          1.0042    1.8801    0.0026 H         1 <0>         0.0917
     21 H2         -0.5455    1.8639   -0.8728 H         1 <0>         0.0950
     22 H3         -0.5286    1.8543    0.9071 H         1 <0>         0.0675
     23 H4          0.0332    0.9918    4.7138 H         1 <0>         0.3932
     24 H5          0.0609   -0.4676    5.5458 H         1 <0>         0.4356
     25 H6         -0.0262    1.0508   -2.4806 H         1 <0>         0.1319
     26 H7         -0.0286   -0.1682   -4.6132 H         1 <0>         0.1315
     27 H8          0.0204   -3.8921   -2.4901 H         1 <0>         0.1322
     28 H9          0.0347   -2.6777   -0.3549 H         1 <0>         0.1445
     29 H10        -0.0213   -1.0609   -6.1779 H         1 <0>         0.1261
     30 H11        -0.0246   -2.2878   -8.3101 H         1 <0>         0.1250
     31 H12        -0.0129   -4.7479   -8.3186 H         1 <0>         0.1237
     32 H13         0.0040   -5.9938   -6.1973 H         1 <0>         0.1258
     33 H14         0.0190   -4.7838   -4.0554 H         1 <0>         0.1277
     34 H15         0.0105    1.0047    2.3451 H         1 <0>         0.3808
@<TRIPOS>BOND
     1    1    2 1
     2    1   20 1
     3    1   21 1
     4    1   22 1
     5    2    3 2
     6    2    8 1
     7    3    4 1
     8    4    5 2
     9    4   34 1
    10    5    6 1
    11    5    7 1
    12    6   23 1
    13    6   24 1
    14    8   13 ar
    15    8    9 ar
    16    9   10 ar
    17    9   25 1
    18   10   11 ar
    19   10   26 1
    20   11   12 ar
    21   11   14 1
    22   12   13 ar
    23   12   27 1
    24   13   28 1
    25   14   19 ar
    26   14   15 ar
    27   15   16 ar
    28   15   29 1
    29   16   17 ar
    30   16   30 1
    31   17   18 ar
    32   17   31 1
    33   18   19 ar
    34   18   32 1
    35   19   33 1
@<TRIPOS>MOLECULE
ZINC13553655
   36    38     0     0     0
SMALL
USER_CHARGES
1-[(3-methoxyphenyl)methyl]-5-methyl-indoline-2,3-dione
@<TRIPOS>ATOM
      1 C1          3.6694    2.2311   -0.0211 C.3       1 <0>        -0.1131
      2 C2          2.3873    1.4390   -0.0131 C.ar      1 <0>        -0.1214
      3 C3          1.1682    2.0962    0.0022 C.ar      1 <0>        -0.0431
      4 C4         -0.0168    1.3846    0.0097 C.ar      1 <0>        -0.1451
      5 C5          0.0021   -0.0041    0.0020 C.ar      1 <0>         0.1915
      6 C6          1.2395   -0.6680   -0.0134 C.ar      1 <0>        -0.2345
      7 C7          2.4293    0.0596   -0.0209 C.ar      1 <0>        -0.0055
      8 C8          0.9425   -2.1125   -0.0183 C.2       1 <0>         0.3906
      9 O1          1.7353   -3.0312   -0.0314 O.2       1 <0>        -0.3688
     10 C9         -0.5550   -2.1963   -0.0044 C.2       1 <0>         0.4917
     11 O2         -1.2165   -3.2132   -0.0032 O.2       1 <0>        -0.4417
     12 N1         -1.0305   -0.9390    0.0069 N.am      1 <0>        -0.5410
     13 C10        -2.4546   -0.5955    0.0232 C.3       1 <0>         0.1532
     14 C11        -2.9571   -0.4694   -1.3920 C.ar      1 <0>        -0.0828
     15 C12        -2.9117    0.7542   -2.0348 C.ar      1 <0>        -0.1372
     16 C13        -3.3667    0.8719   -3.3349 C.ar      1 <0>        -0.0802
     17 C14        -3.8785   -0.2309   -3.9914 C.ar      1 <0>        -0.1985
     18 C15        -3.9303   -1.4581   -3.3469 C.ar      1 <0>         0.1278
     19 C16        -3.4678   -1.5748   -2.0439 C.ar      1 <0>        -0.1290
     20 O3         -4.4337   -2.5441   -3.9904 O.3       1 <0>        -0.3154
     21 C17        -4.8914   -2.3500   -5.3301 C.3       1 <0>         0.0263
     22 H1          3.9686    2.4276   -1.0507 H         1 <0>         0.0737
     23 H2          3.5156    3.1764    0.4993 H         1 <0>         0.0707
     24 H3          4.4511    1.6622    0.4822 H         1 <0>         0.0701
     25 H4          1.1433    3.1759    0.0079 H         1 <0>         0.1393
     26 H5         -0.9602    1.9102    0.0170 H         1 <0>         0.1353
     27 H6          3.3792   -0.4541   -0.0331 H         1 <0>         0.1387
     28 H7         -3.0113   -1.3784    0.5380 H         1 <0>         0.1072
     29 H8         -2.5939    0.3519    0.5439 H         1 <0>         0.1056
     30 H9         -2.5164    1.6184   -1.5217 H         1 <0>         0.1252
     31 H10        -3.3258    1.8275   -3.8364 H         1 <0>         0.1289
     32 H11        -4.2382   -0.1374   -5.0055 H         1 <0>         0.1305
     33 H12        -3.5074   -2.5291   -1.5398 H         1 <0>         0.1353
     34 H13        -5.2673   -3.2935   -5.7259 H         1 <0>         0.1027
     35 H14        -5.6907   -1.6089   -5.3371 H         1 <0>         0.0569
     36 H15        -4.0655   -1.9996   -5.9490 H         1 <0>         0.0562
@<TRIPOS>BOND
     1    1    2 1
     2    1   22 1
     3    1   23 1
     4    1   24 1
     5    2    7 ar
     6    2    3 ar
     7    3    4 ar
     8    3   25 1
     9    4    5 ar
    10    4   26 1
    11    5   12 1
    12    5    6 ar
    13    6    7 ar
    14    6    8 1
    15    7   27 1
    16    8    9 2
    17    8   10 1
    18   10   11 2
    19   10   12 am
    20   12   13 1
    21   13   14 1
    22   13   28 1
    23   13   29 1
    24   14   19 ar
    25   14   15 ar
    26   15   16 ar
    27   15   30 1
    28   16   17 ar
    29   16   31 1
    30   17   18 ar
    31   17   32 1
    32   18   19 ar
    33   18   20 1
    34   19   33 1
    35   20   21 1
    36   21   34 1
    37   21   35 1
    38   21   36 1
@<TRIPOS>MOLECULE
ZINC00372044
   28    29     0     0     0
SMALL
USER_CHARGES

@<TRIPOS>ATOM
      1 C1         -0.0169    1.3927    0.0097 C.ar      1 <0>        -0.0845
      2 C2          1.1697    2.0954    0.0021 C.ar      1 <0>        -0.1072
      3 C3          2.3783    1.4193   -0.0130 C.ar      1 <0>        -0.0248
      4 C4          2.4040    0.0346   -0.0207 C.ar      1 <0>        -0.1061
      5 C5          1.2245   -0.6800   -0.0137 C.ar      1 <0>        -0.0792
      6 C6          0.0021   -0.0041    0.0020 C.ar      1 <0>        -0.0238
      7 C7         -1.2643   -0.7626    0.0105 C.2       1 <0>         0.0585
      8 C8         -1.3770   -2.1212    0.0098 C.2       1 <0>        -0.1901
      9 C9         -2.7461   -2.4205    0.0205 C.2       1 <0>        -0.1361
     10 C10        -3.4160   -1.2172    0.0273 C.2       1 <0>         0.0057
     11 O1         -2.5000   -0.2275    0.0261 O.3       1 <0>        -0.1493
     12 C11        -4.8700   -1.0428    0.0391 C.2       1 <0>         0.1819
     13 N1         -5.3819    0.1539    0.0446 N.2       1 <0>        -0.2759
     14 N2         -6.7729    0.3208    0.0560 N.pl3     1 <0>        -0.5366
     15 C12        -7.3030    1.5599    0.0617 C.2       1 <0>         0.6024
     16 S1         -9.0028    1.7638    0.0756 S.2       1 <0>        -0.6097
     17 N3         -6.4949    2.6385    0.0565 N.pl3     1 <0>        -0.7823
     18 Cl1         3.8675    2.3113   -0.0230 Cl        1 <0>        -0.0593
     19 H1         -0.9587    1.9211    0.0260 H         1 <0>         0.1389
     20 H2          1.1564    3.1753    0.0077 H         1 <0>         0.1409
     21 H3          3.3497   -0.4868   -0.0325 H         1 <0>         0.1434
     22 H4          1.2458   -1.7597   -0.0205 H         1 <0>         0.1415
     23 H5         -0.5645   -2.8326    0.0019 H         1 <0>         0.1622
     24 H6         -3.1902   -3.4050    0.0229 H         1 <0>         0.1661
     25 H7         -5.5176   -1.9071    0.0433 H         1 <0>         0.1598
     26 H8         -7.3545   -0.4556    0.0598 H         1 <0>         0.4208
     27 H9         -5.5319    2.5230    0.0486 H         1 <0>         0.4094
     28 H10        -6.8764    3.5304    0.0606 H         1 <0>         0.4334
@<TRIPOS>BOND
     1    1    6 ar
     2    1    2 ar
     3    1   19 1
     4    2    3 ar
     5    2   20 1
     6    3    4 ar
     7    3   18 1
     8    4    5 ar
     9    4   21 1
    10    5    6 ar
    11    5   22 1
    12    6    7 1
    13    7   11 1
    14    7    8 2
    15    8    9 1
    16    8   23 1
    17    9   10 2
    18    9   24 1
    19   10   11 1
    20   10   12 1
    21   12   13 2
    22   12   25 1
    23   13   14 1
    24   14   15 1
    25   14   26 1
    26   15   16 2
    27   15   17 1
    28   17   27 1
    29   17   28 1
@<TRIPOS>MOLECULE
ZINC00344779
   28    29     0     0     0
SMALL
USER_CHARGES

@<TRIPOS>ATOM
      1 C1         -0.0167    1.3792    0.0096 C.ar      1 <0>        -0.1023
      2 C2          1.1664    2.0886    0.0021 C.ar      1 <0>        -0.0932
      3 C3          2.3858    1.4076   -0.0131 C.ar      1 <0>        -0.0143
      4 C4          2.3984    0.0108   -0.0207 C.ar      1 <0>        -0.0853
      5 C5          1.2073   -0.6866   -0.0131 C.ar      1 <0>        -0.0324
      6 C6          0.0021   -0.0041    0.0020 C.ar      1 <0>        -0.0978
      7 Cl1         1.2198   -2.4225   -0.0224 Cl        1 <0>        -0.0569
      8 C7          3.6555    2.1606   -0.0217 C.2       1 <0>         0.0586
      9 C8          4.9039    1.6135   -0.0420 C.2       1 <0>        -0.1893
     10 C9          5.8186    2.6753   -0.0434 C.2       1 <0>        -0.1355
     11 C10         5.0790    3.8370   -0.0236 C.2       1 <0>         0.0060
     12 O1          3.7728    3.5022   -0.0166 O.3       1 <0>        -0.1485
     13 C11         5.6175    5.1989   -0.0169 C.2       1 <0>         0.1823
     14 N1          4.8087    6.2185    0.0024 N.2       1 <0>        -0.2760
     15 N2          5.3238    7.5213    0.0088 N.pl3     1 <0>        -0.5365
     16 C12         4.4863    8.5770    0.0287 C.2       1 <0>         0.6024
     17 S1          5.1158   10.1691    0.0366 S.2       1 <0>        -0.6096
     18 N3          3.1531    8.3794    0.0424 N.pl3     1 <0>        -0.7824
     19 H1         -0.9599    1.9049    0.0260 H         1 <0>         0.1405
     20 H2          1.1498    3.1685    0.0077 H         1 <0>         0.1361
     21 H3          3.3377   -0.5221   -0.0328 H         1 <0>         0.1421
     22 H4         -0.9272   -0.5543    0.0079 H         1 <0>         0.1399
     23 H5          5.1430    0.5604   -0.0543 H         1 <0>         0.1621
     24 H6          6.8957    2.5975   -0.0572 H         1 <0>         0.1664
     25 H7          6.6858    5.3573   -0.0278 H         1 <0>         0.1599
     26 H8          6.2833    7.6635   -0.0011 H         1 <0>         0.4209
     27 H9          2.7965    7.4774    0.0380 H         1 <0>         0.4094
     28 H10         2.5503    9.1392    0.0568 H         1 <0>         0.4333
@<TRIPOS>BOND
     1    1    6 ar
     2    1    2 ar
     3    1   19 1
     4    2    3 ar
     5    2   20 1
     6    3    4 ar
     7    3    8 1
     8    4    5 ar
     9    4   21 1
    10    5    6 ar
    11    5    7 1
    12    6   22 1
    13    8   12 1
    14    8    9 2
    15    9   10 1
    16    9   23 1
    17   10   11 2
    18   10   24 1
    19   11   12 1
    20   11   13 1
    21   13   14 2
    22   13   25 1
    23   14   15 1
    24   15   16 1
    25   15   26 1
    26   16   17 2
    27   16   18 1
    28   18   27 1
    29   18   28 1
@<TRIPOS>MOLECULE
ZINC13474221
   27    27     0     0     0
SMALL
USER_CHARGES

@<TRIPOS>ATOM
      1 C1         -0.0184    1.5028    0.0103 C.3       1 <0>        -0.1604
      2 C2          0.0021   -0.0041    0.0020 C.2       1 <0>         0.1447
      3 N1          0.0216   -0.6588    1.1221 N.2       1 <0>        -0.1965
      4 N2          0.0237    0.0351    2.3392 N.pl3     1 <0>        -0.5557
      5 C3          0.0443   -0.6552    3.5200 C.cat     1 <0>         0.5563
      6 N3          0.0463    0.0221    4.7080 N.pl3     1 <0>        -0.8120
      7 S1          0.0668   -2.3150    3.5109 S.3       1 <0>        -0.5173
      8 C4         -0.0001   -0.7345   -1.2792 C.ar      1 <0>        -0.0510
      9 C5         -0.0153   -0.0328   -2.4871 C.ar      1 <0>        -0.0601
     10 C6         -0.0174   -0.7224   -3.6814 C.ar      1 <0>        -0.1224
     11 C7         -0.0043   -2.1063   -3.6852 C.ar      1 <0>        -0.0539
     12 C8          0.0108   -2.8078   -2.4928 C.ar      1 <0>        -0.1849
     13 C9          0.0188   -2.1310   -1.2907 C.ar      1 <0>        -0.0247
     14 C10         0.0244   -4.3146   -2.5073 C.3       1 <0>         0.5087
     15 F1          0.0188   -4.7684   -3.8307 F         1 <0>        -0.1770
     16 F2          1.1757   -4.7768   -1.8607 F         1 <0>        -0.1726
     17 F3         -1.1087   -4.7976   -1.8440 F         1 <0>        -0.1725
     18 H1          1.0042    1.8801    0.0026 H         1 <0>         0.0936
     19 H2         -0.5455    1.8639   -0.8728 H         1 <0>         0.0957
     20 H3         -0.5286    1.8543    0.9071 H         1 <0>         0.0699
     21 H4          0.0332    0.9920    4.7133 H         1 <0>         0.3935
     22 H5          0.0609   -0.4673    5.5453 H         1 <0>         0.4362
     23 H6         -0.0259    1.0472   -2.4857 H         1 <0>         0.1405
     24 H7         -0.0295   -0.1813   -4.6160 H         1 <0>         0.1430
     25 H8         -0.0063   -2.6412   -4.6234 H         1 <0>         0.1436
     26 H9          0.0351   -2.6798   -0.3606 H         1 <0>         0.1530
     27 H10         0.0105    1.0050    2.3446 H         1 <0>         0.3823
@<TRIPOS>BOND
     1    1    2 1
     2    1   18 1
     3    1   19 1
     4    1   20 1
     5    2    3 2
     6    2    8 1
     7    3    4 1
     8    4    5 2
     9    4   27 1
    10    5    6 1
    11    5    7 1
    12    6   21 1
    13    6   22 1
    14    8   13 ar
    15    8    9 ar
    16    9   10 ar
    17    9   23 1
    18   10   11 ar
    19   10   24 1
    20   11   12 ar
    21   11   25 1
    22   12   13 ar
    23   12   14 1
    24   13   26 1
    25   14   15 1
    26   14   16 1
    27   14   17 1
@<TRIPOS>MOLECULE
ZINC02813807
   29    31     0     0     0
SMALL
USER_CHARGES
5-chloro-1-[(4-chlorophenyl)methyl]indoline-2,3-dione
@<TRIPOS>ATOM
      1 C1          2.7430    0.1889   -2.0925 C.ar      1 <0>        -0.0821
      2 C2          3.1623    0.0492   -3.4021 C.ar      1 <0>        -0.1106
      3 C3          3.7590    1.1135   -4.0544 C.ar      1 <0>        -0.0238
      4 C4          3.9304    2.3187   -3.3971 C.ar      1 <0>        -0.1118
      5 C5          3.5056    2.4589   -2.0893 C.ar      1 <0>        -0.0864
      6 C6          2.9095    1.3952   -1.4381 C.ar      1 <0>        -0.1205
      7 C7          2.4465    1.5487   -0.0122 C.3       1 <0>         0.1517
      8 N1          1.0589    2.0182    0.0028 N.am      1 <0>        -0.5409
      9 C8          0.6845    3.3605    0.0127 C.ar      1 <0>         0.2025
     10 C9          1.4418    4.5246    0.0111 C.ar      1 <0>        -0.1385
     11 C10         0.8201    5.7591    0.0232 C.ar      1 <0>        -0.0309
     12 C11        -0.5625    5.8544    0.0363 C.ar      1 <0>        -0.0756
     13 C12        -1.3346    4.7094    0.0378 C.ar      1 <0>         0.0056
     14 C13        -0.7162    3.4592    0.0261 C.ar      1 <0>        -0.2273
     15 C14        -1.2361    2.0791    0.0185 C.2       1 <0>         0.3924
     16 O1         -2.3969    1.7253    0.0213 O.2       1 <0>        -0.3602
     17 C15        -0.0144    1.2089    0.0087 C.2       1 <0>         0.4947
     18 O2          0.0021   -0.0041    0.0020 O.2       1 <0>        -0.4370
     19 Cl1        -1.3242    7.4143    0.0515 Cl        1 <0>        -0.0492
     20 Cl2         4.2918    0.9368   -5.6971 Cl        1 <0>        -0.0625
     21 H1          2.2813   -0.6432   -1.5818 H         1 <0>         0.1375
     22 H2          3.0283   -0.8919   -3.9147 H         1 <0>         0.1378
     23 H3          4.3958    3.1500   -3.9058 H         1 <0>         0.1379
     24 H4          3.6390    3.3999   -1.5762 H         1 <0>         0.1333
     25 H5          3.0806    2.2725    0.4997 H         1 <0>         0.1068
     26 H6          2.5100    0.5865    0.4960 H         1 <0>         0.1099
     27 H7          2.5201    4.4651    0.0009 H         1 <0>         0.1452
     28 H8          1.4179    6.6585    0.0218 H         1 <0>         0.1515
     29 H9         -2.4121    4.7816    0.0484 H         1 <0>         0.1506
@<TRIPOS>BOND
     1    1    6 ar
     2    1    2 ar
     3    1   21 1
     4    2    3 ar
     5    2   22 1
     6    3    4 ar
     7    3   20 1
     8    4    5 ar
     9    4   23 1
    10    5    6 ar
    11    5   24 1
    12    6    7 1
    13    7    8 1
    14    7   25 1
    15    7   26 1
    16    8   17 am
    17    8    9 1
    18    9   14 ar
    19    9   10 ar
    20   10   11 ar
    21   10   27 1
    22   11   12 ar
    23   11   28 1
    24   12   13 ar
    25   12   19 1
    26   13   14 ar
    27   13   29 1
    28   14   15 1
    29   15   16 2
    30   15   17 1
    31   17   18 2
@<TRIPOS>MOLECULE
ZINC16155529
   23    24     0     0     0
SMALL
USER_CHARGES

@<TRIPOS>ATOM
      1 C1         -0.0166    1.3763    0.0096 C.ar      1 <0>        -0.1407
      2 C2          1.1722    2.0864    0.0021 C.ar      1 <0>        -0.0584
      3 C3          2.3847    1.4273   -0.0130 C.ar      1 <0>        -0.1347
      4 C4          2.4235    0.0372   -0.0212 C.ar      1 <0>         0.1655
      5 C5          1.2186   -0.6771   -0.0136 C.ar      1 <0>        -0.1110
      6 C6          0.0021   -0.0041    0.0020 C.ar      1 <0>        -0.0298
      7 C7          1.5836   -2.1129   -0.0253 C.2       1 <0>         0.1112
      8 N1          0.7721   -3.1434   -0.0238 N.2       1 <0>        -0.1814
      9 N2          1.2919   -4.4444   -0.0361 N.pl3     1 <0>        -0.5289
     10 C8          0.4581   -5.5033   -0.0347 C.2       1 <0>         0.5933
     11 S1          1.0932   -7.0930   -0.0497 S.2       1 <0>        -0.5826
     12 N3         -0.8758   -5.3106   -0.0214 N.pl3     1 <0>        -0.7815
     13 C9          3.0591   -2.1310   -0.0397 C.2       1 <0>         0.5399
     14 O1          3.7632   -3.1237   -0.0522 O.2       1 <0>        -0.4836
     15 N4          3.4878   -0.8573   -0.0367 N.am      1 <0>        -0.6432
     16 H1         -0.9594    1.9029    0.0259 H         1 <0>         0.1392
     17 H2          1.1503    3.1662    0.0077 H         1 <0>         0.1404
     18 H3          3.3052    1.9922   -0.0188 H         1 <0>         0.1379
     19 H4         -0.9245   -0.5589    0.0082 H         1 <0>         0.1384
     20 H5          2.2519   -4.5830   -0.0457 H         1 <0>         0.4378
     21 H6         -1.2357   -4.4099   -0.0129 H         1 <0>         0.4086
     22 H7         -1.4759   -6.0727   -0.0203 H         1 <0>         0.4353
     23 H8          4.4217   -0.5952   -0.0446 H         1 <0>         0.4283
@<TRIPOS>BOND
     1    1    6 ar
     2    1    2 ar
     3    1   16 1
     4    2    3 ar
     5    2   17 1
     6    3    4 ar
     7    3   18 1
     8    4   15 1
     9    4    5 ar
    10    5    6 ar
    11    5    7 1
    12    6   19 1
    13    7    8 2
    14    7   13 1
    15    8    9 1
    16    9   10 1
    17    9   20 1
    18   10   11 2
    19   10   12 1
    20   12   21 1
    21   12   22 1
    22   13   14 2
    23   13   15 am
    24   15   23 1
@<TRIPOS>MOLECULE
ZINC16155529
   23    24     0     0     0
SMALL
USER_CHARGES

@<TRIPOS>ATOM
      1 C1         -0.0166    1.3745    0.0096 C.ar      1 <0>        -0.0963
      2 C2          1.1716    2.0889    0.0021 C.ar      1 <0>        -0.0858
      3 C3          2.3849    1.4337   -0.0134 C.ar      1 <0>        -0.0941
      4 C4          2.4241    0.0441   -0.0212 C.ar      1 <0>         0.0785
      5 C5          1.2206   -0.6771   -0.0131 C.ar      1 <0>        -0.0260
      6 C6          0.0021   -0.0041    0.0020 C.ar      1 <0>        -0.0631
      7 C7          1.5978   -2.1045   -0.0245 C.2       1 <0>        -0.0928
      8 C8          2.9906   -2.1371   -0.0385 C.2       1 <0>         0.4200
      9 N1          3.4669   -0.8666   -0.0364 N.pl3     1 <0>        -0.5246
     10 H1          4.4074   -0.6293   -0.0448 H         1 <0>         0.4395
     11 O1          3.7468   -3.2561   -0.0515 O.3       1 <0>        -0.4534
     12 N2          0.7670   -3.1576   -0.0215 N.2       1 <0>         0.0330
     13 N3          1.2445   -4.3558   -0.0326 N.pl3     1 <0>        -0.3037
     14 C9          0.4019   -5.4240   -0.0296 C.2       1 <0>         0.4668
     15 N4         -0.8924   -5.2359   -0.0153 N.2       1 <0>        -0.6858
     16 S1          1.0541   -7.0608   -0.0448 S.3       1 <0>        -0.8225
     17 H2         -0.9602    1.8998    0.0259 H         1 <0>         0.1451
     18 H3          1.1467    3.1686    0.0081 H         1 <0>         0.1456
     19 H4          3.3045    2.0001   -0.0199 H         1 <0>         0.1408
     20 H5         -0.9243   -0.5592    0.0075 H         1 <0>         0.1487
     21 H6          3.9582   -3.5776   -0.9386 H         1 <0>         0.4392
     22 H7          2.2044   -4.4953   -0.0432 H         1 <0>         0.4163
     23 H8         -1.4932   -5.9975   -0.0131 H         1 <0>         0.3748
@<TRIPOS>BOND
     1    1    6 ar
     2    1    2 ar
     3    1   17 1
     4    2    3 ar
     5    2   18 1
     6    3    4 ar
     7    3   19 1
     8    4    9 1
     9    4    5 ar
    10    5    6 ar
    11    5    7 1
    12    6   20 1
    13    7    8 2
    14    7   12 1
    15    8    9 1
    16    8   11 1
    17    9   10 1
    18   11   21 1
    19   12   13 2
    20   13   14 1
    21   13   22 1
    22   14   15 2
    23   14   16 1
    24   15   23 1
@<TRIPOS>MOLECULE
ZINC16155529
   23    24     0     0     0
SMALL
USER_CHARGES

@<TRIPOS>ATOM
      1 C1         -0.0166    1.3745    0.0096 C.ar      1 <0>        -0.0953
      2 C2          1.1716    2.0889    0.0021 C.ar      1 <0>        -0.0852
      3 C3          2.3849    1.4337   -0.0134 C.ar      1 <0>        -0.0928
      4 C4          2.4241    0.0441   -0.0212 C.ar      1 <0>         0.0797
      5 C5          1.2206   -0.6771   -0.0131 C.ar      1 <0>        -0.0296
      6 C6          0.0021   -0.0041    0.0020 C.ar      1 <0>        -0.0654
      7 C7          1.5978   -2.1045   -0.0245 C.2       1 <0>        -0.0843
      8 C8          2.9906   -2.1371   -0.0385 C.2       1 <0>         0.4217
      9 N1          3.4669   -0.8666   -0.0364 N.pl3     1 <0>        -0.5246
     10 H1          4.4074   -0.6293   -0.0448 H         1 <0>         0.4402
     11 O1          3.7468   -3.2561   -0.0515 O.3       1 <0>        -0.4519
     12 N2          0.7670   -3.1576   -0.0215 N.2       1 <0>        -0.0135
     13 N3          1.2445   -4.3558   -0.0326 N.pl3     1 <0>        -0.3334
     14 C9          0.4019   -5.4240   -0.0296 C.2       1 <0>         0.4527
     15 N4         -0.8924   -5.2359   -0.0153 N.2       1 <0>        -0.6575
     16 S1          1.0541   -7.0608   -0.0448 S.3       1 <0>        -0.7097
     17 H2         -0.9602    1.8998    0.0259 H         1 <0>         0.1455
     18 H3          1.1467    3.1686    0.0081 H         1 <0>         0.1464
     19 H4          3.3045    2.0001   -0.0199 H         1 <0>         0.1415
     20 H5         -0.9243   -0.5592    0.0075 H         1 <0>         0.1465
     21 H6          3.9582   -3.5776   -0.9386 H         1 <0>         0.4394
     22 H7          2.2044   -4.4953   -0.0432 H         1 <0>         0.4030
     23 H8         -1.2515   -4.3349   -0.0069 H         1 <0>         0.3266
@<TRIPOS>BOND
     1    1    6 ar
     2    1    2 ar
     3    1   17 1
     4    2    3 ar
     5    2   18 1
     6    3    4 ar
     7    3   19 1
     8    4    9 1
     9    4    5 ar
    10    5    6 ar
    11    5    7 1
    12    6   20 1
    13    7    8 2
    14    7   12 1
    15    8    9 1
    16    8   11 1
    17    9   10 1
    18   11   21 1
    19   12   13 2
    20   13   14 1
    21   13   22 1
    22   14   15 2
    23   14   16 1
    24   15   23 1
@<TRIPOS>MOLECULE
ZINC16155529
   23    24     0     0     0
SMALL
USER_CHARGES

@<TRIPOS>ATOM
      1 C1         -0.0166    1.3747    0.0096 C.ar      1 <0>        -0.1151
      2 C2          1.1716    2.0888    0.0021 C.ar      1 <0>        -0.0938
      3 C3          2.3849    1.4333   -0.0130 C.ar      1 <0>        -0.1094
      4 C4          2.4239    0.0437   -0.0209 C.ar      1 <0>         0.0862
      5 C5          1.2204   -0.6770   -0.0133 C.ar      1 <0>        -0.0350
      6 C6          0.0021   -0.0041    0.0020 C.ar      1 <0>        -0.0643
      7 C7          1.5973   -2.1049   -0.0250 C.2       1 <0>        -0.0543
      8 C8          2.9931   -2.1368   -0.0388 C.2       1 <0>         0.3980
      9 N1          3.4675   -0.8667   -0.0362 N.pl3     1 <0>        -0.5617
     10 H1          4.4078   -0.6286   -0.0440 H         1 <0>         0.4265
     11 O1          3.7500   -3.2545   -0.0518 O.3       1 <0>        -0.4413
     12 N2          0.7685   -3.1559   -0.0226 N.2       1 <0>        -0.0326
     13 N3          1.2462   -4.3541   -0.0341 N.2       1 <0>        -0.3662
     14 C9          0.4117   -5.4124   -0.0315 C.cat     1 <0>         0.4906
     15 N4          0.9202   -6.6878   -0.0438 N.pl3     1 <0>        -0.7780
     16 S1         -1.2310   -5.1740   -0.0137 S.3       1 <0>        -0.5423
     17 H2         -0.9601    1.9000    0.0260 H         1 <0>         0.1363
     18 H3          1.1469    3.1685    0.0078 H         1 <0>         0.1367
     19 H4          3.3046    1.9995   -0.0191 H         1 <0>         0.1316
     20 H5         -0.9243   -0.5592    0.0083 H         1 <0>         0.1419
     21 H6          3.9620   -3.5757   -0.9390 H         1 <0>         0.4182
     22 H7          1.8801   -6.8271   -0.0542 H         1 <0>         0.4005
     23 H8          0.3196   -7.4494   -0.0420 H         1 <0>         0.4275
@<TRIPOS>BOND
     1    1    6 ar
     2    1    2 ar
     3    1   17 1
     4    2    3 ar
     5    2   18 1
     6    3    4 ar
     7    3   19 1
     8    4    9 1
     9    4    5 ar
    10    5    6 ar
    11    5    7 1
    12    6   20 1
    13    7    8 2
    14    7   12 1
    15    8    9 1
    16    8   11 1
    17    9   10 1
    18   11   21 1
    19   12   13 2
    20   13   14 1
    21   14   15 2
    22   14   16 1
    23   15   22 1
    24   15   23 1
@<TRIPOS>MOLECULE
ZINC02207043
   61    64     0     0     0
SMALL
USER_CHARGES
ethyl (4S)-5-cyano-4-(2-furyl)-6-[2-oxo-2-(p-tolylamino)ethyl]sulfanyl-2-phenyl-1,4-dihydropyridine-3-carboxylate
@<TRIPOS>ATOM
      1 C1         -2.7544   -2.7629   -2.2275 C.3       1 <0>        -0.1543
      2 C2         -2.7143   -1.3374   -2.7816 C.3       1 <0>         0.0639
      3 O1         -1.7681   -0.5646   -2.0403 O.3       1 <0>        -0.3455
      4 C3         -1.6104    0.7259   -2.4051 C.2       1 <0>         0.5190
      5 O2         -2.2601    1.1812   -3.3287 O.2       1 <0>        -0.5038
      6 C4         -0.6945    1.5449   -1.7176 C.2       1 <0>        -0.2437
      7 C5         -0.6446    2.8717   -2.0063 C.2       1 <0>         0.2969
      8 N1          0.2454    3.6989   -1.3595 N.pl3     1 <0>        -0.6410
      9 C6          1.3241    3.1644   -0.6924 C.2       1 <0>         0.1626
     10 C7          1.3483    1.8479   -0.3547 C.2       1 <0>        -0.1127
     11 C8          0.2048    0.9314   -0.6831 C.3       1 <0>         0.1355
     12 H1          0.6143   -0.0059   -1.0877 H         1 <0>         0.1210
     13 C9         -0.5912    0.6646    0.5683 C.2       1 <0>        -0.0050
     14 C10        -0.7896   -0.5402    1.1326 C.2       1 <0>        -0.1879
     15 C11        -1.5874   -0.3286    2.2805 C.2       1 <0>        -0.2116
     16 C12        -1.8288    0.9929    2.3490 C.2       1 <0>        -0.0439
     17 O3         -1.2182    1.5902    1.3126 O.3       1 <0>        -0.1698
     18 C13         2.4911    1.3226    0.3299 C.1       1 <0>         0.2537
     19 N2          3.3977    0.9058    0.8729 N.1       1 <0>        -0.3983
     20 S1          2.6883    4.1974   -0.2723 S.3       1 <0>         0.0511
     21 C14         2.1094    5.7732   -0.9489 C.3       1 <0>        -0.1861
     22 C15         3.1459    6.8382   -0.6990 C.2       1 <0>         0.5364
     23 O4          4.1747    6.5593   -0.1204 O.2       1 <0>        -0.4986
     24 N3          2.9296    8.1007   -1.1185 N.am      1 <0>        -0.6766
     25 C16         3.8471    9.1093   -0.8040 C.ar      1 <0>         0.1354
     26 C17         3.4019   10.3993   -0.5466 C.ar      1 <0>        -0.1365
     27 C18         4.3095   11.3914   -0.2313 C.ar      1 <0>        -0.1035
     28 C19         5.6613   11.1038   -0.1825 C.ar      1 <0>        -0.0953
     29 C20         6.1082    9.8216   -0.4439 C.ar      1 <0>        -0.1021
     30 C21         5.2052    8.8237   -0.7542 C.ar      1 <0>        -0.1161
     31 C22         6.6494   12.1902    0.1557 C.3       1 <0>        -0.1183
     32 C23        -1.5555    3.4324   -3.0246 C.ar      1 <0>        -0.0640
     33 C24        -1.0440    3.9333   -4.2238 C.ar      1 <0>        -0.0917
     34 C25        -1.9011    4.4498   -5.1730 C.ar      1 <0>        -0.1213
     35 C26        -3.2636    4.4839   -4.9342 C.ar      1 <0>        -0.0994
     36 C27        -3.7768    3.9946   -3.7459 C.ar      1 <0>        -0.1182
     37 C28        -2.9318    3.4695   -2.7904 C.ar      1 <0>        -0.0500
     38 H2         -3.4828   -3.3577   -2.7982 H         1 <0>         0.0785
     39 H3         -3.0517   -2.7365   -1.1688 H         1 <0>         0.0672
     40 H4         -1.7576   -3.2193   -2.3172 H         1 <0>         0.0668
     41 H5         -2.4170   -1.3638   -3.8403 H         1 <0>         0.0662
     42 H6         -3.7111   -0.8810   -2.6919 H         1 <0>         0.0653
     43 H7          0.0949    4.7884   -1.3754 H         1 <0>         0.4453
     44 H8         -0.4123   -1.4876    0.7767 H         1 <0>         0.1470
     45 H9         -1.9363   -1.0832    2.9699 H         1 <0>         0.1466
     46 H10        -2.4115    1.4898    3.1106 H         1 <0>         0.1998
     47 H11         1.9444    5.6689   -2.0314 H         1 <0>         0.1321
     48 H12         1.1660    6.0577   -0.4600 H         1 <0>         0.1282
     49 H13         2.0318    8.3382   -1.7081 H         1 <0>         0.4372
     50 H14         2.3467   10.6254   -0.5885 H         1 <0>         0.1263
     51 H15         3.9636   12.3938   -0.0266 H         1 <0>         0.1271
     52 H16         7.1646    9.6001   -0.4051 H         1 <0>         0.1264
     53 H17         5.5548    7.8223   -0.9576 H         1 <0>         0.1377
     54 H18         7.6681   11.7752    0.1462 H         1 <0>         0.0664
     55 H19         6.4259   12.5908    1.1555 H         1 <0>         0.0706
     56 H20         6.5754   12.9975   -0.5878 H         1 <0>         0.0707
     57 H21         0.0197    3.9117   -4.4094 H         1 <0>         0.1214
     58 H22        -1.5073    4.8331   -6.1028 H         1 <0>         0.1255
     59 H23        -3.9298    4.8939   -5.6789 H         1 <0>         0.1236
     60 H24        -4.8413    4.0236   -3.5663 H         1 <0>         0.1250
     61 H25        -3.3336    3.0884   -1.8632 H         1 <0>         0.1185
@<TRIPOS>BOND
     1    1    2 1
     2    1   38 1
     3    1   39 1
     4    1   40 1
     5    2    3 1
     6    2   41 1
     7    2   42 1
     8    3    4 1
     9    4    5 2
    10    4    6 1
    11    6   11 1
    12    6    7 2
    13    7    8 1
    14    7   32 1
    15    8    9 1
    16    8   43 1
    17    9   10 2
    18    9   20 1
    19   10   11 1
    20   10   18 1
    21   11   12 1
    22   11   13 1
    23   13   17 1
    24   13   14 2
    25   14   15 1
    26   14   44 1
    27   15   16 2
    28   15   45 1
    29   16   17 1
    30   16   46 1
    31   18   19 3
    32   20   21 1
    33   21   22 1
    34   21   47 1
    35   21   48 1
    36   22   23 2
    37   22   24 am
    38   24   25 1
    39   24   49 1
    40   25   30 ar
    41   25   26 ar
    42   26   27 ar
    43   26   50 1
    44   27   28 ar
    45   27   51 1
    46   28   29 ar
    47   28   31 1
    48   29   30 ar
    49   29   52 1
    50   30   53 1
    51   31   54 1
    52   31   55 1
    53   31   56 1
    54   32   37 ar
    55   32   33 ar
    56   33   34 ar
    57   33   57 1
    58   34   35 ar
    59   34   58 1
    60   35   36 ar
    61   35   59 1
    62   36   37 ar
    63   36   60 1
    64   37   61 1
@<TRIPOS>MOLECULE
ZINC02207044
   61    64     0     0     0
SMALL
USER_CHARGES

@<TRIPOS>ATOM
      1 C1         -2.9513    0.3896   -2.6155 C.3       1 <0>        -0.1525
      2 C2         -2.2780   -0.8341   -1.9908 C.3       1 <0>         0.0654
      3 O1         -1.1956   -1.2583   -2.8218 O.3       1 <0>        -0.3452
      4 C3         -0.4919   -2.3346   -2.4098 C.2       1 <0>         0.5191
      5 O2         -0.7910   -2.8968   -1.3721 O.2       1 <0>        -0.5022
      6 C4          0.5878   -2.8067   -3.1804 C.2       1 <0>        -0.2378
      7 C5          1.3700   -3.8022   -2.6866 C.2       1 <0>         0.2919
      8 N1          2.4282   -4.2927   -3.4176 N.pl3     1 <0>        -0.6282
      9 C6          2.5001   -4.0557   -4.7714 C.2       1 <0>         0.1607
     10 C7          1.7597   -3.0698   -5.3436 C.2       1 <0>        -0.1040
     11 C8          0.8441   -2.2025   -4.5312 C.3       1 <0>         0.1361
     12 H1         -0.1034   -2.0864   -5.0573 H         1 <0>         0.1219
     13 C9          1.4809   -0.8481   -4.3551 C.2       1 <0>        -0.0082
     14 C10         0.9732    0.3215   -4.7837 C.2       1 <0>        -0.1866
     15 C11         1.8916    1.3288   -4.4085 C.2       1 <0>        -0.2116
     16 C12         2.9056    0.7145   -3.7731 C.2       1 <0>        -0.0430
     17 O3          2.6486   -0.6033   -3.7386 O.3       1 <0>        -0.1701
     18 C13         1.8518   -2.8567   -6.7567 C.1       1 <0>         0.2535
     19 N2          1.9248   -2.6877   -7.8777 N.1       1 <0>        -0.3951
     20 S1          3.5636   -5.0404   -5.7734 S.3       1 <0>         0.0414
     21 C14         4.3274   -6.1943   -4.6005 C.3       1 <0>        -0.1777
     22 C15         5.2735   -7.1069   -5.3375 C.2       1 <0>         0.5361
     23 O4          5.4183   -6.9903   -6.5360 O.2       1 <0>        -0.4925
     24 N3          5.9588   -8.0526   -4.6647 N.am      1 <0>        -0.6675
     25 C16         6.9248   -8.8196   -5.3253 C.ar      1 <0>         0.1308
     26 C17         7.0170  -10.1835   -5.0807 C.ar      1 <0>        -0.1308
     27 C18         7.9717  -10.9378   -5.7344 C.ar      1 <0>        -0.1037
     28 C19         8.8351  -10.3363   -6.6315 C.ar      1 <0>        -0.0908
     29 C20         8.7462   -8.9783   -6.8769 C.ar      1 <0>        -0.1024
     30 C21         7.7897   -8.2196   -6.2312 C.ar      1 <0>        -0.1077
     31 C22         9.8755  -11.1624   -7.3429 C.3       1 <0>        -0.1167
     32 C23         1.0819   -4.3634   -1.3514 C.ar      1 <0>        -0.0680
     33 C24         0.6790   -5.6944   -1.2218 C.ar      1 <0>        -0.0914
     34 C25         0.4121   -6.2122    0.0284 C.ar      1 <0>        -0.1225
     35 C26         0.5422   -5.4161    1.1528 C.ar      1 <0>        -0.0980
     36 C27         0.9410   -4.0966    1.0318 C.ar      1 <0>        -0.1190
     37 C28         1.2168   -3.5674   -0.2118 C.ar      1 <0>        -0.0457
     38 H2         -2.2249    1.1972   -2.7064 H         1 <0>         0.0667
     39 H3         -3.3318    0.1302   -3.6034 H         1 <0>         0.0663
     40 H4         -3.7769    0.7132   -1.9816 H         1 <0>         0.0778
     41 H5         -1.8976   -0.5747   -1.0028 H         1 <0>         0.0648
     42 H6         -3.0044   -1.6417   -1.8999 H         1 <0>         0.0659
     43 H7          3.1242   -4.8057   -2.9779 H         1 <0>         0.4213
     44 H8          0.0428    0.4638   -5.3134 H         1 <0>         0.1474
     45 H9          1.7973    2.3881   -4.5964 H         1 <0>         0.1469
     46 H10         3.7767    1.1992   -3.3575 H         1 <0>         0.2000
     47 H11         4.8779   -5.6334   -3.8453 H         1 <0>         0.1275
     48 H12         3.5514   -6.7886   -4.1179 H         1 <0>         0.1289
     49 H13         5.7823   -8.2015   -3.7226 H         1 <0>         0.4131
     50 H14         6.3432  -10.6538   -4.3799 H         1 <0>         0.1270
     51 H15         8.0441  -11.9985   -5.5443 H         1 <0>         0.1284
     52 H16         9.4222   -8.5114   -7.5779 H         1 <0>         0.1279
     53 H17         7.7173   -7.1600   -6.4271 H         1 <0>         0.1280
     54 H18         9.4612  -11.5431   -8.2764 H         1 <0>         0.0724
     55 H19        10.7465  -10.5432   -7.5578 H         1 <0>         0.0679
     56 H20        10.1715  -11.9983   -6.7091 H         1 <0>         0.0677
     57 H21         0.5763   -6.3166   -2.0986 H         1 <0>         0.1216
     58 H22         0.1004   -7.2412    0.1301 H         1 <0>         0.1260
     59 H23         0.3312   -5.8264    2.1292 H         1 <0>         0.1242
     60 H24         1.0402   -3.4808    1.9134 H         1 <0>         0.1256
     61 H25         1.5319   -2.5385   -0.3044 H         1 <0>         0.1189
@<TRIPOS>BOND
     1    1    2 1
     2    1   38 1
     3    1   39 1
     4    1   40 1
     5    2    3 1
     6    2   41 1
     7    2   42 1
     8    3    4 1
     9    4    5 2
    10    4    6 1
    11    6   11 1
    12    6    7 2
    13    7    8 1
    14    7   32 1
    15    8    9 1
    16    8   43 1
    17    9   10 2
    18    9   20 1
    19   10   11 1
    20   10   18 1
    21   11   12 1
    22   11   13 1
    23   13   17 1
    24   13   14 2
    25   14   15 1
    26   14   44 1
    27   15   16 2
    28   15   45 1
    29   16   17 1
    30   16   46 1
    31   18   19 3
    32   20   21 1
    33   21   22 1
    34   21   47 1
    35   21   48 1
    36   22   23 2
    37   22   24 am
    38   24   25 1
    39   24   49 1
    40   25   30 ar
    41   25   26 ar
    42   26   27 ar
    43   26   50 1
    44   27   28 ar
    45   27   51 1
    46   28   29 ar
    47   28   31 1
    48   29   30 ar
    49   29   52 1
    50   30   53 1
    51   31   54 1
    52   31   55 1
    53   31   56 1
    54   32   37 ar
    55   32   33 ar
    56   33   34 ar
    57   33   57 1
    58   34   35 ar
    59   34   58 1
    60   35   36 ar
    61   35   59 1
    62   36   37 ar
    63   36   60 1
    64   37   61 1
@<TRIPOS>MOLECULE
ZINC00171938
   21    21     0     0     0
SMALL
USER_CHARGES

@<TRIPOS>ATOM
      1 C1         -0.0169    1.3926    0.0097 C.ar      1 <0>        -0.0709
      2 C2          1.1697    2.0959    0.0021 C.ar      1 <0>        -0.1034
      3 C3          2.3783    1.4209   -0.0130 C.ar      1 <0>        -0.0154
      4 C4          2.4047    0.0349   -0.0212 C.ar      1 <0>        -0.0368
      5 C5          1.2245   -0.6802   -0.0137 C.ar      1 <0>        -0.0547
      6 C6          0.0021   -0.0041    0.0020 C.ar      1 <0>        -0.0428
      7 C7         -1.2631   -0.7618    0.0100 C.2       1 <0>         0.1188
      8 N1         -1.2424   -2.0592    0.0029 N.2       1 <0>        -0.1922
      9 N2         -2.4443   -2.7791    0.0105 N.pl3     1 <0>        -0.5569
     10 C8         -2.4225   -4.1466    0.0029 C.cat     1 <0>         0.5568
     11 N3         -3.5957   -4.8492    0.0103 N.pl3     1 <0>        -0.8110
     12 S1         -0.9719   -4.9535   -0.0153 S.3       1 <0>        -0.5152
     13 Cl1         3.9252   -0.8026   -0.0413 Cl        1 <0>        -0.0370
     14 Cl2         3.8670    2.3138   -0.0224 Cl        1 <0>        -0.0404
     15 H1         -0.9588    1.9207    0.0260 H         1 <0>         0.1461
     16 H2          1.1558    3.1758    0.0077 H         1 <0>         0.1499
     17 H3          1.2458   -1.7600   -0.0205 H         1 <0>         0.1615
     18 H4         -2.2069   -0.2368    0.0219 H         1 <0>         0.1302
     19 H5         -4.4433   -4.3777    0.0210 H         1 <0>         0.3943
     20 H6         -3.5802   -5.8191    0.0050 H         1 <0>         0.4364
     21 H7         -3.2920   -2.3076    0.0211 H         1 <0>         0.3828
@<TRIPOS>BOND
     1    1    6 ar
     2    1    2 ar
     3    1   15 1
     4    2    3 ar
     5    2   16 1
     6    3    4 ar
     7    3   14 1
     8    4    5 ar
     9    4   13 1
    10    5    6 ar
    11    5   17 1
    12    6    7 1
    13    7    8 2
    14    7   18 1
    15    8    9 1
    16    9   10 2
    17    9   21 1
    18   10   11 1
    19   10   12 1
    20   11   19 1
    21   11   20 1
@<TRIPOS>MOLECULE
ZINC18007956
   24    25     0     0     0
SMALL
USER_CHARGES

@<TRIPOS>ATOM
      1 C1         -0.0167    1.3824    0.0096 C.ar      1 <0>        -0.0502
      2 C2          1.1609    2.1008    0.0023 C.ar      1 <0>        -0.0597
      3 C3          2.3808    1.4354   -0.0134 C.ar      1 <0>         0.0795
      4 C4          2.3981    0.0323   -0.0212 C.ar      1 <0>        -0.0375
      5 C5          1.2041   -0.6821   -0.0135 C.ar      1 <0>        -0.0293
      6 C6          0.0021   -0.0041    0.0020 C.ar      1 <0>        -0.0640
      7 Br1        -1.6243   -0.9689    0.0124 Br        1 <0>         0.0096
      8 C7          3.8219   -0.3602   -0.0374 C.2       1 <0>        -0.0085
      9 C8          4.5518    0.8301   -0.0383 C.2       1 <0>         0.4675
     10 N1          3.6932    1.8792   -0.0241 N.pl3     1 <0>        -0.4834
     11 H1          3.9607    2.8116   -0.0218 H         1 <0>         0.4544
     12 O1          5.8986    0.9218   -0.0508 O.3       1 <0>        -0.4442
     13 N2          4.3132   -1.6052   -0.0486 N.2       1 <0>        -0.0306
     14 N3          5.5890   -1.7950   -0.0624 N.pl3     1 <0>        -0.4044
     15 C9          6.0837   -3.0487   -0.0736 C.2       1 <0>         0.5067
     16 S1          7.7770   -3.3006   -0.0919 S.2       1 <0>        -0.4018
     17 N4          5.2454   -4.1040   -0.0705 N.pl3     1 <0>        -0.7487
     18 H2         -0.9620    1.9046    0.0260 H         1 <0>         0.1672
     19 H3          1.1348    3.1805    0.0083 H         1 <0>         0.1630
     20 H4          1.2179   -1.7620   -0.0197 H         1 <0>         0.1616
     21 H5          6.2825    0.9531   -0.9378 H         1 <0>         0.4528
     22 H6          4.2860   -3.9612   -0.0602 H         1 <0>         0.4159
     23 H7          5.6014   -5.0062   -0.0786 H         1 <0>         0.4509
     24 H8          6.1924   -1.0355   -0.0646 H         1 <0>         0.4334
@<TRIPOS>BOND
     1    1    6 ar
     2    1    2 ar
     3    1   18 1
     4    2    3 ar
     5    2   19 1
     6    3   10 1
     7    3    4 ar
     8    4    5 ar
     9    4    8 1
    10    5    6 ar
    11    5   20 1
    12    6    7 1
    13    8    9 2
    14    8   13 1
    15    9   10 1
    16    9   12 1
    17   10   11 1
    18   12   21 1
    19   13   14 2
    20   14   15 1
    21   14   24 1
    22   15   16 2
    23   15   17 1
    24   17   22 1
    25   17   23 1
@<TRIPOS>MOLECULE
ZINC18007956
   22    23     0     0     0
SMALL
USER_CHARGES

@<TRIPOS>ATOM
      1 C1          0.0484    1.3988    0.6352 C.ar      1 <0>        -0.0311
      2 C2          1.1943    2.1130    0.3594 C.ar      1 <0>        -0.1582
      3 C3          2.4048    1.4427    0.1562 C.ar      1 <0>         0.2382
      4 C4          2.4239    0.0353    0.2394 C.ar      1 <0>        -0.2582
      5 C5          1.2620   -0.6690    0.5181 C.ar      1 <0>        -0.0094
      6 C6          0.0767    0.0148    0.7151 C.ar      1 <0>        -0.1690
      7 Br1        -1.5106   -0.9402    1.0949 Br        1 <0>        -0.0708
      8 C7          3.8275   -0.3580   -0.0209 C.2       1 <0>         0.1171
      9 N1          4.3341   -1.5695   -0.0493 N.2       1 <0>        -0.2374
     10 N2          3.5584   -2.5954    0.0497 N.pl3     1 <0>        -0.4865
     11 C8          4.0854   -3.8326    0.1387 C.2       1 <0>         0.5913
     12 S1          3.0559   -5.1942    0.2701 S.2       1 <0>        -0.6292
     13 N3          5.4229   -3.9980    0.1242 N.pl3     1 <0>        -0.7784
     14 C9          4.5267    0.9221   -0.2418 C.2       1 <0>         0.4928
     15 O1          5.8447    1.0687   -0.5188 O.3       1 <0>        -0.6127
     16 N4          3.6563    1.8910   -0.1253 N.2       1 <0>        -0.6246
     17 H1         -0.8818    1.9235    0.7955 H         1 <0>         0.1288
     18 H2          1.1574    3.1907    0.2999 H         1 <0>         0.1313
     19 H3          1.2831   -1.7470    0.5806 H         1 <0>         0.1103
     20 H4          2.5957   -2.4764    0.0601 H         1 <0>         0.4103
     21 H5          6.0062   -3.2265    0.0498 H         1 <0>         0.4148
     22 H6          5.8022   -4.8884    0.1882 H         1 <0>         0.4305
@<TRIPOS>BOND
     1    1    6 ar
     2    1    2 ar
     3    1   17 1
     4    2    3 ar
     5    2   18 1
     6    3   16 1
     7    3    4 ar
     8    4    5 ar
     9    4    8 1
    10    5    6 ar
    11    5   19 1
    12    6    7 1
    13    8    9 2
    14    8   14 1
    15    9   10 1
    16   10   11 1
    17   10   20 1
    18   11   12 2
    19   11   13 1
    20   13   21 1
    21   13   22 1
    22   14   15 1
    23   14   16 2
@<TRIPOS>MOLECULE
ZINC18007956
   22    23     0     0     0
SMALL
USER_CHARGES

@<TRIPOS>ATOM
      1 C1         -0.0167    1.3823    0.0096 C.ar      1 <0>        -0.0363
      2 C2          1.1574    2.1037    0.0023 C.ar      1 <0>        -0.1569
      3 C3          2.3875    1.4383   -0.0130 C.ar      1 <0>         0.2232
      4 C4          2.3967    0.0284   -0.0206 C.ar      1 <0>        -0.1846
      5 C5          1.2063   -0.6831   -0.0127 C.ar      1 <0>         0.0038
      6 C6          0.0021   -0.0041    0.0020 C.ar      1 <0>        -0.1709
      7 Br1        -1.6242   -0.9690    0.0123 Br        1 <0>        -0.0775
      8 C7          3.8259   -0.3583   -0.0371 C.2       1 <0>         0.1012
      9 N1          4.3341   -1.5695   -0.0493 N.2       1 <0>        -0.2467
     10 N2          5.6137   -1.7319   -0.0630 N.pl3     1 <0>        -0.4701
     11 C8          6.1351   -2.9747   -0.0755 C.2       1 <0>         0.5894
     12 S1          7.8334   -3.1903   -0.0937 S.2       1 <0>        -0.6223
     13 N3          5.3195   -4.0477   -0.0738 N.pl3     1 <0>        -0.7858
     14 C9          4.5486    0.9277   -0.0375 C.2       1 <0>         0.4365
     15 O1          5.8946    1.0814   -0.0510 O.3       1 <0>        -0.6353
     16 N4          3.6677    1.8940   -0.0235 N.2       1 <0>        -0.6210
     17 H1         -0.9628    1.9030    0.0260 H         1 <0>         0.1269
     18 H2          1.1278    3.1833    0.0080 H         1 <0>         0.1299
     19 H3          1.2199   -1.7630   -0.0185 H         1 <0>         0.1214
     20 H4          6.2007   -0.9597   -0.0642 H         1 <0>         0.4367
     21 H5          4.3573   -3.9255   -0.0635 H         1 <0>         0.4092
     22 H6          5.6948   -4.9421   -0.0828 H         1 <0>         0.4292
@<TRIPOS>BOND
     1    1    6 ar
     2    1    2 ar
     3    1   17 1
     4    2    3 ar
     5    2   18 1
     6    3   16 1
     7    3    4 ar
     8    4    5 ar
     9    4    8 1
    10    5    6 ar
    11    5   19 1
    12    6    7 1
    13    8    9 2
    14    8   14 1
    15    9   10 1
    16   10   11 1
    17   10   20 1
    18   11   12 2
    19   11   13 1
    20   13   21 1
    21   13   22 1
    22   14   15 1
    23   14   16 2
@<TRIPOS>MOLECULE
ZINC01701550
   21    21     0     0     0
SMALL
USER_CHARGES

@<TRIPOS>ATOM
      1 C1         -0.0166    1.3764    0.0096 C.ar      1 <0>        -0.0757
      2 C2          1.1851    2.0881    0.0020 C.ar      1 <0>        -0.0320
      3 C3          2.3989    1.3971   -0.0133 C.ar      1 <0>        -0.0616
      4 C4          2.4036    0.0165   -0.0208 C.ar      1 <0>        -0.0284
      5 C5          1.2087   -0.6830   -0.0132 C.ar      1 <0>        -0.0840
      6 C6          0.0021   -0.0041    0.0020 C.ar      1 <0>        -0.0297
      7 Cl1        -1.4905   -0.8906    0.0121 Cl        1 <0>        -0.0485
      8 Cl2         3.9110   -0.8443   -0.0404 Cl        1 <0>        -0.0444
      9 C7          1.1726    3.5629    0.0095 C.2       1 <0>         0.1195
     10 N1          2.2907    4.2212    0.0024 N.2       1 <0>        -0.1903
     11 N2          2.2788    5.6222    0.0095 N.pl3     1 <0>        -0.5568
     12 C8          3.4575    6.3162    0.0020 C.cat     1 <0>         0.5569
     13 N3          3.4459    7.6836    0.0090 N.pl3     1 <0>        -0.8107
     14 S1          4.9021    5.4986   -0.0156 S.3       1 <0>        -0.5148
     15 H1         -0.9584    1.9048    0.0259 H         1 <0>         0.1470
     16 H2          3.3316    1.9415   -0.0197 H         1 <0>         0.1597
     17 H3          1.2179   -1.7630   -0.0190 H         1 <0>         0.1490
     18 H4          0.2328    4.0948    0.0210 H         1 <0>         0.1307
     19 H5          2.6018    8.1614    0.0193 H         1 <0>         0.3944
     20 H6          4.2817    8.1758    0.0037 H         1 <0>         0.4365
     21 H7          1.4347    6.1000    0.0198 H         1 <0>         0.3832
@<TRIPOS>BOND
     1    1    6 ar
     2    1    2 ar
     3    1   15 1
     4    2    3 ar
     5    2    9 1
     6    3    4 ar
     7    3   16 1
     8    4    5 ar
     9    4    8 1
    10    5    6 ar
    11    5   17 1
    12    6    7 1
    13    9   10 2
    14    9   18 1
    15   10   11 1
    16   11   12 2
    17   11   21 1
    18   12   13 1
    19   12   14 1
    20   13   19 1
    21   13   20 1
@<TRIPOS>MOLECULE
ZINC00270639
   30    31     0     0     0
SMALL
USER_CHARGES

@<TRIPOS>ATOM
      1 C1          0.0137    1.4716    0.5825 C.3       1 <0>        -0.1683
      2 C2          0.0186   -0.0318    0.2982 C.3       1 <0>         0.1246
      3 N1         -1.3526   -0.5442    0.3560 N.pl3     1 <0>        -0.6758
      4 C3         -1.5989   -1.8836    0.1310 C.ar      1 <0>         0.6386
      5 N2         -0.5907   -2.7099   -0.1330 N.ar      1 <0>        -0.5977
      6 C4         -0.8279   -3.9996   -0.3493 C.ar      1 <0>         0.5224
      7 N3         -2.0728   -4.4634   -0.3017 N.ar      1 <0>        -0.5932
      8 C5         -3.0804   -3.6369   -0.0378 C.ar      1 <0>         0.6387
      9 N4         -2.8425   -2.3483    0.1835 N.ar      1 <0>        -0.6340
     10 N5         -4.3743   -4.1189    0.0113 N.pl3     1 <0>        -0.6205
     11 C6         -4.6136   -5.4921   -0.0994 C.ar      1 <0>         0.1509
     12 C7         -3.7423   -6.4000    0.4885 C.ar      1 <0>        -0.1071
     13 C8         -3.9815   -7.7556    0.3773 C.ar      1 <0>        -0.1004
     14 C9         -5.0871   -8.2094   -0.3184 C.ar      1 <0>        -0.1292
     15 C10        -5.9563   -7.3082   -0.9053 C.ar      1 <0>        -0.1003
     16 C11        -5.7263   -5.9511   -0.7926 C.ar      1 <0>        -0.1385
     17 C12         0.2573   -4.8894   -0.6340 C.1       1 <0>         0.2830
     18 N6          1.1183   -5.5953   -0.8599 N.1       1 <0>        -0.3375
     19 H1          1.0339    1.8528    0.5394 H         1 <0>         0.0810
     20 H2         -0.5962    1.9805   -0.1639 H         1 <0>         0.0643
     21 H3         -0.4002    1.6523    1.5745 H         1 <0>         0.0643
     22 H4          0.4325   -0.2125   -0.6939 H         1 <0>         0.0749
     23 H5          0.6285   -0.5407    1.0445 H         1 <0>         0.0751
     24 H6         -2.0874    0.0577    0.5525 H         1 <0>         0.4206
     25 H7         -5.1168   -3.5046    0.1224 H         1 <0>         0.4293
     26 H8         -2.8784   -6.0463    1.0317 H         1 <0>         0.1290
     27 H9         -3.3041   -8.4621    0.8339 H         1 <0>         0.1265
     28 H10        -5.2718   -9.2701   -0.4039 H         1 <0>         0.1247
     29 H11        -6.8185   -7.6659   -1.4486 H         1 <0>         0.1279
     30 H12        -6.4084   -5.2476   -1.2467 H         1 <0>         0.1267
@<TRIPOS>BOND
     1    1    2 1
     2    1   19 1
     3    1   20 1
     4    1   21 1
     5    2    3 1
     6    2   22 1
     7    2   23 1
     8    3    4 1
     9    3   24 1
    10    4    9 ar
    11    4    5 ar
    12    5    6 ar
    13    6    7 ar
    14    6   17 1
    15    7    8 ar
    16    8    9 ar
    17    8   10 1
    18   10   11 1
    19   10   25 1
    20   11   16 ar
    21   11   12 ar
    22   12   13 ar
    23   12   26 1
    24   13   14 ar
    25   13   27 1
    26   14   15 ar
    27   14   28 1
    28   15   16 ar
    29   15   29 1
    30   16   30 1
    31   17   18 3
@<TRIPOS>MOLECULE
ZINC36379291
   32    34     0     0     0
SMALL
USER_CHARGES

@<TRIPOS>ATOM
      1 C1          0.2878    0.9295    0.1333 C.3       1 <0>        -0.1722
      2 C2          0.1896   -0.5791   -0.1024 C.3       1 <0>         0.1039
      3 N1         -1.2171   -0.9872   -0.0741 N.pl3     1 <0>        -0.4641
      4 C3         -1.8950   -1.4700    1.0041 C.2       1 <0>         0.2769
      5 N2         -3.1277   -1.7321    0.6754 N.2       1 <0>        -0.4645
      6 C4         -3.3196   -1.4356   -0.6301 C.ar      1 <0>        -0.0696
      7 C5         -2.0962   -0.9478   -1.1282 C.ar      1 <0>         0.3016
      8 N3         -2.0174   -0.5773   -2.3983 N.ar      1 <0>        -0.5018
      9 C6         -3.0751   -0.6605   -3.1921 C.ar      1 <0>         0.4627
     10 N4         -4.2500   -1.1115   -2.7641 N.ar      1 <0>        -0.5421
     11 C7         -4.4155   -1.5107   -1.5099 C.ar      1 <0>         0.5044
     12 N5         -5.6437   -1.9782   -1.0722 N.pl3     1 <0>        -0.6278
     13 C8         -6.6871   -2.1611   -1.9840 C.ar      1 <0>         0.2135
     14 C9         -6.4125   -2.5724   -3.2818 C.ar      1 <0>        -0.1634
     15 C10        -7.4468   -2.7533   -4.1824 C.ar      1 <0>         0.1557
     16 C11        -8.7552   -2.5241   -3.7910 C.ar      1 <0>        -0.2069
     17 C12        -9.0313   -2.1140   -2.4974 C.ar      1 <0>         0.1557
     18 C13        -8.0005   -1.9374   -1.5918 C.ar      1 <0>        -0.1919
     19 F1        -10.3086   -1.8907   -2.1182 F         1 <0>        -0.1256
     20 F2         -7.1803   -3.1533   -5.4450 F         1 <0>        -0.1248
     21 C14        -2.9482   -0.2500   -4.5581 C.1       1 <0>         0.2859
     22 N6         -2.8475    0.0757   -5.6418 N.1       1 <0>        -0.3467
     23 H1          1.3345    1.2331    0.1123 H         1 <0>         0.0835
     24 H2         -0.2590    1.4558   -0.6490 H         1 <0>         0.0658
     25 H3         -0.1420    1.1742    1.1046 H         1 <0>         0.0649
     26 H4          0.6195   -0.8238   -1.0737 H         1 <0>         0.1005
     27 H5          0.7365   -1.1054    0.6799 H         1 <0>         0.1057
     28 H6         -1.4723   -1.6142    1.9875 H         1 <0>         0.2314
     29 H7         -5.7797   -2.1786   -0.1330 H         1 <0>         0.4368
     30 H8         -5.3922   -2.7505   -3.5878 H         1 <0>         0.1529
     31 H9         -9.5614   -2.6651   -4.4956 H         1 <0>         0.1514
     32 H10        -8.2167   -1.6218   -0.5818 H         1 <0>         0.1480
@<TRIPOS>BOND
     1    1    2 1
     2    1   23 1
     3    1   24 1
     4    1   25 1
     5    2    3 1
     6    2   26 1
     7    2   27 1
     8    3    7 1
     9    3    4 1
    10    4    5 2
    11    4   28 1
    12    5    6 1
    13    6   11 ar
    14    6    7 ar
    15    7    8 ar
    16    8    9 ar
    17    9   10 ar
    18    9   21 1
    19   10   11 ar
    20   11   12 1
    21   12   13 1
    22   12   29 1
    23   13   18 ar
    24   13   14 ar
    25   14   15 ar
    26   14   30 1
    27   15   16 ar
    28   15   20 1
    29   16   17 ar
    30   16   31 1
    31   17   18 ar
    32   17   19 1
    33   18   32 1
    34   21   22 3
@<TRIPOS>MOLECULE
ZINC00141475
   32    33     0     0     0
SMALL
USER_CHARGES

@<TRIPOS>ATOM
      1 C1         -0.0187    1.5258    0.0104 C.3       1 <0>        -0.1544
      2 C2          0.0021   -0.0041    0.0020 C.3       1 <0>         0.0656
      3 O1          0.6932   -0.4774    1.1597 O.3       1 <0>        -0.2763
      4 C3          0.8015   -1.8184    1.3050 C.ar      1 <0>         0.5910
      5 N1          0.2819   -2.6290    0.3905 N.ar      1 <0>        -0.6133
      6 C4          0.3882   -3.9467    0.5322 C.ar      1 <0>         0.5279
      7 N2          1.0148   -4.4522    1.5897 N.ar      1 <0>        -0.5891
      8 C5          1.5345   -3.6396    2.5045 C.ar      1 <0>         0.6385
      9 N3          1.4315   -2.3223    2.3583 N.ar      1 <0>        -0.5957
     10 N4          2.1851   -4.1634    3.6033 N.pl3     1 <0>        -0.5559
     11 C6          2.7593   -3.2781    4.6256 C.3       1 <0>         0.1172
     12 C7          2.2151   -3.6904    5.9970 C.3       1 <0>        -0.1361
     13 C8          2.4934   -5.1779    6.2255 C.3       1 <0>        -0.1239
     14 C9          1.7775   -6.0031    5.1537 C.3       1 <0>        -0.1367
     15 C10         2.3114   -5.6170    3.7759 C.3       1 <0>         0.1177
     16 C11        -0.1726   -4.8208   -0.4537 C.1       1 <0>         0.2812
     17 N5         -0.6174   -5.5142   -1.2359 N.1       1 <0>        -0.3338
     18 H1          1.0039    1.9031    0.0027 H         1 <0>         0.0690
     19 H2         -0.5459    1.8868   -0.8726 H         1 <0>         0.0870
     20 H3         -0.5289    1.8773    0.9072 H         1 <0>         0.0689
     21 H4         -1.0205   -0.3814    0.0098 H         1 <0>         0.0767
     22 H5          0.5123   -0.3556   -0.8948 H         1 <0>         0.0769
     23 H6          3.8454   -3.3703    4.6207 H         1 <0>         0.0761
     24 H7          2.4772   -2.2463    4.4158 H         1 <0>         0.1048
     25 H8          2.7061   -3.1049    6.7743 H         1 <0>         0.0819
     26 H9          1.1404   -3.5120    6.0305 H         1 <0>         0.0681
     27 H10         3.5665   -5.3597    6.1672 H         1 <0>         0.0674
     28 H11         2.1291   -5.4683    7.2109 H         1 <0>         0.0690
     29 H12         1.9570   -7.0635    5.3308 H         1 <0>         0.0824
     30 H13         0.7069   -5.8029    5.1952 H         1 <0>         0.0681
     31 H14         1.7339   -6.1280    3.0056 H         1 <0>         0.1034
     32 H15         3.3602   -5.9042    3.7001 H         1 <0>         0.0763
@<TRIPOS>BOND
     1    1    2 1
     2    1   18 1
     3    1   19 1
     4    1   20 1
     5    2    3 1
     6    2   21 1
     7    2   22 1
     8    3    4 1
     9    4    9 ar
    10    4    5 ar
    11    5    6 ar
    12    6    7 ar
    13    6   16 1
    14    7    8 ar
    15    8    9 ar
    16    8   10 1
    17   10   15 1
    18   10   11 1
    19   11   12 1
    20   11   23 1
    21   11   24 1
    22   12   13 1
    23   12   25 1
    24   12   26 1
    25   13   14 1
    26   13   27 1
    27   13   28 1
    28   14   15 1
    29   14   29 1
    30   14   30 1
    31   15   31 1
    32   15   32 1
    33   16   17 3
@<TRIPOS>MOLECULE
ZINC00105000
   34    36     0     0     0
SMALL
USER_CHARGES

@<TRIPOS>ATOM
      1 C1         -0.0488    1.3194    0.0284 C.ar      1 <0>        -0.1154
      2 C2          0.3249    0.5215    1.0943 C.ar      1 <0>        -0.1056
      3 C3          1.5408   -0.1330    1.0759 C.ar      1 <0>        -0.1143
      4 C4          2.3888    0.0109   -0.0147 C.ar      1 <0>         0.1487
      5 C5          2.0104    0.8131   -1.0837 C.ar      1 <0>        -0.0989
      6 C6          0.7931    1.4648   -1.0590 C.ar      1 <0>        -0.1050
      7 N1          3.6216   -0.6504   -0.0363 N.pl3     1 <0>        -0.4769
      8 C7          3.6701   -2.0439    0.0794 C.ar      1 <0>         0.1492
      9 C8          4.2444   -2.6297    1.2003 C.ar      1 <0>        -0.0994
     10 C9          4.2902   -4.0055    1.3116 C.ar      1 <0>        -0.1075
     11 C10         3.7652   -4.7998    0.3087 C.ar      1 <0>        -0.1126
     12 C11         3.1932   -4.2198   -0.8088 C.ar      1 <0>        -0.1072
     13 C12         3.1390   -2.8446   -0.9237 C.ar      1 <0>        -0.1087
     14 C13         4.7926    0.0736   -0.1721 C.ar      1 <0>         0.6414
     15 N2          4.7577    1.4028   -0.1591 N.ar      1 <0>        -0.5883
     16 C14         5.8826    2.0984   -0.2891 C.ar      1 <0>         0.5237
     17 N3          7.0427    1.4650   -0.4322 N.ar      1 <0>        -0.6006
     18 C15         7.0772    0.1359   -0.4451 C.ar      1 <0>         0.6404
     19 N4          5.9527   -0.5593   -0.3100 N.ar      1 <0>        -0.6204
     20 N5          8.2816   -0.5219   -0.5936 N.pl3     1 <0>        -0.7949
     21 C16         5.8452    3.5298   -0.2757 C.1       1 <0>         0.2832
     22 N6          5.8154    4.6654   -0.2649 N.1       1 <0>        -0.3368
     23 H1         -1.0022    1.8265    0.0433 H         1 <0>         0.1270
     24 H2         -0.3348    0.4103    1.9422 H         1 <0>         0.1292
     25 H3          1.8322   -0.7557    1.9088 H         1 <0>         0.1248
     26 H4          2.6675    0.9270   -1.9332 H         1 <0>         0.1207
     27 H5          0.4983    2.0887   -1.8898 H         1 <0>         0.1286
     28 H6          4.6549   -2.0100    1.9837 H         1 <0>         0.1204
     29 H7          4.7369   -4.4616    2.1828 H         1 <0>         0.1284
     30 H8          3.8023   -5.8754    0.3982 H         1 <0>         0.1272
     31 H9          2.7844   -4.8429   -1.5905 H         1 <0>         0.1292
     32 H10         2.6881   -2.3922   -1.7946 H         1 <0>         0.1247
     33 H11         9.1028   -0.0145   -0.6885 H         1 <0>         0.4232
     34 H12         8.3067   -1.4915   -0.6030 H         1 <0>         0.4225
@<TRIPOS>BOND
     1    1    6 ar
     2    1    2 ar
     3    1   23 1
     4    2    3 ar
     5    2   24 1
     6    3    4 ar
     7    3   25 1
     8    4    5 ar
     9    4    7 1
    10    5    6 ar
    11    5   26 1
    12    6   27 1
    13    7    8 1
    14    7   14 1
    15    8   13 ar
    16    8    9 ar
    17    9   10 ar
    18    9   28 1
    19   10   11 ar
    20   10   29 1
    21   11   12 ar
    22   11   30 1
    23   12   13 ar
    24   12   31 1
    25   13   32 1
    26   14   19 ar
    27   14   15 ar
    28   15   16 ar
    29   16   17 ar
    30   16   21 1
    31   17   18 ar
    32   18   19 ar
    33   18   20 1
    34   20   33 1
    35   20   34 1
    36   21   22 3
@<TRIPOS>MOLECULE
ZINC20191037
   44    47     0     0     0
SMALL
USER_CHARGES

@<TRIPOS>ATOM
      1 C1         -0.0167    1.3836    0.0096 C.ar      1 <0>        -0.0575
      2 C2          1.1600    2.1001    0.0023 C.ar      1 <0>        -0.1349
      3 C3          2.3819    1.4339   -0.0130 C.ar      1 <0>         0.1654
      4 C4          2.4004    0.0296   -0.0206 C.ar      1 <0>        -0.1003
      5 C5          1.2020   -0.6825   -0.0133 C.ar      1 <0>        -0.0238
      6 C6          0.0021   -0.0041    0.0020 C.ar      1 <0>        -0.0729
      7 Cl1        -1.4914   -0.8890    0.0115 Cl        1 <0>        -0.0619
      8 C7          3.8164   -0.3696   -0.0368 C.ar      1 <0>         0.1740
      9 C8          4.5623    0.8160   -0.0379 C.ar      1 <0>        -0.0239
     10 N1          3.6879    1.8863   -0.0235 N.pl3     1 <0>        -0.5941
     11 H1          3.9524    2.8195   -0.0211 H         1 <0>         0.4191
     12 C9          5.9597    0.7144   -0.0527 C.ar      1 <0>         0.4506
     13 N2          6.5114   -0.4943   -0.0650 N.ar      1 <0>        -0.5565
     14 C10         5.7687   -1.5858   -0.0634 C.ar      1 <0>         0.3199
     15 N3          4.4538   -1.5398   -0.0497 N.ar      1 <0>        -0.5175
     16 N4          6.7512    1.8527   -0.0550 N.pl3     1 <0>        -0.7138
     17 C11         8.2110    1.7298   -0.0706 C.3       1 <0>         0.1330
     18 C12         8.8402    3.1245   -0.0699 C.3       1 <0>        -0.1305
     19 C13        10.3648    2.9961   -0.0862 C.3       1 <0>         0.0594
     20 N5         10.9689    4.3351   -0.0856 N.3       1 <0>        -0.5378
     21 C14        10.6712    5.0481   -1.3363 C.3       1 <0>         0.0136
     22 C15        11.2672    6.4566   -1.2688 C.3       1 <0>         0.0626
     23 O1         12.6725    6.3628   -1.0204 O.3       1 <0>        -0.3849
     24 C16        12.9985    5.6748    0.1902 C.3       1 <0>         0.0626
     25 C17        12.4200    4.2583    0.1375 C.3       1 <0>         0.0170
     26 H2         -0.9617    1.9062    0.0260 H         1 <0>         0.1442
     27 H3          1.1342    3.1798    0.0079 H         1 <0>         0.1387
     28 H4          1.2136   -1.7624   -0.0192 H         1 <0>         0.1438
     29 H5          6.2570   -2.5491   -0.0737 H         1 <0>         0.2026
     30 H6          6.3385    2.7305   -0.0463 H         1 <0>         0.4061
     31 H7          8.5390    1.1828    0.8133 H         1 <0>         0.0720
     32 H8          8.5208    1.1919   -0.9666 H         1 <0>         0.0697
     33 H9          8.5122    3.6715   -0.9538 H         1 <0>         0.0689
     34 H10         8.5305    3.6624    0.8260 H         1 <0>         0.0789
     35 H11        10.6928    2.4491    0.7976 H         1 <0>         0.0821
     36 H12        10.6745    2.4582   -0.9822 H         1 <0>         0.0411
     37 H13        11.1082    4.5078   -2.1761 H         1 <0>         0.0446
     38 H14         9.5914    5.1157   -1.4685 H         1 <0>         0.0873
     39 H15        11.0984    6.9691   -2.2159 H         1 <0>         0.0988
     40 H16        10.7916    7.0149   -0.4624 H         1 <0>         0.0601
     41 H17        14.0818    5.6217    0.2983 H         1 <0>         0.1001
     42 H18        12.5732    6.2103    1.0390 H         1 <0>         0.0607
     43 H19        12.6168    3.7494    1.0811 H         1 <0>         0.0885
     44 H20        12.8850    3.7054   -0.6788 H         1 <0>         0.0451
@<TRIPOS>BOND
     1    1    6 ar
     2    1    2 ar
     3    1   26 1
     4    2    3 ar
     5    2   27 1
     6    3   10 1
     7    3    4 ar
     8    4    5 ar
     9    4    8 1
    10    5    6 ar
    11    5   28 1
    12    6    7 1
    13    8   15 ar
    14    8    9 ar
    15    9   10 1
    16    9   12 ar
    17   10   11 1
    18   12   13 ar
    19   12   16 1
    20   13   14 ar
    21   14   15 ar
    22   14   29 1
    23   16   17 1
    24   16   30 1
    25   17   18 1
    26   17   31 1
    27   17   32 1
    28   18   19 1
    29   18   33 1
    30   18   34 1
    31   19   20 1
    32   19   35 1
    33   19   36 1
    34   20   25 1
    35   20   21 1
    36   21   22 1
    37   21   37 1
    38   21   38 1
    39   22   23 1
    40   22   39 1
    41   22   40 1
    42   23   24 1
    43   24   25 1
    44   24   41 1
    45   24   42 1
    46   25   43 1
    47   25   44 1
@<TRIPOS>MOLECULE
ZINC13474220
   24    24     0     0     0
SMALL
USER_CHARGES

@<TRIPOS>ATOM
      1 C1         -0.0184    1.5028    0.0103 C.3       1 <0>        -0.1604
      2 C2          0.0021   -0.0041    0.0020 C.2       1 <0>         0.1464
      3 N1          0.0216   -0.6588    1.1221 N.2       1 <0>        -0.1973
      4 N2          0.0237    0.0351    2.3392 N.pl3     1 <0>        -0.5562
      5 C3          0.0443   -0.6552    3.5200 C.cat     1 <0>         0.5568
      6 N3          0.0463    0.0221    4.7080 N.pl3     1 <0>        -0.8125
      7 S1          0.0668   -2.3150    3.5109 S.3       1 <0>        -0.5187
      8 C4         -0.0001   -0.7345   -1.2792 C.ar      1 <0>        -0.0462
      9 C5         -0.0153   -0.0327   -2.4871 C.ar      1 <0>        -0.0769
     10 C6         -0.0174   -0.7218   -3.6818 C.ar      1 <0>        -0.1171
     11 C7         -0.0043   -2.1055   -3.6864 C.ar      1 <0>        -0.0720
     12 C8          0.0108   -2.8080   -2.4936 C.ar      1 <0>        -0.0958
     13 C9          0.0188   -2.1309   -1.2906 C.ar      1 <0>        -0.0457
     14 Br1         0.0278   -4.6988   -2.5123 Br        1 <0>        -0.0389
     15 H1          1.0042    1.8801    0.0026 H         1 <0>         0.0930
     16 H2         -0.5455    1.8639   -0.8728 H         1 <0>         0.0956
     17 H3         -0.5286    1.8543    0.9071 H         1 <0>         0.0691
     18 H4          0.0332    0.9920    4.7133 H         1 <0>         0.3933
     19 H5          0.0609   -0.4673    5.5453 H         1 <0>         0.4359
     20 H6         -0.0259    1.0473   -2.4854 H         1 <0>         0.1369
     21 H7         -0.0295   -0.1802   -4.6160 H         1 <0>         0.1393
     22 H8         -0.0064   -2.6399   -4.6249 H         1 <0>         0.1374
     23 H9          0.0351   -2.6797   -0.3605 H         1 <0>         0.1524
     24 H10         0.0105    1.0050    2.3446 H         1 <0>         0.3817
@<TRIPOS>BOND
     1    1    2 1
     2    1   15 1
     3    1   16 1
     4    1   17 1
     5    2    3 2
     6    2    8 1
     7    3    4 1
     8    4    5 2
     9    4   24 1
    10    5    6 1
    11    5    7 1
    12    6   18 1
    13    6   19 1
    14    8   13 ar
    15    8    9 ar
    16    9   10 ar
    17    9   20 1
    18   10   11 ar
    19   10   21 1
    20   11   12 ar
    21   11   22 1
    22   12   13 ar
    23   12   14 1
    24   13   23 1
@<TRIPOS>MOLECULE
ZINC13556338
   21    21     0     0     0
SMALL
USER_CHARGES

@<TRIPOS>ATOM
      1 C1         -0.0184    1.5028    0.0103 C.3       1 <0>        -0.1595
      2 C2          0.0021   -0.0041    0.0020 C.2       1 <0>         0.1836
      3 N1          0.0216   -0.6604    1.1247 N.2       1 <0>        -0.1859
      4 N2          0.0237    0.0336    2.3418 N.pl3     1 <0>        -0.5534
      5 C3          0.0443   -0.6560    3.5214 C.cat     1 <0>         0.5573
      6 N3          0.0463    0.0215    4.7097 N.pl3     1 <0>        -0.8117
      7 S1          0.0668   -2.3158    3.5123 S.3       1 <0>        -0.5174
      8 C4         -0.0001   -0.7304   -1.2720 C.2       1 <0>        -0.1202
      9 C5          0.0107   -2.0957   -1.4978 C.2       1 <0>        -0.0971
     10 C6          0.0053   -2.5434   -2.7986 C.2       1 <0>        -0.1138
     11 C7         -0.0102   -1.6386   -3.8131 C.2       1 <0>        -0.1694
     12 S2         -0.0253   -0.0840   -2.9360 S.3       1 <0>         0.1536
     13 Br1        -0.0209   -1.9482   -5.6785 Br        1 <0>         0.0480
     14 H1          1.0042    1.8801    0.0026 H         1 <0>         0.0967
     15 H2         -0.5455    1.8639   -0.8728 H         1 <0>         0.0930
     16 H3         -0.5286    1.8543    0.9071 H         1 <0>         0.0749
     17 H4          0.0332    0.9914    4.7151 H         1 <0>         0.3939
     18 H5          0.0609   -0.4679    5.5471 H         1 <0>         0.4364
     19 H6          0.0233   -2.7927   -0.6729 H         1 <0>         0.1584
     20 H7          0.0137   -3.6022   -3.0115 H         1 <0>         0.1499
     21 H8          0.0106    1.0034    2.3472 H         1 <0>         0.3829
@<TRIPOS>BOND
     1    1    2 1
     2    1   14 1
     3    1   15 1
     4    1   16 1
     5    2    3 2
     6    2    8 1
     7    3    4 1
     8    4    5 2
     9    4   21 1
    10    5    6 1
    11    5    7 1
    12    6   17 1
    13    6   18 1
    14    8   12 1
    15    8    9 2
    16    9   10 1
    17    9   19 1
    18   10   11 2
    19   10   20 1
    20   11   12 1
    21   11   13 1
@<TRIPOS>MOLECULE
ZINC00127708
   28    29     0     0     0
SMALL
USER_CHARGES

@<TRIPOS>ATOM
      1 C1         -0.0169    1.3927    0.0097 C.ar      1 <0>        -0.0893
      2 C2          1.1697    2.0954    0.0021 C.ar      1 <0>        -0.0868
      3 C3          2.3781    1.4194   -0.0135 C.ar      1 <0>        -0.0829
      4 C4          2.4039    0.0349   -0.0216 C.ar      1 <0>        -0.0882
      5 C5          1.2246   -0.6798   -0.0138 C.ar      1 <0>        -0.0883
      6 C6          0.0021   -0.0041    0.0020 C.ar      1 <0>        -0.0101
      7 C7         -1.2642   -0.7627    0.0105 C.2       1 <0>         0.0524
      8 C8         -1.3769   -2.1212    0.0098 C.2       1 <0>        -0.1889
      9 C9         -2.7460   -2.4207    0.0196 C.2       1 <0>        -0.1476
     10 C10        -3.4160   -1.2174    0.0259 C.2       1 <0>         0.0211
     11 O1         -2.5000   -0.2276    0.0261 O.3       1 <0>        -0.1403
     12 C11        -4.8700   -1.0430    0.0364 C.2       1 <0>         0.1467
     13 N1         -5.3820    0.1536    0.0416 N.2       1 <0>        -0.1847
     14 N2         -6.7730    0.3204    0.0517 N.pl3     1 <0>        -0.5562
     15 C12        -7.3107    1.5773    0.0572 C.cat     1 <0>         0.5563
     16 N3         -8.6688    1.7401    0.0670 N.pl3     1 <0>        -0.8110
     17 S1         -6.3155    2.9059    0.0519 S.3       1 <0>        -0.5128
     18 Br1         4.0003    2.3911   -0.0244 Br        1 <0>        -0.0431
     19 H1         -0.9586    1.9211    0.0260 H         1 <0>         0.1428
     20 H2          1.1565    3.1753    0.0081 H         1 <0>         0.1403
     21 H3          3.3498   -0.4863   -0.0345 H         1 <0>         0.1410
     22 H4          1.2461   -1.7596   -0.0205 H         1 <0>         0.1399
     23 H5         -0.5644   -2.8327    0.0024 H         1 <0>         0.1606
     24 H6         -3.1900   -3.4052    0.0212 H         1 <0>         0.1633
     25 H7         -5.5175   -1.9074    0.0399 H         1 <0>         0.1522
     26 H8         -9.2503    0.9638    0.0701 H         1 <0>         0.3942
     27 H9         -9.0503    2.6319    0.0709 H         1 <0>         0.4364
     28 H10        -7.3545   -0.4559    0.0548 H         1 <0>         0.3830
@<TRIPOS>BOND
     1    1    6 ar
     2    1    2 ar
     3    1   19 1
     4    2    3 ar
     5    2   20 1
     6    3    4 ar
     7    3   18 1
     8    4    5 ar
     9    4   21 1
    10    5    6 ar
    11    5   22 1
    12    6    7 1
    13    7   11 1
    14    7    8 2
    15    8    9 1
    16    8   23 1
    17    9   10 2
    18    9   24 1
    19   10   11 1
    20   10   12 1
    21   12   13 2
    22   12   25 1
    23   13   14 1
    24   14   15 2
    25   14   28 1
    26   15   16 1
    27   15   17 1
    28   16   26 1
    29   16   27 1
