@<TRIPOS>MOLECULE
ZINC04097225
   37    38     0     0     0
SMALL
USER_CHARGES

@<TRIPOS>ATOM
      1 C1         -0.2505    1.5436    0.1589 C.3       1 <0>        -0.1893
      2 C2         -0.2774    0.0139    0.1663 C.3       1 <0>         0.1182
      3 H1         -1.2998   -0.3308    0.3212 H         1 <0>         0.0666
      4 C3          0.6129   -0.5064    1.2966 C.3       1 <0>        -0.1568
      5 H2          1.6063   -0.0578    1.2875 H         1 <0>         0.1232
      6 C4          0.6398   -2.0319    1.3910 C.3       1 <0>         0.0828
      7 H3          0.0161   -2.5701    0.6773 H         1 <0>         0.1413
      8 C5          2.0322   -2.6362    1.6288 C.3       1 <0>        -0.0734
      9 C6          2.1182   -2.8140    3.1274 C.2       1 <0>        -0.2254
     10 C7          0.9859   -2.3369    3.6871 C.2       1 <0>         0.1626
     11 N1          0.0784   -1.8083    2.7329 N.am      1 <0>        -0.4934
     12 C8         -0.0517   -0.4562    2.6504 C.2       1 <0>         0.5298
     13 O1         -0.5063    0.4170    3.3593 O.2       1 <0>        -0.4168
     14 C9          0.7268   -2.3666    5.0727 C.2       1 <0>         0.4419
     15 O2          1.6673   -2.7889    5.9176 O.co2     1 <0>        -0.6531
     16 O3         -0.4585   -1.9724    5.5377 O.co2     1 <0>        -0.6620
     17 S1          3.4727   -3.5270    4.0001 S.3       1 <0>         0.0075
     18 C10         4.8431   -2.3774    3.6983 C.3       1 <0>        -0.1645
     19 C11         6.1279   -2.9449    4.3051 C.3       1 <0>         0.1134
     20 N2          7.2346   -2.0165    4.0614 N.pl3     1 <0>        -0.6601
     21 C12         8.4920   -2.3150    4.5164 C.cat     1 <0>         0.5130
     22 N3          9.4690   -1.4954    4.3012 N.pl3     1 <0>        -0.7419
     23 O4          0.2063   -0.4771   -1.0855 O.3       1 <0>        -0.5633
     24 H4          0.7719    1.8883    0.0040 H         1 <0>         0.0640
     25 H5         -0.8848    1.9142   -0.6464 H         1 <0>         0.0647
     26 H6         -0.6195    1.9181    1.1137 H         1 <0>         0.0748
     27 H7          2.1197   -3.5993    1.1259 H         1 <0>         0.0969
     28 H8          2.8075   -1.9532    1.2818 H         1 <0>         0.0778
     29 H9          4.9762   -2.2446    2.6246 H         1 <0>         0.0861
     30 H10         4.6182   -1.4152    4.1582 H         1 <0>         0.0934
     31 H11         5.9948   -3.0777    5.3788 H         1 <0>         0.1156
     32 H12         6.3528   -3.9071    3.8451 H         1 <0>         0.1111
     33 H13         7.0772   -1.1905    3.5779 H         1 <0>         0.4221
     34 H14         8.6672   -3.2347    5.0547 H         1 <0>         0.2340
     35 H15         9.3115   -0.6694    3.8177 H         1 <0>         0.4263
     36 H16        -0.3115   -0.1864   -1.8486 H         1 <0>         0.3828
     37 H17        10.3592   -1.7067    4.6233 H         1 <0>         0.4500
@<TRIPOS>BOND
     1    1    2 1
     2    1   24 1
     3    1   25 1
     4    1   26 1
     5    2    3 1
     6    2    4 1
     7    2   23 1
     8    4    5 1
     9    4   12 1
    10    4    6 1
    11    6    7 1
    12    6   11 1
    13    6    8 1
    14    8    9 1
    15    8   27 1
    16    8   28 1
    17    9   10 2
    18    9   17 1
    19   10   11 1
    20   10   14 1
    21   11   12 am
    22   12   13 2
    23   14   15 2
    24   14   16 1
    25   17   18 1
    26   18   19 1
    27   18   29 1
    28   18   30 1
    29   19   20 1
    30   19   31 1
    31   19   32 1
    32   20   21 1
    33   20   33 1
    34   21   22 2
    35   21   34 1
    36   22   35 1
    37   22   37 1
    38   23   36 1
@<TRIPOS>MOLECULE
ZINC00897244
   25    26     0     0     0
SMALL
USER_CHARGES

@<TRIPOS>ATOM
      1 C1         -0.0187    1.5258    0.0104 C.3       1 <0>        -0.1219
      2 C2          0.0021   -0.0041    0.0020 C.3       1 <0>        -0.4416
      3 C3          0.9183   -0.5578   -1.1267 C.3       1 <0>         0.0132
      4 H1          1.7655    0.1146   -1.2616 H         1 <0>         0.0850
      5 N1          1.4152   -1.8973   -0.7968 N.am      1 <0>        -0.4938
      6 C4          1.5639   -2.1961    0.6340 C.3       1 <0>        -0.3906
      7 H2          1.1313   -3.1348    0.9800 H         1 <0>         0.1773
      8 S1          0.9226   -0.6800    1.4567 S.o2      1 <0>         2.3341
      9 O1          2.0081    0.1818    1.7700 O.2       1 <0>        -0.9238
     10 O2         -0.0025   -1.0489    2.4704 O.2       1 <0>        -0.9249
     11 C5          3.0673   -2.2015    0.4210 C.3       1 <0>        -0.1782
     12 C6          2.7129   -2.1678   -1.0358 C.2       1 <0>         0.5110
     13 O3          3.3561   -2.3252   -2.0520 O.2       1 <0>        -0.4467
     14 C7          0.1332   -0.6267   -2.4112 C.2       1 <0>         0.5227
     15 O4          0.1177    0.3290   -3.1682 O.co2     1 <0>        -0.6824
     16 O5         -0.4864   -1.6381   -2.6935 O.co2     1 <0>        -0.6561
     17 C8         -1.4126   -0.5802   -0.0861 C.3       1 <0>        -0.1154
     18 H3          1.0039    1.9031    0.0027 H         1 <0>         0.0742
     19 H4         -0.5459    1.8868   -0.8726 H         1 <0>         0.0955
     20 H5         -0.5289    1.8773    0.9072 H         1 <0>         0.0686
     21 H6          3.5695   -1.3020    0.7768 H         1 <0>         0.1395
     22 H7          3.5574   -3.1223    0.7376 H         1 <0>         0.1229
     23 H8         -1.8843   -0.2455   -1.0100 H         1 <0>         0.0896
     24 H9         -1.3627   -1.6690   -0.0774 H         1 <0>         0.0746
     25 H10        -1.9986   -0.2365    0.7662 H         1 <0>         0.0671
@<TRIPOS>BOND
     1    1    2 1
     2    1   18 1
     3    1   19 1
     4    1   20 1
     5    2    8 1
     6    2    3 1
     7    2   17 1
     8    3    4 1
     9    3    5 1
    10    3   14 1
    11    5   12 am
    12    5    6 1
    13    6    7 1
    14    6    8 1
    15    6   11 1
    16    8    9 2
    17    8   10 2
    18   11   12 1
    19   11   21 1
    20   11   22 1
    21   12   13 2
    22   14   15 2
    23   14   16 1
    24   17   23 1
    25   17   24 1
    26   17   25 1
@<TRIPOS>MOLECULE
ZINC03787060
   31    33     0     0     0
SMALL
USER_CHARGES

@<TRIPOS>ATOM
      1 C1         -0.0187    1.5258    0.0104 C.3       1 <0>        -0.1186
      2 C2          0.0021   -0.0041    0.0020 C.3       1 <0>        -0.4655
      3 C3         -1.4146   -0.5970    0.2500 C.3       1 <0>         0.0201
      4 H1         -1.4407   -1.6244   -0.1133 H         1 <0>         0.0879
      5 N1         -1.7530   -0.5827    1.6766 N.am      1 <0>        -0.4910
      6 C4         -0.6219   -0.6803    2.6091 C.3       1 <0>        -0.3851
      7 H2         -0.5972    0.0495    3.4183 H         1 <0>         0.1818
      8 S1          0.8474   -0.6813    1.5011 S.o2      1 <0>         2.3298
      9 O1          1.7963    0.2643    1.9751 O.2       1 <0>        -0.9090
     10 O2          1.2489   -2.0213    1.2512 O.2       1 <0>        -0.9212
     11 C5         -1.1211   -2.0644    2.9842 C.3       1 <0>        -0.1786
     12 C6         -2.3389   -1.6771    2.1994 C.2       1 <0>         0.5126
     13 O3         -3.4416   -2.1674    2.0796 O.2       1 <0>        -0.4399
     14 C7         -2.4313    0.2197   -0.5052 C.2       1 <0>         0.5224
     15 O4         -2.7256   -0.0801   -1.6498 O.co2     1 <0>        -0.6803
     16 O5         -2.9595    1.1804    0.0283 O.co2     1 <0>        -0.6470
     17 C8          0.6227   -0.5460   -1.2872 C.3       1 <0>         0.1439
     18 N2          1.9493    0.0459   -1.4769 N.pl3     1 <0>        -0.3012
     19 C9          3.1037   -0.6368   -1.6565 C.2       1 <0>        -0.0548
     20 C10         4.0762    0.2952   -1.7894 C.2       1 <0>        -0.0512
     21 N3          3.4770    1.4867   -1.6860 N.2       1 <0>        -0.2713
     22 N4          2.2163    1.3047   -1.5068 N.2       1 <0>        -0.0636
     23 H3          1.0039    1.9031    0.0027 H         1 <0>         0.0884
     24 H4         -0.5459    1.8868   -0.8726 H         1 <0>         0.0922
     25 H5         -0.5289    1.8773    0.9072 H         1 <0>         0.0792
     26 H6         -0.5476   -2.8786    2.5411 H         1 <0>         0.1407
     27 H7         -1.3036   -2.1968    4.0507 H         1 <0>         0.1268
     28 H8          0.7149   -1.6299   -1.2184 H         1 <0>         0.1253
     29 H9         -0.0144   -0.2885   -2.1333 H         1 <0>         0.1421
     30 H10         3.2248   -1.7096   -1.6872 H         1 <0>         0.1939
     31 H11         5.1289    0.1127   -1.9476 H         1 <0>         0.1909
@<TRIPOS>BOND
     1    1    2 1
     2    1   23 1
     3    1   24 1
     4    1   25 1
     5    2    8 1
     6    2    3 1
     7    2   17 1
     8    3    4 1
     9    3    5 1
    10    3   14 1
    11    5   12 am
    12    5    6 1
    13    6    7 1
    14    6    8 1
    15    6   11 1
    16    8    9 2
    17    8   10 2
    18   11   12 1
    19   11   26 1
    20   11   27 1
    21   12   13 2
    22   14   15 2
    23   14   16 1
    24   17   18 1
    25   17   28 1
    26   17   29 1
    27   18   22 1
    28   18   19 1
    29   19   20 2
    30   19   30 1
    31   20   21 1
    32   20   31 1
    33   21   22 2
@<TRIPOS>MOLECULE
ZINC03830569
   22    23     0     0     0
SMALL
USER_CHARGES

@<TRIPOS>ATOM
      1 C1         -0.0184    1.5046    0.0103 C.3       1 <0>        -0.2401
      2 C2          1.5102    1.5017   -0.0043 C.3       1 <0>         0.2457
      3 H1          1.9714    1.8821   -0.9158 H         1 <0>         0.1677
      4 N1          1.3538    0.0351    0.0781 N.am      1 <0>        -0.5228
      5 C3          0.0021   -0.0041    0.0020 C.2       1 <0>         0.5093
      6 O1         -0.8356   -0.8795   -0.0500 O.2       1 <0>        -0.4571
      7 C4          1.9721   -0.3241    1.3791 C.3       1 <0>         0.0278
      8 H2          1.4071   -1.1156    1.8714 H         1 <0>         0.1025
      9 C5          1.8699    0.9816    2.1603 C.2       1 <0>         0.0499
     10 C6          1.6006    1.1484    3.4386 C.2       1 <0>        -0.1753
     11 C7          1.5456    2.5367    4.0222 C.3       1 <0>         0.1205
     12 O2          0.3937    2.6563    4.8593 O.3       1 <0>        -0.5722
     13 O3          2.1252    1.9564    1.2083 O.3       1 <0>        -0.2947
     14 C8          3.4112   -0.7316    1.1941 C.2       1 <0>         0.5203
     15 O4          4.0686   -0.2522    0.2861 O.co2     1 <0>        -0.6613
     16 O5          3.9179   -1.5407    1.9525 O.co2     1 <0>        -0.6816
     17 H3         -0.4393    1.9244    0.9240 H         1 <0>         0.1193
     18 H4         -0.4566    1.9341   -0.8906 H         1 <0>         0.1107
     19 H5          1.4192    0.2902    4.0687 H         1 <0>         0.1430
     20 H6          2.4439    2.7187    4.6122 H         1 <0>         0.0571
     21 H7          1.4862    3.2677    3.2159 H         1 <0>         0.0547
     22 H8          0.2942    3.5262    5.2696 H         1 <0>         0.3766
@<TRIPOS>BOND
     1    1    5 1
     2    1    2 1
     3    1   17 1
     4    1   18 1
     5    2    3 1
     6    2   13 1
     7    2    4 1
     8    4    5 am
     9    4    7 1
    10    5    6 2
    11    7    8 1
    12    7    9 1
    13    7   14 1
    14    9   10 2
    15    9   13 1
    16   10   11 1
    17   10   19 1
    18   11   12 1
    19   11   20 1
    20   11   21 1
    21   12   22 1
    22   14   15 2
    23   14   16 1
