@<TRIPOS>MOLECULE
ZINC01572556
   37    39     0     0     0
SMALL
USER_CHARGES

@<TRIPOS>ATOM
      1 C1         -0.0167    1.3781    0.0096 C.ar      1 <0>        -0.1021
      2 C2          1.1709    2.0855    0.0021 C.ar      1 <0>        -0.1116
      3 C3          2.3773    1.4107   -0.0130 C.ar      1 <0>        -0.1074
      4 C4          2.3960    0.0285   -0.0201 C.ar      1 <0>        -0.1062
      5 C5          1.2084   -0.6789   -0.0117 C.ar      1 <0>        -0.1069
      6 C6          0.0021   -0.0041    0.0020 C.ar      1 <0>        -0.1130
      7 C7          3.7112   -0.7071   -0.0376 C.3       1 <0>        -0.0112
      8 H1          4.5257    0.0172   -0.0425 H         1 <0>         0.1069
      9 C8          3.7915   -1.5603   -1.3031 C.3       1 <0>        -0.0144
     10 N1          5.1916   -1.6165   -1.7368 N.4       1 <0>        -0.5063
     11 C9          6.0187   -2.2475   -0.7081 C.3       1 <0>        -0.0089
     12 C10         5.1683   -3.3128   -0.0089 C.3       1 <0>        -0.1074
     13 C11         4.5156   -2.7482    1.2263 C.ar      1 <0>        -0.0936
     14 C12         3.8165   -1.5619    1.2015 C.ar      1 <0>        -0.0841
     15 C13         3.1852   -1.1114    2.3534 C.ar      1 <0>        -0.1103
     16 C14         3.2766   -1.8307    3.5311 C.ar      1 <0>         0.0980
     17 C15         4.0097   -3.0132    3.5615 C.ar      1 <0>         0.0987
     18 C16         4.6249   -3.4646    2.4096 C.ar      1 <0>        -0.1190
     19 O1          4.1218   -3.7189    4.7186 O.3       1 <0>        -0.4834
     20 O2          2.6533   -1.3843    4.6544 O.3       1 <0>        -0.4835
     21 H2         -0.9591    1.9053    0.0259 H         1 <0>         0.1302
     22 H3          1.1563    3.1654    0.0076 H         1 <0>         0.1307
     23 H4          3.3051    1.9634   -0.0196 H         1 <0>         0.1253
     24 H5          1.2231   -1.7588   -0.0176 H         1 <0>         0.1218
     25 H6         -0.9258   -0.5567    0.0082 H         1 <0>         0.1293
     26 H7          3.4334   -2.5674   -1.0894 H         1 <0>         0.1460
     27 H8          3.1827   -1.1105   -2.0875 H         1 <0>         0.1444
     28 H9          5.2555   -2.1506   -2.5905 H         1 <0>         0.4320
     29 H10         6.8888   -2.7145   -1.1695 H         1 <0>         0.1435
     30 H11         6.3413   -1.4994    0.0160 H         1 <0>         0.1353
     31 H12         4.3966   -3.6628   -0.6945 H         1 <0>         0.1021
     32 H13         5.8044   -4.1518    0.2729 H         1 <0>         0.1175
     33 H14         2.6187   -0.1922    2.3295 H         1 <0>         0.1410
     34 H15         5.1924   -4.3832    2.4301 H         1 <0>         0.1414
     35 H16         3.4269   -4.3793    4.8454 H         1 <0>         0.3971
     36 H17         1.7486   -1.7097    4.7579 H         1 <0>         0.3966
     37 H18         5.5265   -0.6799   -1.9063 H         1 <0>         0.4313
@<TRIPOS>BOND
     1    1    6 ar
     2    1    2 ar
     3    1   21 1
     4    2    3 ar
     5    2   22 1
     6    3    4 ar
     7    3   23 1
     8    4    5 ar
     9    4    7 1
    10    5    6 ar
    11    5   24 1
    12    6   25 1
    13    7    8 1
    14    7   14 1
    15    7    9 1
    16    9   10 1
    17    9   26 1
    18    9   27 1
    19   10   11 1
    20   10   28 1
    21   10   37 1
    22   11   12 1
    23   11   29 1
    24   11   30 1
    25   12   13 1
    26   12   31 1
    27   12   32 1
    28   13   18 ar
    29   13   14 ar
    30   14   15 ar
    31   15   16 ar
    32   15   33 1
    33   16   17 ar
    34   16   20 1
    35   17   18 ar
    36   17   19 1
    37   18   34 1
    38   19   35 1
    39   20   36 1
@<TRIPOS>MOLECULE
ZINC01996374
   37    39     0     0     0
SMALL
USER_CHARGES

@<TRIPOS>ATOM
      1 C1         -0.0167    1.3781    0.0096 C.ar      1 <0>        -0.1015
      2 C2          1.1709    2.0855    0.0021 C.ar      1 <0>        -0.1129
      3 C3          2.3773    1.4107   -0.0130 C.ar      1 <0>        -0.1085
      4 C4          2.3960    0.0285   -0.0201 C.ar      1 <0>        -0.1079
      5 C5          1.2084   -0.6789   -0.0117 C.ar      1 <0>        -0.1046
      6 C6          0.0021   -0.0041    0.0020 C.ar      1 <0>        -0.1114
      7 C7          3.7112   -0.7071   -0.0376 C.3       1 <0>        -0.0099
      8 H1          4.5257    0.0172   -0.0425 H         1 <0>         0.1065
      9 C8          3.8179   -1.5729    1.2175 C.3       1 <0>        -0.0152
     10 N1          5.2268   -1.6333    1.6211 N.4       1 <0>        -0.5063
     11 C9          6.0321   -2.2539    0.5690 C.3       1 <0>        -0.0080
     12 C10         5.1671   -3.3122   -0.1228 C.3       1 <0>        -0.1081
     13 C11         4.4887   -2.7354   -1.3383 C.ar      1 <0>        -0.0931
     14 C12         3.7905   -1.5495   -1.2871 C.ar      1 <0>        -0.0848
     15 C13         3.1351   -1.0876   -2.4209 C.ar      1 <0>        -0.1103
     16 C14         3.2017   -1.7951   -3.6074 C.ar      1 <0>         0.0976
     17 C15         3.9339   -2.9771   -3.6650 C.ar      1 <0>         0.0992
     18 C16         4.5731   -3.4399   -2.5308 C.ar      1 <0>        -0.1195
     19 O1          4.0217   -3.6712   -4.8311 O.3       1 <0>        -0.4837
     20 O2          2.5544   -1.3380   -4.7126 O.3       1 <0>        -0.4829
     21 H2         -0.9591    1.9053    0.0259 H         1 <0>         0.1303
     22 H3          1.1563    3.1654    0.0076 H         1 <0>         0.1303
     23 H4          3.3051    1.9634   -0.0196 H         1 <0>         0.1248
     24 H5          1.2231   -1.7588   -0.0176 H         1 <0>         0.1221
     25 H6         -0.9258   -0.5567    0.0082 H         1 <0>         0.1298
     26 H7          3.2258   -1.1310    2.0188 H         1 <0>         0.1448
     27 H8          3.4553   -2.5778    1.0012 H         1 <0>         0.1462
     28 H9          5.5652   -0.6983    1.7928 H         1 <0>         0.4310
     29 H10         6.3395   -1.4985   -0.1542 H         1 <0>         0.1347
     30 H11         6.9116   -2.7254    1.0074 H         1 <0>         0.1430
     31 H12         5.7971   -4.1483   -0.4262 H         1 <0>         0.1175
     32 H13         4.4099   -3.6692    0.5753 H         1 <0>         0.1026
     33 H14         2.5688   -0.1691   -2.3758 H         1 <0>         0.1411
     34 H15         5.1405   -4.3579   -2.5725 H         1 <0>         0.1414
     35 H16         4.7700   -3.4136   -5.3869 H         1 <0>         0.3970
     36 H17         3.0865   -0.7486   -5.2645 H         1 <0>         0.3962
     37 H18         5.3085   -2.1759    2.4679 H         1 <0>         0.4322
@<TRIPOS>BOND
     1    1    6 ar
     2    1    2 ar
     3    1   21 1
     4    2    3 ar
     5    2   22 1
     6    3    4 ar
     7    3   23 1
     8    4    5 ar
     9    4    7 1
    10    5    6 ar
    11    5   24 1
    12    6   25 1
    13    7    8 1
    14    7   14 1
    15    7    9 1
    16    9   10 1
    17    9   26 1
    18    9   27 1
    19   10   11 1
    20   10   28 1
    21   10   37 1
    22   11   12 1
    23   11   29 1
    24   11   30 1
    25   12   13 1
    26   12   31 1
    27   12   32 1
    28   13   18 ar
    29   13   14 ar
    30   14   15 ar
    31   15   16 ar
    32   15   33 1
    33   16   17 ar
    34   16   20 1
    35   17   18 ar
    36   17   19 1
    37   18   34 1
    38   19   35 1
    39   20   36 1
@<TRIPOS>MOLECULE
ZINC00033882
   23    23     0     0     0
SMALL
USER_CHARGES

@<TRIPOS>ATOM
      1 C1         -0.0167    1.3779    0.0096 C.ar      1 <0>        -0.1006
      2 C2          1.1696    2.0886    0.0021 C.ar      1 <0>        -0.1264
      3 C3          2.3802    1.4154   -0.0130 C.ar      1 <0>         0.0999
      4 C4          2.3990    0.0236   -0.0206 C.ar      1 <0>         0.0875
      5 C5          1.2071   -0.6822   -0.0130 C.ar      1 <0>        -0.1216
      6 C6          0.0021   -0.0041    0.0020 C.ar      1 <0>        -0.1052
      7 C7         -1.2936   -0.7736    0.0102 C.3       1 <0>        -0.1010
      8 C8         -1.7458   -1.0263   -1.4294 C.3       1 <0>        -0.0078
      9 N1         -3.0088   -1.7764   -1.4215 N.4       1 <0>        -0.6379
     10 O1          3.5850   -0.6417   -0.0359 O.3       1 <0>        -0.4857
     11 O2          3.5476    2.1129   -0.0209 O.3       1 <0>        -0.4857
     12 H1         -0.9598    1.9038    0.0259 H         1 <0>         0.1332
     13 H2          1.1522    3.1684    0.0077 H         1 <0>         0.1416
     14 H3          1.2190   -1.7621   -0.0189 H         1 <0>         0.1358
     15 H4         -1.1467   -1.7271    0.5175 H         1 <0>         0.0975
     16 H5         -2.0555   -0.1967    0.5344 H         1 <0>         0.0990
     17 H6         -1.8927   -0.0728   -1.9368 H         1 <0>         0.1365
     18 H7         -0.9839   -1.6032   -1.9536 H         1 <0>         0.1360
     19 H8         -2.8729   -2.6590   -0.9518 H         1 <0>         0.4357
     20 H9         -3.7141   -1.2424   -0.9362 H         1 <0>         0.4357
     21 H10         3.9367   -0.8389    0.8430 H         1 <0>         0.3958
     22 H11         3.8938    2.3101    0.8602 H         1 <0>         0.3975
     23 H12        -3.3071   -1.9430   -2.3709 H         1 <0>         0.4400
@<TRIPOS>BOND
     1    1    6 ar
     2    1    2 ar
     3    1   12 1
     4    2    3 ar
     5    2   13 1
     6    3    4 ar
     7    3   11 1
     8    4    5 ar
     9    4   10 1
    10    5    6 ar
    11    5   14 1
    12    6    7 1
    13    7    8 1
    14    7   15 1
    15    7   16 1
    16    8    9 1
    17    8   17 1
    18    8   18 1
    19    9   19 1
    20    9   20 1
    21    9   23 1
    22   10   21 1
    23   11   22 1
@<TRIPOS>MOLECULE
ZINC00044027
   41    43     0     0     0
SMALL
USER_CHARGES

@<TRIPOS>ATOM
      1 C1         -4.8538   -4.0638    0.9108 C.3       1 <0>        -0.0548
      2 N1         -4.6244   -2.8061    1.6344 N.4       1 <0>        -0.3863
      3 C2         -4.0000   -3.0949    2.9324 C.3       1 <0>        -0.0478
      4 C3         -3.7364   -1.9420    0.8453 C.3       1 <0>        -0.0093
      5 C4         -4.4383   -1.5396   -0.4533 C.3       1 <0>        -0.1865
      6 C5         -3.5134   -0.6397   -1.2752 C.3       1 <0>         0.1190
      7 N2         -4.1855   -0.2544   -2.5186 N.pl3     1 <0>        -0.5621
      8 C6         -4.9466    0.9115   -2.5039 C.ar      1 <0>         0.1833
      9 C7         -5.4466    1.3707   -1.2896 C.ar      1 <0>        -0.1632
     10 C8         -6.2007    2.5274   -1.2376 C.ar      1 <0>        -0.0789
     11 C9         -6.4648    3.2382   -2.3930 C.ar      1 <0>        -0.1269
     12 C10        -5.9746    2.7903   -3.6059 C.ar      1 <0>        -0.0533
     13 C11        -5.2180    1.6285   -3.6658 C.ar      1 <0>        -0.1513
     14 S1         -4.6102    1.0681   -5.2211 S.3       1 <0>         0.0418
     15 C12        -4.1728   -0.6126   -4.9268 C.ar      1 <0>        -0.1476
     16 C13        -4.0101   -1.0788   -3.6268 C.ar      1 <0>         0.2001
     17 C14        -3.6645   -2.4105   -3.4235 C.ar      1 <0>        -0.1605
     18 C15        -3.4778   -3.2563   -4.5018 C.ar      1 <0>         0.0017
     19 C16        -3.6338   -2.7836   -5.7916 C.ar      1 <0>        -0.1199
     20 C17        -3.9865   -1.4684   -6.0025 C.ar      1 <0>        -0.0415
     21 Cl1        -3.0468   -4.9167   -4.2348 Cl        1 <0>        -0.0547
     22 H1         -5.5127   -4.7049    1.4964 H         1 <0>         0.1270
     23 H2         -5.3171   -3.8495   -0.0523 H         1 <0>         0.1230
     24 H3         -3.9018   -4.5701    0.7514 H         1 <0>         0.1245
     25 H4         -3.0479   -3.6012    2.7730 H         1 <0>         0.1232
     26 H5         -3.8297   -2.1617    3.4693 H         1 <0>         0.1245
     27 H6         -4.6589   -3.7360    3.5180 H         1 <0>         0.1260
     28 H7         -3.4947   -1.0479    1.4199 H         1 <0>         0.1356
     29 H8         -2.8190   -2.4818    0.6102 H         1 <0>         0.1342
     30 H9         -4.6799   -2.4338   -1.0279 H         1 <0>         0.0966
     31 H10        -5.3556   -0.9999   -0.2183 H         1 <0>         0.0979
     32 H11        -3.2718    0.2545   -0.7007 H         1 <0>         0.0984
     33 H12        -2.5960   -1.1794   -1.5103 H         1 <0>         0.0962
     34 H13        -5.2447    0.8199   -0.3828 H         1 <0>         0.1245
     35 H14        -6.5853    2.8770   -0.2909 H         1 <0>         0.1332
     36 H15        -7.0538    4.1423   -2.3487 H         1 <0>         0.1374
     37 H16        -6.1810    3.3459   -4.5088 H         1 <0>         0.1390
     38 H17        -3.5416   -2.7862   -2.4184 H         1 <0>         0.1339
     39 H18        -3.4863   -3.4459   -6.6318 H         1 <0>         0.1476
     40 H19        -4.1082   -1.1006   -7.0106 H         1 <0>         0.1483
     41 H20        -5.5056   -2.3374    1.7820 H         1 <0>         0.4275
@<TRIPOS>BOND
     1    1    2 1
     2    1   22 1
     3    1   23 1
     4    1   24 1
     5    2    3 1
     6    2    4 1
     7    2   41 1
     8    3   25 1
     9    3   26 1
    10    3   27 1
    11    4    5 1
    12    4   28 1
    13    4   29 1
    14    5    6 1
    15    5   30 1
    16    5   31 1
    17    6    7 1
    18    6   32 1
    19    6   33 1
    20    7   16 1
    21    7    8 1
    22    8   13 ar
    23    8    9 ar
    24    9   10 ar
    25    9   34 1
    26   10   11 ar
    27   10   35 1
    28   11   12 ar
    29   11   36 1
    30   12   13 ar
    31   12   37 1
    32   13   14 1
    33   14   15 1
    34   15   20 ar
    35   15   16 ar
    36   16   17 ar
    37   17   18 ar
    38   17   38 1
    39   18   19 ar
    40   18   21 1
    41   19   20 ar
    42   19   39 1
    43   20   40 1
@<TRIPOS>MOLECULE
ZINC19203912
   57    60     0     0     0
SMALL
USER_CHARGES

@<TRIPOS>ATOM
      1 C1          3.4437   -4.9771    0.0368 C.ar      1 <0>        -0.0771
      2 C2          4.3861   -4.5771    0.9651 C.ar      1 <0>        -0.1269
      3 C3          4.2792   -3.3364    1.5664 C.ar      1 <0>        -0.0516
      4 C4          3.2267   -2.4926    1.2411 C.ar      1 <0>        -0.1551
      5 C5          2.2729   -2.8934    0.3097 C.ar      1 <0>         0.1852
      6 C6          2.3926   -4.1422   -0.2915 C.ar      1 <0>        -0.1628
      7 N1          1.1945   -2.0826   -0.0347 N.pl3     1 <0>        -0.5629
      8 C7          1.1709   -0.6955    0.0853 C.ar      1 <0>         0.1857
      9 C8          0.3025    0.0332   -0.7210 C.ar      1 <0>        -0.1188
     10 C9          0.2496    1.4106   -0.6236 C.ar      1 <0>        -0.1465
     11 C10         1.0603    2.0760    0.2765 C.ar      1 <0>        -0.0780
     12 C11         1.9293    1.3621    1.0812 C.ar      1 <0>        -0.0563
     13 C12         1.9888   -0.0211    0.9875 C.ar      1 <0>        -0.1199
     14 S1          3.1095   -0.9136    2.0128 S.3       1 <0>         0.0509
     15 C13        -0.6948    2.1899   -1.5021 C.3       1 <0>         0.5116
     16 F1         -1.9265    2.3299   -0.8537 F         1 <0>        -0.1708
     17 F2         -0.1562    3.4554   -1.7584 F         1 <0>        -0.1684
     18 F3         -0.8783    1.5079   -2.7097 F         1 <0>        -0.1835
     19 C14        -0.0045   -2.7378   -0.5632 C.3       1 <0>         0.1189
     20 C15         0.1003   -2.8415   -2.0861 C.3       1 <0>        -0.1867
     21 C16        -1.1519   -3.5258   -2.6381 C.3       1 <0>        -0.0069
     22 N2         -1.0512   -3.6254   -4.1003 N.4       1 <0>        -0.3853
     23 C17        -1.0537   -2.2775   -4.6839 C.3       1 <0>        -0.0077
     24 C18        -0.9298   -2.3801   -6.2057 C.3       1 <0>         0.0276
     25 N3         -2.0555   -3.1635   -6.7342 N.3       1 <0>        -0.5292
     26 C19        -2.0806   -4.5075   -6.1400 C.3       1 <0>         0.0210
     27 C20        -2.1949   -4.3874   -4.6187 C.3       1 <0>        -0.0006
     28 C21        -2.0033   -3.2371   -8.2004 C.3       1 <0>         0.0537
     29 C22        -3.3078   -3.8378   -8.7277 C.3       1 <0>         0.0765
     30 O1         -4.3924   -2.9556   -8.4318 O.3       1 <0>        -0.5623
     31 H1          3.5314   -5.9436   -0.4370 H         1 <0>         0.1336
     32 H2          5.2052   -5.2329    1.2209 H         1 <0>         0.1378
     33 H3          5.0162   -3.0236    2.2912 H         1 <0>         0.1394
     34 H4          1.6604   -4.4608   -1.0187 H         1 <0>         0.1253
     35 H5         -0.3339   -0.4802   -1.4266 H         1 <0>         0.1363
     36 H6          1.0153    3.1525    0.3512 H         1 <0>         0.1503
     37 H7          2.5627    1.8822    1.7845 H         1 <0>         0.1518
     38 H8         -0.0908   -3.7369   -0.1361 H         1 <0>         0.1000
     39 H9         -0.8850   -2.1522   -0.2987 H         1 <0>         0.0969
     40 H10         0.1866   -1.8424   -2.5133 H         1 <0>         0.0961
     41 H11         0.9808   -3.4271   -2.3506 H         1 <0>         0.0983
     42 H12        -1.2382   -4.5248   -2.2109 H         1 <0>         0.1366
     43 H13        -2.0324   -2.9402   -2.3736 H         1 <0>         0.1359
     44 H14        -1.9853   -1.7726   -4.4284 H         1 <0>         0.1410
     45 H15        -0.2120   -1.7088   -4.2884 H         1 <0>         0.1346
     46 H16        -0.9466   -1.3806   -6.6402 H         1 <0>         0.1248
     47 H17         0.0081   -2.8727   -6.4619 H         1 <0>         0.0594
     48 H18        -2.9369   -5.0601   -6.5265 H         1 <0>         0.1240
     49 H19        -1.1616   -5.0352   -6.3950 H         1 <0>         0.0595
     50 H20        -2.1994   -5.3829   -4.1749 H         1 <0>         0.1362
     51 H21        -3.1207   -3.8717   -4.3635 H         1 <0>         0.1397
     52 H22        -1.8729   -2.2354   -8.6100 H         1 <0>         0.0976
     53 H23        -1.1655   -3.8653   -8.5031 H         1 <0>         0.0611
     54 H24        -3.2348   -3.9748   -9.8066 H         1 <0>         0.0597
     55 H25        -3.4830   -4.8019   -8.2501 H         1 <0>         0.0455
     56 H26        -5.2528   -3.2736   -8.7380 H         1 <0>         0.3848
     57 H27        -0.1938   -4.0966   -4.3468 H         1 <0>         0.4201
@<TRIPOS>BOND
     1    1    6 ar
     2    1    2 ar
     3    1   31 1
     4    2    3 ar
     5    2   32 1
     6    3    4 ar
     7    3   33 1
     8    4   14 1
     9    4    5 ar
    10    5    6 ar
    11    5    7 1
    12    6   34 1
    13    7    8 1
    14    7   19 1
    15    8   13 ar
    16    8    9 ar
    17    9   10 ar
    18    9   35 1
    19   10   11 ar
    20   10   15 1
    21   11   12 ar
    22   11   36 1
    23   12   13 ar
    24   12   37 1
    25   13   14 1
    26   15   16 1
    27   15   17 1
    28   15   18 1
    29   19   20 1
    30   19   38 1
    31   19   39 1
    32   20   21 1
    33   20   40 1
    34   20   41 1
    35   21   22 1
    36   21   42 1
    37   21   43 1
    38   22   27 1
    39   22   23 1
    40   22   57 1
    41   23   24 1
    42   23   44 1
    43   23   45 1
    44   24   25 1
    45   24   46 1
    46   24   47 1
    47   25   26 1
    48   25   28 1
    49   26   27 1
    50   26   48 1
    51   26   49 1
    52   27   50 1
    53   27   51 1
    54   28   29 1
    55   28   52 1
    56   28   53 1
    57   29   30 1
    58   29   54 1
    59   29   55 1
    60   30   56 1
@<TRIPOS>MOLECULE
ZINC19203912
   56    59     0     0     0
SMALL
USER_CHARGES

@<TRIPOS>ATOM
      1 C1          3.4437   -4.9771    0.0368 C.ar      1 <0>        -0.0761
      2 C2          4.3861   -4.5771    0.9651 C.ar      1 <0>        -0.1361
      3 C3          4.2791   -3.3364    1.5665 C.ar      1 <0>        -0.0570
      4 C4          3.2267   -2.4926    1.2411 C.ar      1 <0>        -0.1593
      5 C5          2.2729   -2.8934    0.3097 C.ar      1 <0>         0.1939
      6 C6          2.3926   -4.1423   -0.2915 C.ar      1 <0>        -0.1569
      7 N1          1.1945   -2.0826   -0.0347 N.pl3     1 <0>        -0.5619
      8 C7          1.1709   -0.6955    0.0853 C.ar      1 <0>         0.1955
      9 C8          0.3025    0.0332   -0.7210 C.ar      1 <0>        -0.1146
     10 C9          0.2496    1.4106   -0.6236 C.ar      1 <0>        -0.1450
     11 C10         1.0603    2.0760    0.2765 C.ar      1 <0>        -0.0881
     12 C11         1.9293    1.3621    1.0812 C.ar      1 <0>        -0.0606
     13 C12         1.9888   -0.0211    0.9875 C.ar      1 <0>        -0.1248
     14 S1          3.1095   -0.9136    2.0128 S.3       1 <0>         0.0333
     15 C13        -0.6948    2.1899   -1.5021 C.3       1 <0>         0.5100
     16 F1         -1.9265    2.3299   -0.8538 F         1 <0>        -0.1736
     17 F2         -0.1562    3.4554   -1.7585 F         1 <0>        -0.1731
     18 F3         -0.8783    1.5079   -2.7098 F         1 <0>        -0.1757
     19 C14        -0.0045   -2.7378   -0.5632 C.3       1 <0>         0.1110
     20 C15         0.1003   -2.8415   -2.0861 C.3       1 <0>        -0.1461
     21 C16        -1.1519   -3.5258   -2.6381 C.3       1 <0>         0.0578
     22 N2         -1.0512   -3.6254   -4.1003 N.3       1 <0>        -0.5385
     23 C17        -1.0812   -2.2942   -4.7221 C.3       1 <0>         0.0549
     24 C18        -0.8944   -2.4363   -6.2345 C.3       1 <0>         0.0578
     25 N3         -1.9576   -3.2926   -6.7785 N.3       1 <0>        -0.5305
     26 C19        -1.9276   -4.6238   -6.1566 C.3       1 <0>         0.0544
     27 C20        -2.1144   -4.4817   -4.6442 C.3       1 <0>         0.0587
     28 C21        -1.8569   -3.3922   -8.2407 C.3       1 <0>         0.0540
     29 C22        -3.1092   -4.0765   -8.7927 C.3       1 <0>         0.0795
     30 O1         -4.2499   -3.2515   -8.5476 O.3       1 <0>        -0.5595
     31 H1          3.5314   -5.9437   -0.4370 H         1 <0>         0.1321
     32 H2          5.2051   -5.2329    1.2210 H         1 <0>         0.1329
     33 H3          5.0162   -3.0236    2.2912 H         1 <0>         0.1343
     34 H4          1.6604   -4.4608   -1.0187 H         1 <0>         0.1361
     35 H5         -0.3339   -0.4802   -1.4266 H         1 <0>         0.1444
     36 H6          1.0154    3.1525    0.3511 H         1 <0>         0.1457
     37 H7          2.5627    1.8822    1.7845 H         1 <0>         0.1470
     38 H8         -0.0908   -3.7369   -0.1361 H         1 <0>         0.0906
     39 H9         -0.8850   -2.1522   -0.2987 H         1 <0>         0.0854
     40 H10         0.1866   -1.8424   -2.5133 H         1 <0>         0.0726
     41 H11         0.9808   -3.4271   -2.3506 H         1 <0>         0.0833
     42 H12        -1.2382   -4.5248   -2.2109 H         1 <0>         0.0786
     43 H13        -2.0324   -2.9402   -2.3736 H         1 <0>         0.0388
     44 H14        -2.0403   -1.8186   -4.5173 H         1 <0>         0.0453
     45 H15        -0.2770   -1.6831   -4.3122 H         1 <0>         0.0803
     46 H16        -0.9452   -1.4526   -6.7012 H         1 <0>         0.0803
     47 H17         0.0765   -2.8870   -6.4403 H         1 <0>         0.0414
     48 H18        -2.7318   -5.2348   -6.5666 H         1 <0>         0.0801
     49 H19        -0.9685   -5.0993   -6.3615 H         1 <0>         0.0413
     50 H20        -2.0636   -5.4654   -4.1775 H         1 <0>         0.0795
     51 H21        -3.0853   -4.0310   -4.4385 H         1 <0>         0.0447
     52 H22        -1.7706   -2.3931   -8.6678 H         1 <0>         0.0833
     53 H23        -0.9764   -3.9778   -8.5052 H         1 <0>         0.0490
     54 H24        -2.9959   -4.2305   -9.8658 H         1 <0>         0.0487
     55 H25        -3.2443   -5.0392   -8.2997 H         1 <0>         0.0452
     56 H26        -5.0815   -3.6238   -8.8718 H         1 <0>         0.3752
@<TRIPOS>BOND
     1    1    6 ar
     2    1    2 ar
     3    1   31 1
     4    2    3 ar
     5    2   32 1
     6    3    4 ar
     7    3   33 1
     8    4   14 1
     9    4    5 ar
    10    5    6 ar
    11    5    7 1
    12    6   34 1
    13    7    8 1
    14    7   19 1
    15    8   13 ar
    16    8    9 ar
    17    9   10 ar
    18    9   35 1
    19   10   11 ar
    20   10   15 1
    21   11   12 ar
    22   11   36 1
    23   12   13 ar
    24   12   37 1
    25   13   14 1
    26   15   16 1
    27   15   17 1
    28   15   18 1
    29   19   20 1
    30   19   38 1
    31   19   39 1
    32   20   21 1
    33   20   40 1
    34   20   41 1
    35   21   22 1
    36   21   42 1
    37   21   43 1
    38   22   27 1
    39   22   23 1
    40   23   24 1
    41   23   44 1
    42   23   45 1
    43   24   25 1
    44   24   46 1
    45   24   47 1
    46   25   26 1
    47   25   28 1
    48   26   27 1
    49   26   48 1
    50   26   49 1
    51   27   50 1
    52   27   51 1
    53   28   29 1
    54   28   52 1
    55   28   53 1
    56   29   30 1
    57   29   54 1
    58   29   55 1
    59   30   56 1
