@<TRIPOS>MOLECULE
ZINC04228231
   50    52     0     0     0
SMALL
NO_CHARGES

@<TRIPOS>ATOM
      1 C1         -0.0225    1.8097    0.0120 C.3       1 <0>        -0.2859
      2 S1          0.0021   -0.0041    0.0020 S.3       1 <0>         0.3016
      3 C2         -1.6997   -0.6320    0.0149 C.3       1 <0>        -0.3047
      4 C3         -2.4397   -0.1251   -1.2246 C.3       1 <0>        -0.1087
      5 C4         -3.8751   -0.6547   -1.2138 C.3       1 <0>        -0.0489
      6 H1         -4.3574   -0.3780   -0.2762 H         1 <0>         0.1305
      7 C5         -4.6395   -0.0578   -2.3672 C.2       1 <0>         0.4866
      8 O1         -4.6552   -0.6245   -3.4466 O.co2     1 <0>        -0.6689
      9 O2         -5.2423    0.9919   -2.2210 O.co2     1 <0>        -0.6375
     10 N1         -3.8582   -2.1179   -1.3425 N.4       1 <0>        -0.6137
     11 C6          0.8794   -0.6050    1.4716 C.3       1 <0>        -0.2839
     12 C7          2.3148   -0.0754    1.4608 C.3       1 <0>         0.1089
     13 H2          2.7994   -0.3379    0.5204 H         1 <0>         0.1008
     14 C8          3.1032   -0.6743    2.6416 C.3       1 <0>         0.0444
     15 H3          2.4559   -1.3032    3.2527 H         1 <0>         0.0855
     16 C9          3.5764    0.5603    3.4470 C.3       1 <0>         0.0354
     17 H4          2.9066    0.7591    4.2835 H         1 <0>         0.0835
     18 C10         3.4910    1.6901    2.3894 C.3       1 <0>         0.3224
     19 H5          4.3735    1.6846    1.7496 H         1 <0>         0.1226
     20 O3          2.3103    1.3525    1.6264 O.3       1 <0>        -0.3573
     21 N2          3.3347    2.9939    3.0389 N.pl3     1 <0>        -0.4706
     22 C11         2.1581    3.6379    3.2824 C.2       1 <0>         0.2604
     23 N3          2.3873    4.7739    3.8745 N.2       1 <0>        -0.4594
     24 C12         3.7216    4.9308    4.0481 C.ar      1 <0>        -0.1112
     25 C13         4.3452    3.7881    3.5189 C.ar      1 <0>         0.3170
     26 N4          5.6697    3.6925    3.5710 N.ar      1 <0>        -0.5474
     27 C14         6.3908    4.6514    4.1127 C.ar      1 <0>         0.3650
     28 N5          5.8500    5.7415    4.6254 N.ar      1 <0>        -0.5914
     29 C15         4.5343    5.9294    4.6108 C.ar      1 <0>         0.5089
     30 N6          3.9766    7.0748    5.1516 N.pl3     1 <0>        -0.8172
     31 O4          4.9199    0.3877    3.9024 O.3       1 <0>        -0.5258
     32 O5          4.2231   -1.4240    2.1664 O.3       1 <0>        -0.5407
     33 H6          1.0001    2.1870    0.0043 H         1 <0>         0.0984
     34 H7         -0.5497    2.1708   -0.8711 H         1 <0>         0.0862
     35 H8         -0.5327    2.1613    0.9088 H         1 <0>         0.0749
     36 H9         -1.6850   -1.7218    0.0089 H         1 <0>         0.0767
     37 H10        -2.2099   -0.2804    0.9117 H         1 <0>         0.0839
     38 H11        -2.4545    0.9648   -1.2186 H         1 <0>         0.1031
     39 H12        -1.9295   -0.4766   -2.1214 H         1 <0>         0.0870
     40 H13        -3.4117   -2.3741   -2.2104 H         1 <0>         0.4327
     41 H14        -3.3464   -2.5176   -0.5702 H         1 <0>         0.4116
     42 H15         0.3692   -0.2535    2.3684 H         1 <0>         0.0856
     43 H16         0.8942   -1.6949    1.4656 H         1 <0>         0.1063
     44 H17         1.1801    3.2610    3.0221 H         1 <0>         0.2211
     45 H18         7.4650    4.5424    4.1390 H         1 <0>         0.2056
     46 H19         3.0142    7.1953    5.1451 H         1 <0>         0.4191
     47 H20         4.5482    7.7570    5.5372 H         1 <0>         0.4113
     48 H21         5.0398   -0.3650    4.4975 H         1 <0>         0.3819
     49 H22         4.7552   -1.8237    2.8680 H         1 <0>         0.3850
     50 H23        -4.8048   -2.4672   -1.3353 H         1 <0>         0.4296
@<TRIPOS>BOND
     1    1    2 1
     2    1   33 1
     3    1   34 1
     4    1   35 1
     5    2    3 1
     6    2   11 1
     7    3    4 1
     8    3   36 1
     9    3   37 1
    10    4    5 1
    11    4   38 1
    12    4   39 1
    13    5    6 1
    14    5    7 1
    15    5   10 1
    16    7    8 2
    17    7    9 1
    18   10   40 1
    19   10   41 1
    20   10   50 1
    21   11   12 1
    22   11   42 1
    23   11   43 1
    24   12   13 1
    25   12   20 1
    26   12   14 1
    27   14   15 1
    28   14   16 1
    29   14   32 1
    30   16   17 1
    31   16   18 1
    32   16   31 1
    33   18   19 1
    34   18   20 1
    35   18   21 1
    36   21   25 1
    37   21   22 1
    38   22   23 2
    39   22   44 1
    40   23   24 1
    41   24   29 ar
    42   24   25 ar
    43   25   26 ar
    44   26   27 ar
    45   27   28 ar
    46   27   45 1
    47   28   29 ar
    48   29   30 1
    49   30   46 1
    50   30   47 1
    51   31   48 1
    52   32   49 1
@<TRIPOS>MOLECULE
ZINC13522357
   50    52     0     0     0
SMALL
USER_CHARGES
[(3R)-3-amino-4-hydroxy-4-oxo-butyl]-[[(2S,3S,4R,5R)-5-(6-aminopurin-9-yl)-3,4-dihydroxy-tetrahydrofuran-2-yl]methyl]-methyl-sulfonium
@<TRIPOS>ATOM
      1 C1         -6.1444    1.6626    1.9992 C.3       1 <0>        -0.3101
      2 S1         -5.2158    0.3556    1.1507 S.3       1 <0>         0.6621
      3 C2         -6.4984   -0.7901    0.5737 C.3       1 <0>        -0.2940
      4 C3         -7.0897   -1.5383    1.7702 C.3       1 <0>        -0.1302
      5 C4         -8.1715   -2.5046    1.2835 C.3       1 <0>        -0.0089
      6 H1         -8.9140   -1.9566    0.7035 H         1 <0>         0.1480
      7 C5         -8.8383   -3.1512    2.4702 C.2       1 <0>         0.4510
      8 O1         -8.5207   -4.2669    2.8080 O.co2     1 <0>        -0.5968
      9 C6         -4.6240    1.1526   -0.3675 C.3       1 <0>        -0.2711
     10 C7         -3.5239    2.1576   -0.0205 C.3       1 <0>         0.0932
     11 H2         -3.8840    2.8545    0.7363 H         1 <0>         0.1183
     12 C8         -3.1016    2.9299   -1.2854 C.3       1 <0>         0.0530
     13 H3         -3.6411    2.5612   -2.1578 H         1 <0>         0.0953
     14 C9         -1.5875    2.6369   -1.4210 C.3       1 <0>         0.0350
     15 H4         -1.4100    1.8253   -2.1266 H         1 <0>         0.0934
     16 C10        -1.2091    2.2097    0.0200 C.3       1 <0>         0.3293
     17 H5         -1.0495    3.0846    0.6503 H         1 <0>         0.1331
     18 O2         -2.3623    1.4629    0.4638 O.3       1 <0>        -0.3609
     19 N1         -0.0164    1.3590    0.0095 N.pl3     1 <0>        -0.4799
     20 C11         0.0021   -0.0041    0.0020 C.2       1 <0>         0.2562
     21 N2          1.2310   -0.4320   -0.0120 N.2       1 <0>        -0.4413
     22 C12         2.0770    0.6261   -0.0144 C.ar      1 <0>        -0.0720
     23 C13         1.2867    1.7881   -0.0006 C.ar      1 <0>         0.3101
     24 N3          1.8839    2.9753    0.0000 N.ar      1 <0>        -0.5308
     25 C14         3.1972    3.0658   -0.0120 C.ar      1 <0>         0.3585
     26 N4          3.9807    2.0030   -0.0252 N.ar      1 <0>        -0.5694
     27 C15         3.4742    0.7743   -0.0270 C.ar      1 <0>         0.4543
     28 N5          4.3035   -0.3335   -0.0413 N.pl3     1 <0>        -0.7425
     29 O3         -0.8734    3.8124   -1.8085 O.3       1 <0>        -0.5198
     30 O4         -3.3267    4.3306   -1.1146 O.3       1 <0>        -0.5392
     31 H6         -6.9649    1.9963    1.3640 H         1 <0>         0.1347
     32 H7         -6.5448    1.2744    2.9358 H         1 <0>         0.1640
     33 H8         -5.4816    2.5024    2.2078 H         1 <0>         0.1564
     34 H9         -7.2862   -0.2299    0.0701 H         1 <0>         0.1452
     35 H10        -6.0600   -1.5058   -0.1218 H         1 <0>         0.1456
     36 H11        -6.3019   -2.0986    2.2738 H         1 <0>         0.1164
     37 H12        -7.5280   -0.8226    2.4657 H         1 <0>         0.1317
     38 H13        -6.8669   -4.0633    0.9563 H         1 <0>         0.4408
     39 H14        -8.2614   -4.1540    0.0547 H         1 <0>         0.4465
     40 H15        -5.4512    1.6720   -0.8514 H         1 <0>         0.1543
     41 H16        -4.2251    0.3961   -1.0433 H         1 <0>         0.1674
     42 H17        -0.8740   -0.6357    0.0070 H         1 <0>         0.2219
     43 H18         3.6506    4.0459   -0.0107 H         1 <0>         0.2108
     44 H19         4.1336   -0.8876    0.7737 H         1 <0>         0.3725
     45 H20         5.2666   -0.2182   -0.0498 H         1 <0>         0.3786
     46 H21        -1.0763    4.1190   -2.7029 H         1 <0>         0.3913
     47 H22        -3.0251    4.8709   -1.8578 H         1 <0>         0.4015
     48 O5         -9.7851   -2.4875    3.1520 O.co2     1 <0>        -0.6868
     49 N6         -7.5488   -3.5262    0.4232 N.4       1 <0>        -0.6310
     50 H23        -7.0726   -3.0634   -0.3599 H         1 <0>         0.4143
@<TRIPOS>BOND
     1    1    2 1
     2    1   31 1
     3    1   32 1
     4    1   33 1
     5    2    3 1
     6    2    9 1
     7    3    4 1
     8    3   34 1
     9    3   35 1
    10    4    5 1
    11    4   36 1
    12    4   37 1
    13    5    6 1
    14    5    7 1
    15    5   49 1
    16    7    8 2
    17    7   48 1
    18    9   10 1
    19    9   40 1
    20    9   41 1
    21   10   11 1
    22   10   18 1
    23   10   12 1
    24   12   13 1
    25   12   14 1
    26   12   30 1
    27   14   15 1
    28   14   16 1
    29   14   29 1
    30   16   17 1
    31   16   18 1
    32   16   19 1
    33   19   23 1
    34   19   20 1
    35   20   21 2
    36   20   42 1
    37   21   22 1
    38   22   27 ar
    39   22   23 ar
    40   23   24 ar
    41   24   25 ar
    42   25   26 ar
    43   25   43 1
    44   26   27 ar
    45   27   28 1
    46   28   44 1
    47   28   45 1
    48   29   46 1
    49   30   47 1
    50   38   49 1
    51   39   49 1
    52   49   50 1
@<TRIPOS>MOLECULE
ZINC13522362
   50    52     0     0     0
SMALL
USER_CHARGES
[(3R)-3-amino-4-hydroxy-4-oxo-butyl]-[[(2S,3S,4R,5R)-5-(6-aminopurin-9-yl)-3,4-dihydroxy-tetrahydrofuran-2-yl]methyl]-methyl-sulfonium
@<TRIPOS>ATOM
      1 C1          4.3623    2.4266    1.6142 C.3       1 <0>        -0.3075
      2 S1          3.4331    3.7035    0.7216 S.3       1 <0>         0.6537
      3 C2          3.5395    5.1583    1.7999 C.3       1 <0>        -0.2871
      4 C3          4.9648    5.7137    1.7678 C.3       1 <0>        -0.1260
      5 C4          5.0546    6.9408    2.6773 C.3       1 <0>        -0.0112
      6 H1          4.2980    7.6679    2.3823 H         1 <0>         0.1515
      7 C5          6.4226    7.5602    2.5516 C.2       1 <0>         0.4484
      8 O1          7.2642    7.3416    3.3904 O.co2     1 <0>        -0.6005
      9 C6          1.7048    3.1728    0.8698 C.3       1 <0>        -0.2590
     10 C7          1.4743    1.9366   -0.0016 C.3       1 <0>         0.0887
     11 H2          1.8092    2.1228   -1.0220 H         1 <0>         0.1290
     12 C8         -0.0189    1.5409    0.0105 C.3       1 <0>         0.0570
     13 H3         -0.5048    1.9113    0.9131 H         1 <0>         0.0949
     14 C9          0.0021   -0.0041    0.0020 C.3       1 <0>         0.0350
     15 H4         -0.4735   -0.3974    0.9004 H         1 <0>         0.0914
     16 C10         1.5055   -0.3590   -0.0142 C.3       1 <0>         0.3291
     17 H5          1.8447   -0.5267   -1.0364 H         1 <0>         0.1345
     18 O2          2.1632    0.7948    0.5532 O.3       1 <0>        -0.3744
     19 N1          1.7583   -1.5454    0.8072 N.pl3     1 <0>        -0.4812
     20 C11         2.1507   -1.5540    2.1126 C.2       1 <0>         0.2538
     21 N2          2.2817   -2.7798    2.5295 N.2       1 <0>        -0.4393
     22 C12         1.9825   -3.6335    1.5211 C.ar      1 <0>        -0.0723
     23 C13         1.6378   -2.8517    0.4054 C.ar      1 <0>         0.3087
     24 N3          1.3051   -3.4575   -0.7297 N.ar      1 <0>        -0.5331
     25 C14         1.2874   -4.7714   -0.8088 C.ar      1 <0>         0.3609
     26 N4          1.5982   -5.5473    0.2134 N.ar      1 <0>        -0.5685
     27 C15         1.9487   -5.0318    1.3873 C.ar      1 <0>         0.4556
     28 N5          2.2724   -5.8530    2.4530 N.pl3     1 <0>        -0.7419
     29 O3         -0.6439   -0.5072   -1.1692 O.3       1 <0>        -0.5213
     30 O4         -0.6784    2.0391   -1.1552 O.3       1 <0>        -0.5367
     31 H6          4.1888    1.4574    1.1468 H         1 <0>         0.1637
     32 H7          5.4263    2.6611    1.5803 H         1 <0>         0.1571
     33 H8          4.0303    2.3942    2.6519 H         1 <0>         0.1281
     34 H9          2.8442    5.9214    1.4502 H         1 <0>         0.1693
     35 H10         3.2835    4.8736    2.8205 H         1 <0>         0.1214
     36 H11         5.6601    4.9506    2.1174 H         1 <0>         0.1038
     37 H12         5.2209    5.9984    0.7472 H         1 <0>         0.1432
     38 H13         3.8922    6.1758    4.1946 H         1 <0>         0.4134
     39 H14         5.5160    5.8608    4.3682 H         1 <0>         0.4376
     40 H15         1.0480    3.9777    0.5397 H         1 <0>         0.1784
     41 H16         1.4873    2.9299    1.9099 H         1 <0>         0.1434
     42 H17         2.3270   -0.6733    2.7125 H         1 <0>         0.2200
     43 H18         1.0085   -5.2321   -1.7450 H         1 <0>         0.2121
     44 H19         3.2112   -5.6678    2.7433 H         1 <0>         0.3726
     45 H20         2.2453   -6.8170    2.3482 H         1 <0>         0.3793
     46 H21        -1.5765   -0.2618   -1.2401 H         1 <0>         0.3907
     47 H22        -1.6041    1.7693   -1.2289 H         1 <0>         0.3985
     48 O5          6.7061    8.3550    1.5076 O.co2     1 <0>        -0.6831
     49 N6          4.8300    6.5575    4.0823 N.4       1 <0>        -0.6317
     50 H23         4.9273    7.3878    4.6784 H         1 <0>         0.4501
@<TRIPOS>BOND
     1    1    2 1
     2    1   31 1
     3    1   32 1
     4    1   33 1
     5    2    3 1
     6    2    9 1
     7    3    4 1
     8    3   34 1
     9    3   35 1
    10    4    5 1
    11    4   36 1
    12    4   37 1
    13    5    6 1
    14    5    7 1
    15    5   49 1
    16    7    8 2
    17    7   48 1
    18    9   10 1
    19    9   40 1
    20    9   41 1
    21   10   11 1
    22   10   18 1
    23   10   12 1
    24   12   13 1
    25   12   14 1
    26   12   30 1
    27   14   15 1
    28   14   16 1
    29   14   29 1
    30   16   17 1
    31   16   18 1
    32   16   19 1
    33   19   23 1
    34   19   20 1
    35   20   21 2
    36   20   42 1
    37   21   22 1
    38   22   27 ar
    39   22   23 ar
    40   23   24 ar
    41   24   25 ar
    42   25   26 ar
    43   25   43 1
    44   26   27 ar
    45   27   28 1
    46   28   44 1
    47   28   45 1
    48   29   46 1
    49   30   47 1
    50   38   49 1
    51   39   49 1
    52   49   50 1
