@<TRIPOS>MOLECULE
ZINC03814434
   62    69     0     0     0
SMALL
USER_CHARGES

@<TRIPOS>ATOM
      1 C1         -0.1295    1.5952   -0.2973 C.3       1 <0>        -0.1687
      2 C2         -0.0862    0.0696   -0.1900 C.3       1 <0>         0.3342
      3 C3          0.5692   -0.4501   -1.4637 C.3       1 <0>         0.0405
      4 H1          1.4796    0.1159   -1.6612 H         1 <0>         0.1372
      5 C4          0.9167   -1.9328   -1.2889 C.3       1 <0>        -0.0061
      6 H2          1.3963   -2.3075   -2.1932 H         1 <0>         0.1555
      7 C5          1.8785   -2.0596   -0.1021 C.3       1 <0>        -0.1827
      8 C6          1.2061   -1.5198    1.1541 C.3       1 <0>         0.2999
      9 H3          1.9797   -1.4243    1.9161 H         1 <0>         0.1550
     10 O1          0.6555   -0.2442    0.9666 O.3       1 <0>        -0.3234
     11 N1          0.2189   -2.4746    1.6600 N.pl3     1 <0>        -0.5366
     12 C7          0.4705   -3.5508    2.4739 C.ar      1 <0>         0.1469
     13 C8          1.6649   -4.0152    3.0240 C.ar      1 <0>        -0.1522
     14 C9          1.5948   -5.1456    3.8201 C.ar      1 <0>        -0.0582
     15 C10         0.4006   -5.7997    4.0696 C.ar      1 <0>        -0.1457
     16 C11        -0.7984   -5.3597    3.5358 C.ar      1 <0>        -0.0280
     17 C12        -0.7487   -4.2198    2.7307 C.ar      1 <0>        -0.1131
     18 C13        -1.7893   -3.4830    2.0197 C.ar      1 <0>         0.0276
     19 C14        -1.1442   -2.4197    1.3841 C.ar      1 <0>         0.0376
     20 C15        -1.8806   -1.5095    0.6175 C.ar      1 <0>         0.0894
     21 N2         -1.4718   -0.3951   -0.1095 N.pl3     1 <0>        -0.5183
     22 C16        -2.5611    0.1913   -0.7090 C.ar      1 <0>         0.1618
     23 C17        -2.6521    1.3277   -1.5118 C.ar      1 <0>        -0.1305
     24 C18        -3.9109    1.6745   -1.9733 C.ar      1 <0>        -0.0737
     25 C19        -5.0393    0.9368   -1.6616 C.ar      1 <0>        -0.1358
     26 C20        -4.9745   -0.1955   -0.8662 C.ar      1 <0>        -0.0503
     27 C21        -3.7147   -0.5596   -0.3919 C.ar      1 <0>        -0.1042
     28 C22        -3.2693   -1.6660    0.4845 C.ar      1 <0>        -0.0360
     29 C23        -3.9084   -2.7313    1.1102 C.ar      1 <0>        -0.0288
     30 C24        -3.1873   -3.6421    1.8754 C.ar      1 <0>        -0.1255
     31 C25        -4.1221   -4.6480    2.4030 C.2       1 <0>         0.5632
     32 O2         -3.8062   -5.5851    3.1110 O.2       1 <0>        -0.5106
     33 N3         -5.3744   -4.3851    1.9926 N.am      1 <0>        -0.7162
     34 C26        -5.3495   -3.1771    1.1601 C.3       1 <0>         0.1358
     35 N4         -0.3067   -2.7008   -1.0216 N.4       1 <0>        -0.5252
     36 C27         0.0145   -4.1336   -0.9773 C.3       1 <0>        -0.0497
     37 O3         -0.3340   -0.2979   -2.5607 O.3       1 <0>        -0.3614
     38 C28         0.3101   -0.0933   -3.8198 C.3       1 <0>         0.0162
     39 H4          0.8261    2.0094    0.0240 H         1 <0>         0.0984
     40 H5         -0.3202    1.8814   -1.3317 H         1 <0>         0.1036
     41 H6         -0.9255    1.9818    0.3392 H         1 <0>         0.0921
     42 H7          2.1370   -3.1081    0.0458 H         1 <0>         0.1233
     43 H8          2.7835   -1.4869   -0.3048 H         1 <0>         0.1455
     44 H9          2.6036   -3.5149    2.8368 H         1 <0>         0.1365
     45 H10         2.5026   -5.5304    4.2610 H         1 <0>         0.1359
     46 H11         0.4045   -6.6780    4.6980 H         1 <0>         0.1352
     47 H12        -1.7278   -5.8736    3.7323 H         1 <0>         0.1600
     48 H13        -1.7792    1.9122   -1.7624 H         1 <0>         0.1440
     49 H14        -4.0153    2.5500   -2.5970 H         1 <0>         0.1336
     50 H15        -5.9967    1.2527   -2.0488 H         1 <0>         0.1332
     51 H16        -5.8575   -0.7687   -0.6249 H         1 <0>         0.1415
     52 H17        -6.1628   -4.9065    2.2103 H         1 <0>         0.4348
     53 H18        -5.9671   -2.3994    1.6094 H         1 <0>         0.1115
     54 H19        -5.7060   -3.4063    0.1559 H         1 <0>         0.1103
     55 H20        -0.6958   -2.4158   -0.1353 H         1 <0>         0.4186
     56 H21         0.4349   -4.4415   -1.9347 H         1 <0>         0.1256
     57 H22         0.7403   -4.3189   -0.1854 H         1 <0>         0.1191
     58 H23        -0.8932   -4.7035   -0.7789 H         1 <0>         0.1256
     59 H24         0.9168    0.8112   -3.7748 H         1 <0>         0.0633
     60 H25         0.9482   -0.9479   -4.0446 H         1 <0>         0.0514
     61 H26        -0.4433    0.0130   -4.6003 H         1 <0>         0.1100
     62 H27        -0.9785   -2.5293   -1.7546 H         1 <0>         0.4274
@<TRIPOS>BOND
     1    1    2 1
     2    1   39 1
     3    1   40 1
     4    1   41 1
     5    2   10 1
     6    2   21 1
     7    2    3 1
     8    3    4 1
     9    3    5 1
    10    3   37 1
    11    5    6 1
    12    5    7 1
    13    5   35 1
    14    7    8 1
    15    7   42 1
    16    7   43 1
    17    8    9 1
    18    8   10 1
    19    8   11 1
    20   11   19 1
    21   11   12 1
    22   12   17 ar
    23   12   13 ar
    24   13   14 ar
    25   13   44 1
    26   14   15 ar
    27   14   45 1
    28   15   16 ar
    29   15   46 1
    30   16   17 ar
    31   16   47 1
    32   17   18 1
    33   18   30 ar
    34   18   19 ar
    35   19   20 ar
    36   20   28 ar
    37   20   21 1
    38   21   22 1
    39   22   27 ar
    40   22   23 ar
    41   23   24 ar
    42   23   48 1
    43   24   25 ar
    44   24   49 1
    45   25   26 ar
    46   25   50 1
    47   26   27 ar
    48   26   51 1
    49   27   28 1
    50   28   29 ar
    51   29   34 1
    52   29   30 ar
    53   30   31 1
    54   31   32 2
    55   31   33 am
    56   33   34 1
    57   33   52 1
    58   34   53 1
    59   34   54 1
    60   35   36 1
    61   35   55 1
    62   35   62 1
    63   36   56 1
    64   36   57 1
    65   36   58 1
    66   37   38 1
    67   38   59 1
    68   38   60 1
    69   38   61 1
@<TRIPOS>MOLECULE
ZINC66066276
   65    69     0     0     0
SMALL
USER_CHARGES

@<TRIPOS>ATOM
      1 C1         -0.1385    1.3879   -0.0044 C.3       1 <0>        -0.0482
      2 N1         -0.0964   -0.0801   -0.0367 N.4       1 <0>        -0.3849
      3 C2          0.6241   -0.5211   -1.2377 C.3       1 <0>        -0.0231
      4 C3          0.5697   -2.0494   -1.3324 C.3       1 <0>         0.0968
      5 N2          1.0839   -2.6131   -0.0747 N.pl3     1 <0>        -0.6393
      6 C4          0.5296   -2.1060    1.1901 C.3       1 <0>         0.0956
      7 C5          0.5859   -0.5749    1.1657 C.3       1 <0>        -0.0233
      8 C6          2.0726   -3.6035   -0.0812 C.ar      1 <0>         0.2548
      9 C7          2.4992   -4.1504   -1.2843 C.ar      1 <0>        -0.2045
     10 C8          3.4754   -5.1283   -1.2931 C.ar      1 <0>        -0.0114
     11 C9          4.0315   -5.5655   -0.1001 C.ar      1 <0>         0.0477
     12 C10         3.6056   -5.0181    1.1079 C.ar      1 <0>         0.1820
     13 C11         2.6307   -4.0346    1.1149 C.ar      1 <0>        -0.2633
     14 O1          4.1495   -5.4458    2.2786 O.3       1 <0>        -0.3151
     15 C12         3.6647   -4.8403    3.4787 C.3       1 <0>         0.0253
     16 N3          5.0224   -6.5590   -0.1100 N.pl3     1 <0>        -0.5951
     17 C13         5.9234   -6.6290   -1.1614 C.ar      1 <0>         0.6200
     18 N4          6.7684   -7.6465   -1.2204 N.ar      1 <0>        -0.5307
     19 C14         7.6570   -7.7406   -2.1992 C.ar      1 <0>         0.1735
     20 C15         7.6908   -6.7594   -3.1807 C.ar      1 <0>         0.0531
     21 C16         6.7653   -5.7167   -3.1035 C.ar      1 <0>         0.5257
     22 N5          5.9135   -5.6785   -2.0851 N.ar      1 <0>        -0.5103
     23 N6          6.6919   -4.7568   -4.1034 N.pl3     1 <0>        -0.5774
     24 C17         6.3887   -5.1546   -5.4017 C.ar      1 <0>         0.1664
     25 C18         5.2534   -4.6587   -6.0292 C.ar      1 <0>        -0.1219
     26 C19         4.9299   -5.0762   -7.3047 C.ar      1 <0>        -0.0688
     27 C20         5.7327   -5.9924   -7.9647 C.ar      1 <0>        -0.1122
     28 C21         6.8698   -6.4838   -7.3616 C.ar      1 <0>        -0.0383
     29 C22         7.2201   -6.0579   -6.0760 C.ar      1 <0>        -0.1479
     30 C23         8.4726   -6.5260   -5.4704 C.2       1 <0>         0.5683
     31 O2          9.4315   -6.6533   -6.2069 O.2       1 <0>        -0.4812
     32 N7          8.6490   -6.8213   -4.1911 N.am      1 <0>        -0.5386
     33 C24         9.9907   -7.2585   -3.7973 C.3       1 <0>         0.0524
     34 C25         6.9299   -3.3443   -3.7959 C.3       1 <0>         0.1009
     35 H1          0.8781    1.7800    0.0246 H         1 <0>         0.1226
     36 H2         -0.6448    1.7566   -0.8966 H         1 <0>         0.1280
     37 H3         -0.6801    1.7165    0.8826 H         1 <0>         0.1278
     38 H4          0.1581   -0.0853   -2.1215 H         1 <0>         0.1452
     39 H5          1.6632   -0.1974   -1.1776 H         1 <0>         0.1331
     40 H6         -0.4608   -2.3706   -1.4835 H         1 <0>         0.0948
     41 H7          1.1874   -2.3870   -2.1647 H         1 <0>         0.1284
     42 H8         -0.5050   -2.4329    1.2938 H         1 <0>         0.0956
     43 H9          1.1208   -2.4809    2.0256 H         1 <0>         0.1245
     44 H10         1.6261   -0.2496    1.1531 H         1 <0>         0.1331
     45 H11         0.0918   -0.1789    2.0529 H         1 <0>         0.1451
     46 H12         2.0672   -3.8111   -2.2141 H         1 <0>         0.1365
     47 H13         3.8053   -5.5529   -2.2298 H         1 <0>         0.1457
     48 H14         2.3018   -3.6063    2.0501 H         1 <0>         0.1425
     49 H15         4.1805   -5.2710    4.3370 H         1 <0>         0.1135
     50 H16         3.8502   -3.7667    3.4446 H         1 <0>         0.0615
     51 H17         2.5938   -5.0212    3.5700 H         1 <0>         0.0638
     52 H18         5.0770   -7.1968    0.6188 H         1 <0>         0.4396
     53 H19         8.3470   -8.5708   -2.2327 H         1 <0>         0.2258
     54 H20         4.6226   -3.9461   -5.5187 H         1 <0>         0.1376
     55 H21         4.0471   -4.6872   -7.7901 H         1 <0>         0.1436
     56 H22         5.4655   -6.3235   -8.9573 H         1 <0>         0.1462
     57 H23         7.4906   -7.1986   -7.8813 H         1 <0>         0.1468
     58 H24        10.0611   -8.3423   -3.8887 H         1 <0>         0.0822
     59 H25        10.7305   -6.7903   -4.4466 H         1 <0>         0.1088
     60 H26        10.1788   -6.9680   -2.7637 H         1 <0>         0.0829
     61 H27         7.1502   -3.2358   -2.7339 H         1 <0>         0.0824
     62 H28         7.7753   -2.9825   -4.3811 H         1 <0>         0.0804
     63 H29         6.0413   -2.7638   -4.0438 H         1 <0>         0.0755
     64 H30        -1.0380   -0.4419   -0.0605 H         1 <0>         0.4269
     65 H31         6.7370   -8.3336   -0.5364 H         1 <0>         0.4526
@<TRIPOS>BOND
     1    1    2 1
     2    1   35 1
     3    1   36 1
     4    1   37 1
     5    2    7 1
     6    2    3 1
     7    2   64 1
     8    3    4 1
     9    3   38 1
    10    3   39 1
    11    4    5 1
    12    4   40 1
    13    4   41 1
    14    5    6 1
    15    5    8 1
    16    6    7 1
    17    6   42 1
    18    6   43 1
    19    7   44 1
    20    7   45 1
    21    8   13 ar
    22    8    9 ar
    23    9   10 ar
    24    9   46 1
    25   10   11 ar
    26   10   47 1
    27   11   12 ar
    28   11   16 1
    29   12   13 ar
    30   12   14 1
    31   13   48 1
    32   14   15 1
    33   15   49 1
    34   15   50 1
    35   15   51 1
    36   16   17 1
    37   16   52 1
    38   17   22 ar
    39   17   18 ar
    40   18   19 ar
    41   18   65 1
    42   19   20 ar
    43   19   53 1
    44   20   32 1
    45   20   21 ar
    46   21   22 ar
    47   21   23 1
    48   23   24 1
    49   23   34 1
    50   24   29 ar
    51   24   25 ar
    52   25   26 ar
    53   25   54 1
    54   26   27 ar
    55   26   55 1
    56   27   28 ar
    57   27   56 1
    58   28   29 ar
    59   28   57 1
    60   29   30 1
    61   30   31 2
    62   30   32 am
    63   32   33 1
    64   33   58 1
    65   33   59 1
    66   33   60 1
    67   34   61 1
    68   34   62 1
    69   34   63 1
@<TRIPOS>MOLECULE
ZINC66066276
   64    68     0     0     0
SMALL
USER_CHARGES

@<TRIPOS>ATOM
      1 C1         -0.1245    1.3970   -0.0013 C.3       1 <0>        -0.0470
      2 N1         -0.0850   -0.0712   -0.0315 N.4       1 <0>        -0.3837
      3 C2          0.6313   -0.5151   -1.2339 C.3       1 <0>        -0.0237
      4 C3          0.5741   -2.0435   -1.3263 C.3       1 <0>         0.1004
      5 N2          1.0909   -2.6063   -0.0692 N.pl3     1 <0>        -0.6435
      6 C4          0.5411   -2.0963    1.1964 C.3       1 <0>         0.0997
      7 C5          0.5999   -0.5654    1.1697 C.3       1 <0>        -0.0234
      8 C6          2.0778   -3.5983   -0.0770 C.ar      1 <0>         0.2177
      9 C7          2.5014   -4.1463   -1.2807 C.ar      1 <0>        -0.1975
     10 C8          3.4759   -5.1260   -1.2909 C.ar      1 <0>        -0.0319
     11 C9          4.0333   -5.5638   -0.0987 C.ar      1 <0>         0.1077
     12 C10         3.6103   -5.0153    1.1098 C.ar      1 <0>         0.1488
     13 C11         2.6372   -4.0301    1.1182 C.ar      1 <0>        -0.2556
     14 O1          4.1555   -5.4436    2.2797 O.3       1 <0>        -0.3111
     15 C12         3.6738   -4.8369    3.4805 C.3       1 <0>         0.0289
     16 N3          5.0224   -6.5590   -0.1100 N.pl3     1 <0>        -0.6267
     17 C13         5.9234   -6.6290   -1.1614 C.ar      1 <0>         0.5695
     18 N4          5.9171   -5.6768   -2.0811 N.ar      1 <0>        -0.5480
     19 C14         6.7500   -5.7164   -3.1112 C.ar      1 <0>         0.1868
     20 C15         7.6478   -6.7701   -3.2168 C.ar      1 <0>        -0.0140
     21 C16         7.6470   -7.7407   -2.2132 C.ar      1 <0>         0.4586
     22 N5          6.7730   -7.6448   -1.2175 N.ar      1 <0>        -0.5574
     23 N6          8.5810   -8.7676   -2.2175 N.pl3     1 <0>        -0.5979
     24 C17         9.9339   -8.4514   -2.1442 C.ar      1 <0>         0.1973
     25 C18        10.6963   -8.9182   -1.0814 C.ar      1 <0>        -0.1337
     26 C19        12.0312   -8.5793   -0.9862 C.ar      1 <0>        -0.0747
     27 C20        12.6173   -7.7719   -1.9474 C.ar      1 <0>        -0.1304
     28 C21        11.8785   -7.3114   -3.0152 C.ar      1 <0>        -0.0453
     29 C22        10.5287   -7.6588   -3.1341 C.ar      1 <0>        -0.1502
     30 C23         9.7679   -7.2290   -4.3136 C.2       1 <0>         0.5685
     31 O2         10.3533   -7.2217   -5.3792 O.2       1 <0>        -0.5218
     32 N7          8.4989   -6.8487   -4.3179 N.am      1 <0>        -0.5319
     33 C24         7.9310   -6.4718   -5.6147 C.3       1 <0>         0.0675
     34 C25         8.1482  -10.1649   -2.2986 C.3       1 <0>         0.1124
     35 H1          0.8929    1.7874    0.0242 H         1 <0>         0.1216
     36 H2         -0.6327    1.7652   -0.8925 H         1 <0>         0.1254
     37 H3         -0.6629    1.7278    0.8868 H         1 <0>         0.1248
     38 H4          0.1636   -0.0799   -2.1171 H         1 <0>         0.1414
     39 H5          1.6711   -0.1931   -1.1772 H         1 <0>         0.1328
     40 H6         -0.4575   -2.3631   -1.4739 H         1 <0>         0.0880
     41 H7          1.1888   -2.3834   -2.1598 H         1 <0>         0.1287
     42 H8         -0.4938   -2.4213    1.3035 H         1 <0>         0.0884
     43 H9          1.1340   -2.4711    2.0308 H         1 <0>         0.1231
     44 H10         1.6406   -0.2419    1.1537 H         1 <0>         0.1324
     45 H11         0.1090   -0.1673    2.0577 H         1 <0>         0.1405
     46 H12         2.0685   -3.8066   -2.2100 H         1 <0>         0.1281
     47 H13         3.8034   -5.5514   -2.2280 H         1 <0>         0.1462
     48 H14         2.3106   -3.6009    2.0539 H         1 <0>         0.1325
     49 H15         4.1902   -5.2682    4.3380 H         1 <0>         0.1059
     50 H16         3.8611   -3.7637    3.4457 H         1 <0>         0.0547
     51 H17         2.6027   -5.0159    3.5736 H         1 <0>         0.0565
     52 H18         5.0758   -7.1980    0.6179 H         1 <0>         0.4283
     53 H19         6.7304   -4.9383   -3.8599 H         1 <0>         0.1784
     54 H20        10.2443   -9.5467   -0.3284 H         1 <0>         0.1344
     55 H21        12.6212   -8.9456   -0.1591 H         1 <0>         0.1358
     56 H22        13.6592   -7.5015   -1.8589 H         1 <0>         0.1367
     57 H23        12.3414   -6.6814   -3.7603 H         1 <0>         0.1381
     58 H24         8.0813   -5.4050   -5.7809 H         1 <0>         0.0681
     59 H25         8.4254   -7.0359   -6.4056 H         1 <0>         0.0940
     60 H26         6.8639   -6.6939   -5.6225 H         1 <0>         0.0750
     61 H27         7.0602  -10.2059   -2.3485 H         1 <0>         0.0761
     62 H28         8.5705  -10.6247   -3.1921 H         1 <0>         0.0620
     63 H29         8.4921  -10.7036   -1.4156 H         1 <0>         0.0631
     64 H30        -1.0273   -0.4314   -0.0521 H         1 <0>         0.4248
@<TRIPOS>BOND
     1    1    2 1
     2    1   35 1
     3    1   36 1
     4    1   37 1
     5    2    7 1
     6    2    3 1
     7    2   64 1
     8    3    4 1
     9    3   38 1
    10    3   39 1
    11    4    5 1
    12    4   40 1
    13    4   41 1
    14    5    6 1
    15    5    8 1
    16    6    7 1
    17    6   42 1
    18    6   43 1
    19    7   44 1
    20    7   45 1
    21    8   13 ar
    22    8    9 ar
    23    9   10 ar
    24    9   46 1
    25   10   11 ar
    26   10   47 1
    27   11   12 ar
    28   11   16 1
    29   12   13 ar
    30   12   14 1
    31   13   48 1
    32   14   15 1
    33   15   49 1
    34   15   50 1
    35   15   51 1
    36   16   17 1
    37   16   52 1
    38   17   22 ar
    39   17   18 ar
    40   18   19 ar
    41   19   20 ar
    42   19   53 1
    43   20   32 1
    44   20   21 ar
    45   21   22 ar
    46   21   23 1
    47   23   24 1
    48   23   34 1
    49   24   29 ar
    50   24   25 ar
    51   25   26 ar
    52   25   54 1
    53   26   27 ar
    54   26   55 1
    55   27   28 ar
    56   27   56 1
    57   28   29 ar
    58   28   57 1
    59   29   30 1
    60   30   31 2
    61   30   32 am
    62   32   33 1
    63   33   58 1
    64   33   59 1
    65   33   60 1
    66   34   61 1
    67   34   62 1
    68   34   63 1
@<TRIPOS>MOLECULE
ZINC03938688
   39    41     0     0     0
SMALL
USER_CHARGES

@<TRIPOS>ATOM
      1 C1         -0.0095    1.3826    0.0704 C.ar      1 <0>        -0.0343
      2 C2          0.5587    1.0580   -1.1482 C.ar      1 <0>        -0.1609
      3 C3          1.7655    0.3862   -1.1955 C.ar      1 <0>         0.1753
      4 C4          2.4129    0.0342   -0.0053 C.ar      1 <0>        -0.1954
      5 C5          1.8304    0.3669    1.2233 C.ar      1 <0>         0.1741
      6 C6          0.6231    1.0388    1.2514 C.ar      1 <0>        -0.1610
      7 F1          2.4463    0.0317    2.3781 F         1 <0>        -0.1212
      8 C7          3.6999   -0.6827   -0.0456 C.2       1 <0>         0.6210
      9 O1          4.7383   -0.0615   -0.1600 O.2       1 <0>        -0.4669
     10 N1          3.7255   -2.0272    0.0446 N.am      1 <0>        -0.3962
     11 C8          4.8314   -2.8210    0.1249 C.2       1 <0>         0.5948
     12 N2          4.4249   -4.0694    0.1979 N.2       1 <0>        -0.5873
     13 C9          3.0869   -4.1118    0.1675 C.2       1 <0>         0.5191
     14 N3          2.6183   -2.8904    0.0808 N.2       1 <0>        -0.3480
     15 N4          2.3148   -5.2702    0.2247 N.pl3     1 <0>        -0.6226
     16 C10         2.9267   -6.5079    0.4407 C.ar      1 <0>         0.2365
     17 C11         4.1432   -6.5760    1.1080 C.ar      1 <0>        -0.1584
     18 C12         4.7450   -7.8008    1.3202 C.ar      1 <0>         0.0098
     19 C13         4.1379   -8.9586    0.8692 C.ar      1 <0>        -0.7033
     20 C14         2.9269   -8.8944    0.2046 C.ar      1 <0>         0.0112
     21 C15         2.3170   -7.6734   -0.0063 C.ar      1 <0>        -0.1777
     22 S1          4.9094  -10.5191    1.1415 S.o2      1 <0>         2.7034
     23 O2          4.4084  -11.3993    0.1448 O.2       1 <0>        -0.9656
     24 O3          6.2977  -10.2630    1.3036 O.2       1 <0>        -0.9650
     25 N5          4.3605  -11.0895    2.5960 N.pl3     1 <0>        -1.2510
     26 N6          6.1422   -2.3912    0.1281 N.pl3     1 <0>        -0.7911
     27 F2          2.3185    0.0697   -2.3868 F         1 <0>        -0.1201
     28 H1         -0.9506    1.9116    0.0998 H         1 <0>         0.1546
     29 H2          0.0576    1.3300   -2.0654 H         1 <0>         0.1549
     30 H3          0.1721    1.2963    2.1984 H         1 <0>         0.1546
     31 H4          1.3525   -5.2176    0.1147 H         1 <0>         0.4325
     32 H5          4.6180   -5.6722    1.4601 H         1 <0>         0.1556
     33 H6          5.6909   -7.8544    1.8385 H         1 <0>         0.1456
     34 H7          2.4556   -9.8005   -0.1466 H         1 <0>         0.1475
     35 H8          1.3691   -7.6243   -0.5215 H         1 <0>         0.1387
     36 H9          3.7284  -10.5673    3.1145 H         1 <0>         0.4165
     37 H10         4.6709  -11.9458    2.9296 H         1 <0>         0.4206
     38 H11         6.3422   -1.4439    0.0694 H         1 <0>         0.4292
     39 H12         6.8640   -3.0364    0.1890 H         1 <0>         0.4303
@<TRIPOS>BOND
     1    1    6 ar
     2    1    2 ar
     3    1   28 1
     4    2    3 ar
     5    2   29 1
     6    3    4 ar
     7    3   27 1
     8    4    5 ar
     9    4    8 1
    10    5    6 ar
    11    5    7 1
    12    6   30 1
    13    8    9 2
    14    8   10 am
    15   10   14 1
    16   10   11 1
    17   11   12 2
    18   11   26 1
    19   12   13 1
    20   13   14 2
    21   13   15 1
    22   15   16 1
    23   15   31 1
    24   16   21 ar
    25   16   17 ar
    26   17   18 ar
    27   17   32 1
    28   18   19 ar
    29   18   33 1
    30   19   20 ar
    31   19   22 1
    32   20   21 ar
    33   20   34 1
    34   21   35 1
    35   22   23 2
    36   22   24 2
    37   22   25 1
    38   25   36 1
    39   25   37 1
    40   26   38 1
    41   26   39 1
@<TRIPOS>MOLECULE
ZINC03816409
   50    52     0     0     0
SMALL
USER_CHARGES
N-[5-[(5-tert-butyloxazol-2-yl)methylsulfanyl]thiazol-2-yl]piperidine-4-carboxamide
@<TRIPOS>ATOM
      1 C1         -0.0127    1.0858    0.0080 C.3       1 <0>        -0.1425
      2 C2         -0.7288    1.5792    1.2668 C.3       1 <0>         0.0153
      3 C3          0.0111    1.0724    2.5063 C.3       1 <0>        -0.1429
      4 C4         -0.7496    3.1091    1.2752 C.3       1 <0>        -0.1470
      5 C5         -2.1426    1.0576    1.2775 C.2       1 <0>        -0.0059
      6 C6         -2.5173   -0.2324    1.2742 C.2       1 <0>        -0.0384
      7 N1         -3.8616   -0.2670    1.2868 N.2       1 <0>        -0.4461
      8 C7         -4.3108    0.9556    1.2976 C.2       1 <0>         0.1754
      9 O1         -3.2687    1.7975    1.2981 O.3       1 <0>        -0.1872
     10 C8         -5.7633    1.3568    1.3132 C.3       1 <0>        -0.0274
     11 S1         -6.3302    1.5091    3.0296 S.3       1 <0>         0.0531
     12 C9         -8.0223    1.9770    2.8797 C.2       1 <0>        -0.2079
     13 C10        -8.9445    2.2293    3.8504 C.2       1 <0>         0.0730
     14 N2        -10.1733    2.5704    3.5096 N.2       1 <0>        -0.4781
     15 C11       -10.5307    2.6731    2.2430 C.2       1 <0>         0.3098
     16 S2         -9.0031    2.2599    1.4114 S.3       1 <0>         0.0397
     17 N3        -11.7659    3.0158    1.7000 N.am      1 <0>        -0.6146
     18 C12       -12.8034    3.3002    2.5119 C.2       1 <0>         0.5107
     19 O2        -12.6609    3.2576    3.7157 O.2       1 <0>        -0.4551
     20 C13       -14.1405    3.6713    1.9241 C.3       1 <0>        -0.1149
     21 C14       -13.9915    4.9332    1.0698 C.3       1 <0>        -0.1461
     22 C15       -15.3628    5.3397    0.5255 C.3       1 <0>         0.0009
     23 C16       -16.4761    4.3789    2.4515 C.3       1 <0>        -0.0009
     24 C17       -15.1380    3.9438    3.0534 C.3       1 <0>        -0.1323
     25 H1          0.0021   -0.0041    0.0020 H         1 <0>         0.0648
     26 H2          1.0099    1.4631    0.0003 H         1 <0>         0.0750
     27 H3         -0.5399    1.4469   -0.8751 H         1 <0>         0.0608
     28 H4          1.0337    1.4497    2.4986 H         1 <0>         0.0751
     29 H5         -0.4990    1.4239    3.4031 H         1 <0>         0.0616
     30 H6          0.0259   -0.0175    2.5003 H         1 <0>         0.0649
     31 H7         -1.2768    3.4701    0.3922 H         1 <0>         0.0605
     32 H8         -1.2598    3.4606    2.1720 H         1 <0>         0.0616
     33 H9          0.2730    3.4864    1.2675 H         1 <0>         0.0706
     34 H10        -1.8578   -1.0876    1.2633 H         1 <0>         0.1891
     35 H11        -5.8813    2.3140    0.8053 H         1 <0>         0.1204
     36 H12        -6.3553    0.5983    0.8010 H         1 <0>         0.1329
     37 H13        -8.6718    2.1504    4.8925 H         1 <0>         0.1794
     38 H14       -11.8799    3.0499    0.7373 H         1 <0>         0.4267
     39 H15       -14.5061    2.8521    1.3049 H         1 <0>         0.1234
     40 H16       -13.5885    5.7409    1.6809 H         1 <0>         0.0995
     41 H17       -13.3151    4.7324    0.2390 H         1 <0>         0.1172
     42 H18       -15.7590    4.5372   -0.0967 H         1 <0>         0.1349
     43 H19       -15.2623    6.2461   -0.0715 H         1 <0>         0.1387
     44 H20       -16.8671    3.5809    1.8204 H         1 <0>         0.1334
     45 H21       -17.1842    4.5877    3.2534 H         1 <0>         0.1392
     46 H22       -15.2808    3.0361    3.6398 H         1 <0>         0.1229
     47 H23       -14.7528    4.7354    3.6961 H         1 <0>         0.1008
     48 N4        -16.2857    5.6006    1.6466 N.4       1 <0>        -0.5187
     49 H24       -17.1928    5.9050    1.2741 H         1 <0>         0.4395
     50 H25       -15.8944    6.3401    2.2417 H         1 <0>         0.4347
@<TRIPOS>BOND
     1    1    2 1
     2    1   25 1
     3    1   26 1
     4    1   27 1
     5    2    3 1
     6    2    4 1
     7    2    5 1
     8    3   28 1
     9    3   29 1
    10    3   30 1
    11    4   31 1
    12    4   32 1
    13    4   33 1
    14    5    9 1
    15    5    6 2
    16    6    7 1
    17    6   34 1
    18    7    8 2
    19    8    9 1
    20    8   10 1
    21   10   11 1
    22   10   35 1
    23   10   36 1
    24   11   12 1
    25   12   16 1
    26   12   13 2
    27   13   14 1
    28   13   37 1
    29   14   15 2
    30   15   16 1
    31   15   17 1
    32   17   18 am
    33   17   38 1
    34   18   19 2
    35   18   20 1
    36   20   24 1
    37   20   21 1
    38   20   39 1
    39   21   22 1
    40   21   40 1
    41   21   41 1
    42   22   42 1
    43   22   43 1
    44   22   48 1
    45   23   24 1
    46   23   44 1
    47   23   45 1
    48   23   48 1
    49   24   46 1
    50   24   47 1
    51   48   49 1
    52   48   50 1
@<TRIPOS>MOLECULE
ZINC03964325
   57    59     0     0     0
SMALL
USER_CHARGES

@<TRIPOS>ATOM
      1 C1          0.1489    2.0884    0.1150 C.3       1 <0>        -0.1876
      2 C2          0.1348    0.5603    0.1888 C.3       1 <0>        -0.0191
      3 N1         -1.2520    0.0881    0.2979 N.4       1 <0>        -0.3822
      4 C3         -1.9779    0.4111   -0.9377 C.3       1 <0>        -0.0142
      5 C4         -3.4549    0.0484   -0.7712 C.3       1 <0>        -0.1895
      6 C5         -1.2593   -1.3663    0.5041 C.3       1 <0>        -0.0265
      7 C6         -0.6131   -1.6936    1.8518 C.3       1 <0>         0.0952
      8 N2         -0.6203   -3.1440    2.0575 N.am      1 <0>        -0.7289
      9 C7         -0.0988   -3.6675    3.1846 C.2       1 <0>         0.6111
     10 O1          0.3779   -2.9358    4.0309 O.2       1 <0>        -0.5184
     11 C8         -0.1061   -5.1270    3.3915 C.2       1 <0>        -0.2420
     12 C9          0.9071   -6.0320    3.0089 C.2       1 <0>        -0.0577
     13 C10         0.4868   -7.2892    3.3960 C.2       1 <0>        -0.0075
     14 N3         -0.7476   -7.1595    3.9982 N.pl3     1 <0>        -0.4910
     15 H1         -1.2731   -7.8879    4.3645 H         1 <0>         0.4270
     16 C11        -1.1044   -5.8642    4.0022 C.2       1 <0>         0.1158
     17 C12        -2.3825   -5.3072    4.5743 C.3       1 <0>        -0.0999
     18 C13         1.1957   -8.4957    3.2079 C.2       1 <0>         0.0729
     19 C14         0.5100   -9.6674    2.9570 C.2       1 <0>        -0.1889
     20 C15         1.0648  -11.0377    2.8871 C.ar      1 <0>        -0.0736
     21 C16         2.3472  -11.5557    3.0375 C.ar      1 <0>        -0.1000
     22 C17         2.5553  -12.9162    2.9116 C.ar      1 <0>         0.0861
     23 C18         1.4888  -13.7593    2.6366 C.ar      1 <0>        -0.1139
     24 C19         0.2139  -13.2531    2.4856 C.ar      1 <0>        -0.1021
     25 C20        -0.0144  -11.8871    2.6092 C.ar      1 <0>         0.1282
     26 N4         -1.1765  -11.1301    2.5069 N.am      1 <0>        -0.6466
     27 C21        -0.9294   -9.8245    2.7079 C.2       1 <0>         0.5595
     28 O2         -1.7538   -8.9280    2.6842 O.2       1 <0>        -0.5156
     29 F1          3.7984  -13.4252    3.0561 F         1 <0>        -0.1318
     30 C22         2.1990   -5.6919    2.3116 C.3       1 <0>        -0.0931
     31 H2          1.1793    2.4435    0.1331 H         1 <0>         0.1076
     32 H3         -0.3308    2.4121   -0.8087 H         1 <0>         0.0811
     33 H4         -0.3916    2.4984    0.9682 H         1 <0>         0.0809
     34 H5          0.5888    0.1488   -0.7126 H         1 <0>         0.1317
     35 H6          0.6996    0.2334    1.0619 H         1 <0>         0.1337
     36 H7         -1.8867    1.4775   -1.1444 H         1 <0>         0.1351
     37 H8         -1.5554   -0.1571   -1.7664 H         1 <0>         0.1307
     38 H9         -3.5537   -1.0316   -0.6617 H         1 <0>         0.0802
     39 H10        -3.8523    0.5414    0.1160 H         1 <0>         0.0808
     40 H11        -4.0109    0.3769   -1.6492 H         1 <0>         0.1074
     41 H12        -2.2871   -1.7292    0.4963 H         1 <0>         0.1397
     42 H13        -0.6973   -1.8494   -0.2952 H         1 <0>         0.1376
     43 H14         0.4147   -1.3306    1.8596 H         1 <0>         0.0893
     44 H15        -1.1751   -1.2105    2.6511 H         1 <0>         0.0890
     45 H16        -1.0005   -3.7277    1.3824 H         1 <0>         0.4099
     46 H17        -3.1529   -5.3000    3.8032 H         1 <0>         0.0840
     47 H18        -2.7087   -5.9289    5.4080 H         1 <0>         0.0782
     48 H19        -2.2103   -4.2898    4.9254 H         1 <0>         0.0840
     49 H20         2.2744   -8.5020    3.2604 H         1 <0>         0.1589
     50 H21         3.1765  -10.8977    3.2512 H         1 <0>         0.1436
     51 H22         1.6578  -14.8215    2.5394 H         1 <0>         0.1485
     52 H23        -0.6084  -13.9196    2.2712 H         1 <0>         0.1415
     53 H24        -2.0541  -11.4980    2.3189 H         1 <0>         0.4217
     54 H25         2.9686   -5.4822    3.0545 H         1 <0>         0.0785
     55 H26         2.5107   -6.5337    1.6932 H         1 <0>         0.0726
     56 H27         2.0522   -4.8138    1.6827 H         1 <0>         0.0634
     57 H28        -1.7009    0.5410    1.0799 H         1 <0>         0.4247
@<TRIPOS>BOND
     1    1    2 1
     2    1   31 1
     3    1   32 1
     4    1   33 1
     5    2    3 1
     6    2   34 1
     7    2   35 1
     8    3    4 1
     9    3    6 1
    10    3   57 1
    11    4    5 1
    12    4   36 1
    13    4   37 1
    14    5   38 1
    15    5   39 1
    16    5   40 1
    17    6    7 1
    18    6   41 1
    19    6   42 1
    20    7    8 1
    21    7   43 1
    22    7   44 1
    23    8    9 am
    24    8   45 1
    25    9   10 2
    26    9   11 1
    27   11   16 2
    28   11   12 1
    29   12   13 2
    30   12   30 1
    31   13   14 1
    32   13   18 1
    33   14   15 1
    34   14   16 1
    35   16   17 1
    36   17   46 1
    37   17   47 1
    38   17   48 1
    39   18   19 2
    40   18   49 1
    41   19   27 1
    42   19   20 1
    43   20   25 ar
    44   20   21 ar
    45   21   22 ar
    46   21   50 1
    47   22   23 ar
    48   22   29 1
    49   23   24 ar
    50   23   51 1
    51   24   25 ar
    52   24   52 1
    53   25   26 1
    54   26   27 am
    55   26   53 1
    56   27   28 2
    57   30   54 1
    58   30   55 1
    59   30   56 1
