@<TRIPOS>MOLECULE
ZINC02020238
   17    16     0     0     0
SMALL
USER_CHARGES
3-aminooxypropan-1-amine
@<TRIPOS>ATOM
      1 C1         -2.8520    1.6409   -2.3740 C.3       1 <0>        -0.1527
      2 C2         -4.2880    1.1159   -2.4296 C.3       1 <0>         0.0012
      3 C3         -2.1335    1.0344   -1.1671 C.3       1 <0>         0.0624
      4 O1         -0.7923    1.5248   -1.1152 O.3       1 <0>        -0.2463
      5 N1         -0.0116    1.0048    0.0076 N.3       1 <0>        -0.6622
      6 H1         -2.8655    2.7269   -2.2809 H         1 <0>         0.0985
      7 H2         -2.3272    1.3612   -3.2876 H         1 <0>         0.0952
      8 H3         -4.2745    0.0300   -2.5228 H         1 <0>         0.1375
      9 H4         -4.8127    1.3957   -1.5161 H         1 <0>         0.1364
     10 H5         -4.4749    1.5073   -4.4421 H         1 <0>         0.4385
     11 H6         -5.9290    1.3667   -3.6472 H         1 <0>         0.4431
     12 H7         -2.1200   -0.0515   -1.2602 H         1 <0>         0.0594
     13 H8         -2.6582    1.3142   -0.2536 H         1 <0>         0.0700
     14 H9          0.0021   -0.0041    0.0020 H         1 <0>         0.3452
     15 H10         0.9253    1.3792    0.0006 H         1 <0>         0.3773
     16 N2         -4.9768    1.7228   -3.5822 N.4       1 <0>        -0.6451
     17 H11        -5.0078    2.7416   -3.4587 H         1 <0>         0.4415
@<TRIPOS>BOND
     1    1    2 1
     2    1    3 1
     3    1    6 1
     4    1    7 1
     5    2    8 1
     6    2    9 1
     7    2   16 1
     8    3    4 1
     9    3   12 1
    10    3   13 1
    11    4    5 1
    12    5   14 1
    13    5   15 1
    14   10   16 1
    15   11   16 1
    16   16   17 1
@<TRIPOS>MOLECULE
ZINC13453673
   18    17     0     0     0
SMALL
USER_CHARGES
(2R)-1-amino-3-aminooxy-propan-2-ol
@<TRIPOS>ATOM
      1 C1         -0.0638    0.9713    2.5033 C.3       1 <0>        -0.0348
      2 C2         -0.7288    1.5792    1.2668 C.3       1 <0>         0.0839
      3 H1         -1.7755    1.2768    1.2315 H         1 <0>         0.1308
      4 C3         -0.0127    1.0858    0.0080 C.3       1 <0>         0.0298
      5 O1         -0.7038    1.5592   -1.1497 O.3       1 <0>        -0.2343
      6 N1         -0.0996    1.1426   -2.4153 N.3       1 <0>        -0.6632
      7 O2         -0.6468    3.0043    1.3339 O.3       1 <0>        -0.5455
      8 H2         -0.0472   -0.1146    2.4102 H         1 <0>         0.1479
      9 H3          0.9570    1.3444    2.5873 H         1 <0>         0.1404
     10 H4          0.0021   -0.0041    0.0020 H         1 <0>         0.0684
     11 H5          1.0099    1.4631    0.0003 H         1 <0>         0.0743
     12 H6         -0.0174    0.1381   -2.4634 H         1 <0>         0.3443
     13 H7         -0.6222    1.5007   -3.2006 H         1 <0>         0.3786
     14 H8          0.2576    3.3450    1.3680 H         1 <0>         0.3925
     15 H9         -1.7896    1.0701    3.6214 H         1 <0>         0.4395
     16 H10        -0.4036    0.9587    4.5338 H         1 <0>         0.4432
     17 N2         -0.8205    1.3735    3.7020 N.4       1 <0>        -0.6406
     18 H11        -0.7958    2.3962    3.7894 H         1 <0>         0.4449
@<TRIPOS>BOND
     1    1    2 1
     2    1    8 1
     3    1    9 1
     4    1   17 1
     5    2    3 1
     6    2    4 1
     7    2    7 1
     8    4    5 1
     9    4   10 1
    10    4   11 1
    11    5    6 1
    12    6   12 1
    13    6   13 1
    14    7   14 1
    15   15   17 1
    16   16   17 1
    17   17   18 1
@<TRIPOS>MOLECULE
ZINC13453678
   18    17     0     0     0
SMALL
USER_CHARGES
(2S)-1-amino-3-aminooxy-propan-2-ol
@<TRIPOS>ATOM
      1 C1         -0.7955    1.5269   -1.1198 C.3       1 <0>        -0.0346
      2 C2         -2.2069    0.9381   -1.0756 C.3       1 <0>         0.0827
      3 H1         -2.6880    1.2175   -0.1383 H         1 <0>         0.1350
      4 C3         -3.0234    1.4818   -2.2498 C.3       1 <0>         0.0305
      5 O1         -4.3731    1.0247   -2.1437 O.3       1 <0>        -0.2346
      6 N1         -5.2453    1.4893   -3.2225 N.3       1 <0>        -0.6630
      7 O2         -2.1320   -0.4861   -1.1665 O.3       1 <0>        -0.5477
      8 H2         -0.8526    2.6132   -1.0504 H         1 <0>         0.1476
      9 H3         -0.3144    1.2475   -2.0571 H         1 <0>         0.1413
     10 H4         -3.0062    2.5715   -2.2305 H         1 <0>         0.0793
     11 H5         -2.5926    1.1282   -3.1865 H         1 <0>         0.0634
     12 H6         -4.8749    1.2291   -4.1243 H         1 <0>         0.3447
     13 H7         -6.1848    1.1411   -3.1033 H         1 <0>         0.3785
     14 H8         -1.7142   -0.8070   -1.9775 H         1 <0>         0.3897
     15 H9          0.0021   -0.0041    0.0020 H         1 <0>         0.4418
     16 H10         0.9253    1.3792    0.0006 H         1 <0>         0.4433
     17 N2         -0.0252    1.0139    0.0269 N.4       1 <0>        -0.6404
     18 H11        -0.4761    1.3157    0.8986 H         1 <0>         0.4426
@<TRIPOS>BOND
     1    1    2 1
     2    1    8 1
     3    1    9 1
     4    1   17 1
     5    2    3 1
     6    2    4 1
     7    2    7 1
     8    4    5 1
     9    4   10 1
    10    4   11 1
    11    5    6 1
    12    6   12 1
    13    6   13 1
    14    7   14 1
    15   15   17 1
    16   16   17 1
    17   17   18 1
@<TRIPOS>MOLECULE
ZINC13453746
   17    16     0     0     0
SMALL
USER_CHARGES
O-[(2R)-3-amino-2-chloro-propyl]hydroxylamine
@<TRIPOS>ATOM
      1 C1         -2.1980    1.1548    1.2173 C.3       1 <0>        -0.0035
      2 C2         -0.7288    1.5792    1.2668 C.3       1 <0>        -0.0441
      3 H1         -0.6662    2.6662    1.3180 H         1 <0>         0.1355
      4 C3         -0.0127    1.0858    0.0080 C.3       1 <0>         0.0560
      5 O1         -0.7038    1.5592   -1.1497 O.3       1 <0>        -0.2566
      6 N1         -0.0996    1.1426   -2.4153 N.3       1 <0>        -0.6528
      7 Cl1         0.0549    0.8629    2.7240 Cl        1 <0>        -0.1196
      8 H2         -2.6718    1.5879    0.3364 H         1 <0>         0.1628
      9 H3         -2.2606    0.0678    1.1661 H         1 <0>         0.1476
     10 H4          0.0021   -0.0041    0.0020 H         1 <0>         0.0860
     11 H5          1.0099    1.4631    0.0003 H         1 <0>         0.0832
     12 H6         -0.6222    1.5007   -3.2006 H         1 <0>         0.3784
     13 H7          0.8675    1.4262   -2.4649 H         1 <0>         0.3510
     14 H8         -2.7865    2.6272    2.5303 H         1 <0>         0.4392
     15 H9         -3.8583    1.3606    2.4170 H         1 <0>         0.4471
     16 N2         -2.8725    1.6159    2.4435 N.4       1 <0>        -0.6486
     17 H10        -2.4331    1.1712    3.2580 H         1 <0>         0.4383
@<TRIPOS>BOND
     1    1    2 1
     2    1    8 1
     3    1    9 1
     4    1   16 1
     5    2    3 1
     6    2    4 1
     7    2    7 1
     8    4    5 1
     9    4   10 1
    10    4   11 1
    11    5    6 1
    12    6   12 1
    13    6   13 1
    14   14   16 1
    15   15   16 1
    16   16   17 1
@<TRIPOS>MOLECULE
ZINC13453751
   17    16     0     0     0
SMALL
USER_CHARGES
O-[(2S)-3-amino-2-chloro-propyl]hydroxylamine
@<TRIPOS>ATOM
      1 C1         -0.7955    1.5269   -1.1198 C.3       1 <0>        -0.0055
      2 C2         -2.2069    0.9381   -1.0756 C.3       1 <0>        -0.0426
      3 H1         -2.6880    1.2175   -0.1383 H         1 <0>         0.1437
      4 C3         -3.0234    1.4818   -2.2498 C.3       1 <0>         0.0548
      5 O1         -2.3335    1.2169   -3.4729 O.3       1 <0>        -0.2504
      6 N1         -3.0308    1.6979   -4.6656 N.3       1 <0>        -0.6564
      7 Cl1        -2.1124   -0.8588   -1.1903 Cl        1 <0>        -0.1315
      8 H2         -0.8526    2.6132   -1.0504 H         1 <0>         0.1557
      9 H3         -0.3144    1.2475   -2.0571 H         1 <0>         0.1549
     10 H4         -3.9987    0.9957   -2.2702 H         1 <0>         0.0836
     11 H5         -3.1559    2.5574   -2.1330 H         1 <0>         0.0911
     12 H6         -2.5054    1.4878   -5.5010 H         1 <0>         0.3774
     13 H7         -3.9628    1.3151   -4.7187 H         1 <0>         0.3497
     14 H8          0.0021   -0.0041    0.0020 H         1 <0>         0.4367
     15 H9          0.9253    1.3792    0.0006 H         1 <0>         0.4470
     16 N2         -0.0252    1.0139    0.0269 N.4       1 <0>        -0.6488
     17 H10        -0.4761    1.3157    0.8986 H         1 <0>         0.4407
@<TRIPOS>BOND
     1    1    2 1
     2    1    8 1
     3    1    9 1
     4    1   16 1
     5    2    3 1
     6    2    4 1
     7    2    7 1
     8    4    5 1
     9    4   10 1
    10    4   11 1
    11    5    6 1
    12    6   12 1
    13    6   13 1
    14   14   16 1
    15   15   16 1
    16   16   17 1
@<TRIPOS>MOLECULE
ZINC01492791
   17    16     0     0     0
SMALL
USER_CHARGES
3-aminooxy-2-fluoro-propan-1-amine
@<TRIPOS>ATOM
      1 C1         -2.1980    1.1548    1.2173 C.3       1 <0>        -0.0271
      2 C2         -0.7288    1.5792    1.2668 C.3       1 <0>         0.0768
      3 H1         -0.6662    2.6662    1.3180 H         1 <0>         0.1198
      4 C3         -0.0127    1.0858    0.0080 C.3       1 <0>         0.0334
      5 O1         -0.7038    1.5592   -1.1497 O.3       1 <0>        -0.2542
      6 N1         -0.0996    1.1426   -2.4153 N.3       1 <0>        -0.6533
      7 F1         -0.1207    1.0234    2.3975 F         1 <0>        -0.1855
      8 H2         -2.6718    1.5879    0.3364 H         1 <0>         0.1610
      9 H3         -2.2606    0.0678    1.1661 H         1 <0>         0.1471
     10 H4          0.0021   -0.0041    0.0020 H         1 <0>         0.0860
     11 H5          1.0099    1.4631    0.0003 H         1 <0>         0.0838
     12 H6         -0.6222    1.5007   -3.2006 H         1 <0>         0.3786
     13 H7          0.8675    1.4262   -2.4649 H         1 <0>         0.3512
     14 H8         -2.7865    2.6272    2.5303 H         1 <0>         0.4388
     15 H9         -3.8583    1.3606    2.4170 H         1 <0>         0.4461
     16 N2         -2.8725    1.6159    2.4435 N.4       1 <0>        -0.6462
     17 H10        -2.4331    1.1712    3.2580 H         1 <0>         0.4436
@<TRIPOS>BOND
     1    1    2 1
     2    1    8 1
     3    1    9 1
     4    1   16 1
     5    2    3 1
     6    2    4 1
     7    2    7 1
     8    4    5 1
     9    4   10 1
    10    4   11 1
    11    5    6 1
    12    6   12 1
    13    6   13 1
    14   14   16 1
    15   15   16 1
    16   16   17 1
@<TRIPOS>MOLECULE
ZINC05131797
   17    16     0     0     0
SMALL
USER_CHARGES
3-aminooxy-2-fluoro-propan-1-amine
@<TRIPOS>ATOM
      1 C1         -0.7955    1.5269   -1.1198 C.3       1 <0>        -0.0295
      2 C2         -2.2069    0.9381   -1.0756 C.3       1 <0>         0.0777
      3 H1         -2.6880    1.2175   -0.1383 H         1 <0>         0.1285
      4 C3         -3.0234    1.4818   -2.2498 C.3       1 <0>         0.0309
      5 O1         -2.3335    1.2169   -3.4729 O.3       1 <0>        -0.2533
      6 N1         -3.0308    1.6979   -4.6656 N.3       1 <0>        -0.6565
      7 F1         -2.1336   -0.4562   -1.1646 F         1 <0>        -0.1916
      8 H2         -0.8526    2.6132   -1.0504 H         1 <0>         0.1545
      9 H3         -0.3144    1.2475   -2.0571 H         1 <0>         0.1541
     10 H4         -3.9987    0.9957   -2.2702 H         1 <0>         0.0838
     11 H5         -3.1559    2.5574   -2.1330 H         1 <0>         0.0919
     12 H6         -2.5054    1.4878   -5.5010 H         1 <0>         0.3775
     13 H7         -3.9628    1.3151   -4.7187 H         1 <0>         0.3500
     14 H8          0.0021   -0.0041    0.0020 H         1 <0>         0.4417
     15 H9          0.9253    1.3792    0.0006 H         1 <0>         0.4461
     16 N2         -0.0252    1.0139    0.0269 N.4       1 <0>        -0.6463
     17 H10        -0.4761    1.3157    0.8986 H         1 <0>         0.4403
@<TRIPOS>BOND
     1    1    2 1
     2    1    8 1
     3    1    9 1
     4    1   16 1
     5    2    3 1
     6    2    4 1
     7    2    7 1
     8    4    5 1
     9    4   10 1
    10    4   11 1
    11    5    6 1
    12    6   12 1
    13    6   13 1
    14   14   16 1
    15   15   16 1
    16   16   17 1
@<TRIPOS>MOLECULE
ZINC52969848
   22    21     0     0     0
SMALL
USER_CHARGES

@<TRIPOS>ATOM
      1 C1         -0.0184    1.5028    0.0103 C.3       1 <0>         0.0418
      2 C2          0.0021   -0.0041    0.0020 C.2       1 <0>        -0.2838
      3 C3         -0.6308   -0.6728    0.9338 C.2       1 <0>        -0.0062
      4 C4         -0.6104   -2.1797    0.9256 C.3       1 <0>         0.0157
      5 C5          0.0186   -2.6884    2.2242 C.3       1 <0>         0.1010
      6 F1         -0.7339   -2.2382    3.3144 F         1 <0>        -0.2004
      7 C6         -2.0199   -2.7006    0.8124 C.2       1 <0>         0.4738
      8 O1         -2.3370   -3.4007   -0.1341 O.co2     1 <0>        -0.6792
      9 O2         -2.8433   -2.4219    1.6673 O.co2     1 <0>        -0.6640
     10 N1          0.1797   -2.6524   -0.2191 N.3       1 <0>        -0.8221
     11 N2          1.3598    2.0112   -0.0001 N.4       1 <0>        -0.6338
     12 H1         -0.5455    1.8639   -0.8728 H         1 <0>         0.1314
     13 H2         -0.5286    1.8543    0.9071 H         1 <0>         0.1272
     14 H3          0.5385   -0.5326   -0.7721 H         1 <0>         0.1454
     15 H4         -1.1672   -0.1443    1.7080 H         1 <0>         0.1235
     16 H5          0.0334   -3.7782    2.2183 H         1 <0>         0.0720
     17 H6          1.0381   -2.3116    2.3061 H         1 <0>         0.0689
     18 H7          0.2626   -3.6579   -0.2107 H         1 <0>         0.3486
     19 H8         -0.2156   -2.3294   -1.0894 H         1 <0>         0.3439
     20 H9          1.8478    1.6770    0.8173 H         1 <0>         0.4335
     21 H10         1.8321    1.6858   -0.8303 H         1 <0>         0.4328
     22 H11         1.3461    3.0201    0.0054 H         1 <0>         0.4300
@<TRIPOS>BOND
     1    1    2 1
     2    1   11 1
     3    1   12 1
     4    1   13 1
     5    2    3 2
     6    2   14 1
     7    3    4 1
     8    3   15 1
     9    4    5 1
    10    4    7 1
    11    4   10 1
    12    5    6 1
    13    5   16 1
    14    5   17 1
    15    7    8 2
    16    7    9 1
    17   10   18 1
    18   10   19 1
    19   11   20 1
    20   11   21 1
    21   11   22 1
@<TRIPOS>MOLECULE
ZINC52969852
   22    21     0     0     0
SMALL
USER_CHARGES

@<TRIPOS>ATOM
      1 C1         -0.0184    1.5028    0.0103 C.3       1 <0>         0.0482
      2 C2          0.0021   -0.0041    0.0020 C.2       1 <0>        -0.3092
      3 C3         -0.6308   -0.6728    0.9338 C.2       1 <0>        -0.0333
      4 C4         -0.6104   -2.1797    0.9256 C.3       1 <0>         0.0247
      5 C5         -2.0415   -2.7085    0.8107 C.3       1 <0>         0.0983
      6 F1         -2.7939   -2.2583    1.9008 F         1 <0>        -0.1996
      7 C6          0.0091   -2.6807    2.2047 C.2       1 <0>         0.5074
      8 O1         -0.4961   -2.3989    3.2780 O.co2     1 <0>        -0.6677
      9 O2          1.0155   -3.3679    2.1664 O.co2     1 <0>        -0.6598
     10 N1          0.1797   -2.6524   -0.2191 N.3       1 <0>        -0.8072
     11 N2          1.3598    2.0112   -0.0001 N.4       1 <0>        -0.6356
     12 H1         -0.5455    1.8639   -0.8728 H         1 <0>         0.1311
     13 H2         -0.5286    1.8543    0.9071 H         1 <0>         0.1286
     14 H3          0.5385   -0.5326   -0.7721 H         1 <0>         0.1296
     15 H4         -1.1672   -0.1443    1.7080 H         1 <0>         0.1268
     16 H5         -2.4895   -2.3461   -0.1146 H         1 <0>         0.0610
     17 H6         -2.0267   -3.7984    0.8047 H         1 <0>         0.0837
     18 H7         -0.2509   -2.3840   -1.0912 H         1 <0>         0.3243
     19 H8          1.1296   -2.3162   -0.1663 H         1 <0>         0.3489
     20 H9          1.8478    1.6770    0.8173 H         1 <0>         0.4370
     21 H10         1.8321    1.6858   -0.8303 H         1 <0>         0.4320
     22 H11         1.3461    3.0201    0.0054 H         1 <0>         0.4309
@<TRIPOS>BOND
     1    1    2 1
     2    1   11 1
     3    1   12 1
     4    1   13 1
     5    2    3 2
     6    2   14 1
     7    3    4 1
     8    3   15 1
     9    4    5 1
    10    4    7 1
    11    4   10 1
    12    5    6 1
    13    5   16 1
    14    5   17 1
    15    7    8 2
    16    7    9 1
    17   10   18 1
    18   10   19 1
    19   11   20 1
    20   11   21 1
    21   11   22 1
@<TRIPOS>MOLECULE
ZINC05113920
   25    24     0     0     0
SMALL
USER_CHARGES
2,5-diamino-2-(fluoromethyl)pentanoic acid
@<TRIPOS>ATOM
      1 C1         -2.1265    1.3288    1.3433 C.3       1 <0>        -0.1753
      2 C2         -0.7340    1.9582    1.2689 C.3       1 <0>        -0.1190
      3 C3         -0.0178    1.4648    0.0101 C.3       1 <0>        -0.0241
      4 C4         -0.7578    1.9716   -1.2294 C.3       1 <0>         0.0678
      5 F1         -0.7768    3.3705   -1.2217 F         1 <0>        -0.1748
      6 C5          1.3960    1.9864   -0.0006 C.2       1 <0>         0.4523
      7 O1          1.6718    2.9964    0.6024 O.co2     1 <0>        -0.5574
      8 C6         -2.8427    1.8222    2.6021 C.3       1 <0>        -0.0014
      9 H1         -2.7018    1.6142    0.4625 H         1 <0>         0.1000
     10 H2         -2.0332    0.2434    1.3802 H         1 <0>         0.0805
     11 H3         -0.1587    1.6728    2.1496 H         1 <0>         0.1036
     12 H4         -0.8273    3.0436    1.2320 H         1 <0>         0.1286
     13 H5         -0.2476    1.6201   -2.1262 H         1 <0>         0.1032
     14 H6         -1.7804    1.5943   -1.2217 H         1 <0>         0.0845
     15 H7          0.4857   -0.3636    0.8113 H         1 <0>         0.4400
     16 H8         -0.9333   -0.3781   -0.0560 H         1 <0>         0.4112
     17 H9         -2.2674    1.5368    3.4828 H         1 <0>         0.1420
     18 H10        -2.9360    2.9076    2.5651 H         1 <0>         0.1423
     19 H11        -4.1234    0.2109    2.6438 H         1 <0>         0.4358
     20 H12        -4.6733    1.5283    3.4969 H         1 <0>         0.4461
     21 O2          2.3488    1.3289   -0.6800 O.co2     1 <0>        -0.7127
     22 N1          0.0151   -0.0081   -0.0193 N.4       1 <0>        -0.6188
     23 H13         0.5280   -0.3177   -0.8532 H         1 <0>         0.4524
     24 N2         -4.1899    1.2273    2.6523 N.4       1 <0>        -0.6479
     25 H14        -4.7254    1.5349    1.8321 H         1 <0>         0.4411
@<TRIPOS>BOND
     1    1    2 1
     2    1    8 1
     3    1    9 1
     4    1   10 1
     5    2    3 1
     6    2   11 1
     7    2   12 1
     8    3    4 1
     9    3    6 1
    10    3   22 1
    11    4    5 1
    12    4   13 1
    13    4   14 1
    14    6    7 2
    15    6   21 1
    16    8   17 1
    17    8   18 1
    18    8   24 1
    19   15   22 1
    20   16   22 1
    21   19   24 1
    22   20   24 1
    23   22   23 1
    24   24   25 1
@<TRIPOS>MOLECULE
ZINC05113953
   25    24     0     0     0
SMALL
USER_CHARGES
2,5-diamino-2-(fluoromethyl)pentanoic acid
@<TRIPOS>ATOM
      1 C1         -0.0127    1.0858    0.0080 C.3       1 <0>        -0.1755
      2 C2         -0.7288    1.5792    1.2668 C.3       1 <0>        -0.1234
      3 C3          0.0111    1.0724    2.5063 C.3       1 <0>        -0.0222
      4 C4          0.0319   -0.4574    2.4979 C.3       1 <0>         0.0669
      5 F1         -1.2806   -0.9417    2.5079 F         1 <0>        -0.1748
      6 C5         -0.6942    1.5584    3.7462 C.2       1 <0>         0.4545
      7 O1         -1.8708    1.8301    3.7047 O.co2     1 <0>        -0.5583
      8 C6         -0.7527    1.5927   -1.2315 C.3       1 <0>        -0.0013
      9 H1          0.0021   -0.0041    0.0020 H         1 <0>         0.1013
     10 H2          1.0099    1.4631    0.0003 H         1 <0>         0.0802
     11 H3         -0.7436    2.6691    1.2728 H         1 <0>         0.1027
     12 H4         -1.7514    1.2020    1.2746 H         1 <0>         0.1303
     13 H5          0.5421   -0.8090    1.6011 H         1 <0>         0.0843
     14 H6          0.5591   -0.8185    3.3810 H         1 <0>         0.1038
     15 H7          1.4025    2.5898    2.5012 H         1 <0>         0.4414
     16 H8          1.9181    1.2082    3.2703 H         1 <0>         0.4487
     17 H9         -1.7753    1.2154   -1.2238 H         1 <0>         0.1426
     18 H10        -0.7675    2.6825   -1.2255 H         1 <0>         0.1418
     19 H11        -0.5350    1.4407   -3.2731 H         1 <0>         0.4461
     20 H12         0.9035    1.4015   -2.4393 H         1 <0>         0.4357
     21 O2         -0.0154    1.6895    4.8968 O.co2     1 <0>        -0.7118
     22 N1          1.3972    1.5715    2.4738 N.4       1 <0>        -0.6182
     23 H13         1.8488    1.2574    1.6068 H         1 <0>         0.4118
     24 N2         -0.0676    1.0939   -2.4370 N.4       1 <0>        -0.6480
     25 H14        -0.0939    0.0675   -2.4398 H         1 <0>         0.4414
@<TRIPOS>BOND
     1    1    2 1
     2    1    8 1
     3    1    9 1
     4    1   10 1
     5    2    3 1
     6    2   11 1
     7    2   12 1
     8    3    4 1
     9    3    6 1
    10    3   22 1
    11    4    5 1
    12    4   13 1
    13    4   14 1
    14    6    7 2
    15    6   21 1
    16    8   17 1
    17    8   18 1
    18    8   24 1
    19   15   22 1
    20   16   22 1
    21   19   24 1
    22   20   24 1
    23   22   23 1
    24   24   25 1
@<TRIPOS>MOLECULE
ZINC29327208
   23    22     0     0     0
SMALL
USER_CHARGES
(E,2R)-2,5-diamino-2-methyl-pent-3-enoic acid
@<TRIPOS>ATOM
      1 C1         -0.7345    1.9962    1.2691 C.3       1 <0>        -0.1608
      2 C2         -0.0184    1.5028    0.0103 C.3       1 <0>         0.0360
      3 C3          0.0021   -0.0041    0.0020 C.2       1 <0>        -0.0362
      4 C4          1.1453   -0.6436   -0.0123 C.2       1 <0>        -0.2759
      5 C5          1.1657   -2.1504   -0.0206 C.3       1 <0>         0.0480
      6 N1          1.9558   -2.6231   -1.1653 N.4       1 <0>        -0.6871
      7 C6         -0.7472    2.0020   -1.2106 C.2       1 <0>         0.4585
      8 O1         -1.5688    1.3010   -1.7525 O.co2     1 <0>        -0.5742
      9 O2         -0.4838    3.2254   -1.6961 O.co2     1 <0>        -0.7093
     10 N2          1.3598    2.0112   -0.0001 N.4       1 <0>        -0.6623
     11 H1         -0.7494    3.0961    1.2751 H         1 <0>         0.0938
     12 H2         -0.2024    1.6318    2.1602 H         1 <0>         0.0766
     13 H3         -1.7665    1.6154    1.2769 H         1 <0>         0.1047
     14 H4         -0.9429   -0.5670    0.0080 H         1 <0>         0.1626
     15 H5          2.0903   -0.0807   -0.0182 H         1 <0>         0.1244
     16 H6          1.6179   -2.5161    0.9131 H         1 <0>         0.1365
     17 H7          0.1368   -2.5306   -0.1032 H         1 <0>         0.1343
     18 H8          1.9707   -3.7230   -1.1714 H         1 <0>         0.4635
     19 H9          2.9847   -2.2429   -1.0827 H         1 <0>         0.4536
     20 H10         1.8746    1.6565   -0.9051 H         1 <0>         0.4456
     21 H11         1.8918    1.6467    0.8911 H         1 <0>         0.4343
     22 H12         1.3449    3.1111    0.0060 H         1 <0>         0.4722
     23 H13         1.5036   -2.2574   -2.0990 H         1 <0>         0.4611
@<TRIPOS>BOND
     1    1    2 1
     2    1   11 1
     3    1   12 1
     4    1   13 1
     5    2    3 1
     6    2    7 1
     7    2   10 1
     8    3    4 2
     9    3   14 1
    10    4    5 1
    11    4   15 1
    12    5    6 1
    13    5   16 1
    14    5   17 1
    15    6   18 1
    16    6   19 1
    17    6   23 1
    18    7    8 2
    19    7    9 1
    20   10   20 1
    21   10   21 1
    22   10   22 1
@<TRIPOS>MOLECULE
ZINC29327213
   23    22     0     0     0
SMALL
USER_CHARGES
(E,2S)-2,5-diamino-2-methyl-pent-3-enoic acid
@<TRIPOS>ATOM
      1 C1         -1.8446    2.2208   -1.4142 C.3       1 <0>        -0.1576
      2 C2         -1.3313    2.0738    0.0196 C.3       1 <0>         0.0349
      3 C3         -1.1382    3.4395    0.6266 C.2       1 <0>        -0.0363
      4 C4         -1.8035    3.7779    1.7032 C.2       1 <0>        -0.2747
      5 C5         -1.6104    5.1437    2.3101 C.3       1 <0>         0.0464
      6 N1         -2.9117    5.8146    2.4301 N.4       1 <0>        -0.6858
      7 C6         -0.0161    1.3381    0.0094 C.2       1 <0>         0.4567
      8 O1          1.0219    1.9564    0.0028 O.co2     1 <0>        -0.5712
      9 O2          0.0021   -0.0041    0.0020 O.co2     1 <0>        -0.7099
     10 N2         -2.3088    1.3184    0.8146 N.4       1 <0>        -0.6620
     11 H1         -1.9855    1.2239   -1.8572 H         1 <0>         0.0941
     12 H2         -1.1127    2.7865   -2.0095 H         1 <0>         0.1044
     13 H3         -2.8046    2.7578   -1.4067 H         1 <0>         0.0737
     14 H4         -0.4386    4.1523    0.1656 H         1 <0>         0.1627
     15 H5         -2.5031    3.0651    2.1642 H         1 <0>         0.1243
     16 H6         -1.1574    5.0411    3.3072 H         1 <0>         0.1390
     17 H7         -0.9480    5.7408    1.6661 H         1 <0>         0.1354
     18 H8         -2.7708    6.8115    2.8731 H         1 <0>         0.4642
     19 H9         -3.5741    5.2175    3.0741 H         1 <0>         0.4541
     20 H10        -1.9398    1.2127    1.8454 H         1 <0>         0.4505
     21 H11        -2.4497    0.3215    0.3716 H         1 <0>         0.4721
     22 H12        -3.2688    1.8554    0.8220 H         1 <0>         0.4291
     23 H13        -3.3647    5.9171    1.4330 H         1 <0>         0.4558
@<TRIPOS>BOND
     1    1    2 1
     2    1   11 1
     3    1   12 1
     4    1   13 1
     5    2    3 1
     6    2    7 1
     7    2   10 1
     8    3    4 2
     9    3   14 1
    10    4    5 1
    11    4   15 1
    12    5    6 1
    13    5   16 1
    14    5   17 1
    15    6   18 1
    16    6   19 1
    17    6   23 1
    18    7    8 2
    19    7    9 1
    20   10   20 1
    21   10   21 1
    22   10   22 1
@<TRIPOS>MOLECULE
ZINC06020644
   25    24     0     0     0
SMALL
USER_CHARGES
hept-6-yne-2,5-diamine
@<TRIPOS>ATOM
      1 C1          4.3277    1.0582   -2.4646 C.3       1 <0>        -0.1898
      2 C2          3.6116    1.5516   -1.2058 C.3       1 <0>         0.0376
      3 H1          3.5968    2.6415   -1.1998 H         1 <0>         0.1463
      4 C3          2.1762    1.0220   -1.1949 C.3       1 <0>        -0.1694
      5 C4          1.4227    1.6154   -0.0028 C.3       1 <0>        -0.1649
      6 C5         -0.0127    1.0858    0.0080 C.3       1 <0>         0.1878
      7 H2          0.0021   -0.0041    0.0020 H         1 <0>         0.1602
      8 C6         -0.7017    1.5605    1.2191 C.1       1 <0>        -0.3294
      9 C7         -1.2512    1.9391    2.1850 C.1       1 <0>        -0.0113
     10 H3          4.3425   -0.0317   -2.4706 H         1 <0>         0.0872
     11 H4          3.8005    1.4193   -3.3477 H         1 <0>         0.1095
     12 H5          5.3503    1.4355   -2.4723 H         1 <0>         0.0927
     13 H6          2.1905   -0.0647   -1.1113 H         1 <0>         0.1111
     14 H7          1.6761    1.3087   -2.1200 H         1 <0>         0.1109
     15 H8          1.4084    2.7021   -0.0864 H         1 <0>         0.1111
     16 H9          1.9227    1.3287    0.9223 H         1 <0>         0.1113
     17 H10        -1.7427    2.2778    3.0489 H         1 <0>         0.2409
     18 H11        -1.6533    1.1846   -1.2317 H         1 <0>         0.4509
     19 H12        -0.7506    2.5809   -1.1997 H         1 <0>         0.4422
     20 H13         4.2938    0.0577    0.0356 H         1 <0>         0.4391
     21 H14         5.2732    1.4014    0.0004 H         1 <0>         0.4485
     22 N1         -0.7082    1.5631   -1.2002 N.4       1 <0>        -0.6494
     23 H15        -0.1938    1.2497   -2.0317 H         1 <0>         0.4410
     24 N2          4.3080    1.0757    0.0024 N.4       1 <0>        -0.6509
     25 H16         3.8317    1.4447    0.8339 H         1 <0>         0.4367
@<TRIPOS>BOND
     1    1    2 1
     2    1   10 1
     3    1   11 1
     4    1   12 1
     5    2    3 1
     6    2    4 1
     7    2   24 1
     8    4    5 1
     9    4   13 1
    10    4   14 1
    11    5    6 1
    12    5   15 1
    13    5   16 1
    14    6    7 1
    15    6    8 1
    16    6   22 1
    17    8    9 3
    18    9   17 1
    19   18   22 1
    20   19   22 1
    21   20   24 1
    22   21   24 1
    23   22   23 1
    24   24   25 1
@<TRIPOS>MOLECULE
ZINC29414525
   21    20     0     0     0
SMALL
USER_CHARGES
(4R)-2,2-difluorohex-5-yne-1,4-diamine
@<TRIPOS>ATOM
      1 C1         -1.2925    1.9623   -2.1356 C.1       1 <0>        -0.1554
      2 C2         -0.7246    1.5734   -1.1845 C.1       1 <0>        -0.2202
      3 C3         -0.0127    1.0858    0.0080 C.3       1 <0>         0.1977
      4 H1         -0.0392   -0.0139    0.0041 H         1 <0>         0.1119
      5 C4          1.4227    1.6154   -0.0028 C.3       1 <0>        -0.1983
      6 C5          2.1988    1.0094    1.1682 C.3       1 <0>         0.2729
      7 C6          3.6341    1.5389    1.1573 C.3       1 <0>        -0.0376
      8 N1          4.3793    0.9571    2.2817 N.4       1 <0>        -0.6886
      9 F1          1.5798    1.3645    2.3715 F         1 <0>        -0.1767
     10 F2          2.2149   -0.3842    1.0456 F         1 <0>        -0.1767
     11 N2         -0.7003    1.5596    1.2166 N.3       1 <0>        -0.8286
     12 H2         -1.8246    2.3267   -3.0267 H         1 <0>         0.2389
     13 H3          1.9094    1.3362   -0.9489 H         1 <0>         0.1192
     14 H4          1.4100    2.7111    0.0936 H         1 <0>         0.1147
     15 H5          4.1208    1.2596    0.2112 H         1 <0>         0.1647
     16 H6          3.6215    2.6346    1.2536 H         1 <0>         0.1637
     17 H7          5.4113    1.3379    2.2738 H         1 <0>         0.4720
     18 H8          4.3920   -0.1386    2.1854 H         1 <0>         0.4650
     19 H9         -0.1683    1.1952    2.1078 H         1 <0>         0.3511
     20 H10        -0.7152    2.6595    1.2226 H         1 <0>         0.3461
     21 H11         3.8926    1.2364    3.2278 H         1 <0>         0.4643
@<TRIPOS>BOND
     1    1    2 3
     2    1   12 1
     3    2    3 1
     4    3    4 1
     5    3    5 1
     6    3   11 1
     7    5    6 1
     8    5   13 1
     9    5   14 1
    10    6    7 1
    11    6    9 1
    12    6   10 1
    13    7    8 1
    14    7   15 1
    15    7   16 1
    16    8   17 1
    17    8   18 1
    18    8   21 1
    19   11   19 1
    20   11   20 1
@<TRIPOS>MOLECULE
ZINC29414525
   20    19     0     0     0
SMALL
USER_CHARGES
(4R)-2,2-difluorohex-5-yne-1,4-diamine
@<TRIPOS>ATOM
      1 C1         -1.2925    1.9623   -2.1356 C.1       1 <0>        -0.1879
      2 C2         -0.7246    1.5734   -1.1845 C.1       1 <0>        -0.1933
      3 C3         -0.0127    1.0858    0.0080 C.3       1 <0>         0.1902
      4 H1         -0.0392   -0.0139    0.0041 H         1 <0>         0.1093
      5 C4          1.4227    1.6154   -0.0028 C.3       1 <0>        -0.1936
      6 C5          2.1988    1.0094    1.1682 C.3       1 <0>         0.2960
      7 C6          3.6341    1.5389    1.1573 C.3       1 <0>         0.0077
      8 N1          4.3793    0.9571    2.2817 N.3       1 <0>        -0.8279
      9 F1          1.5798    1.3645    2.3715 F         1 <0>        -0.1929
     10 F2          2.2149   -0.3842    1.0456 F         1 <0>        -0.1839
     11 N2         -0.7003    1.5596    1.2166 N.3       1 <0>        -0.8324
     12 H2         -1.8246    2.3267   -3.0267 H         1 <0>         0.2344
     13 H3          1.9094    1.3362   -0.9489 H         1 <0>         0.1070
     14 H4          1.4100    2.7111    0.0936 H         1 <0>         0.1013
     15 H5          4.1208    1.2596    0.2112 H         1 <0>         0.1054
     16 H6          3.6215    2.6346    1.2536 H         1 <0>         0.0612
     17 H7          5.4113    1.3379    2.2738 H         1 <0>         0.3544
     18 H8         -0.1683    1.1952    2.1078 H         1 <0>         0.3581
     19 H9          3.8926    1.2364    3.2278 H         1 <0>         0.3481
     20 H10        -0.7152    2.6595    1.2226 H         1 <0>         0.3389
@<TRIPOS>BOND
     1    1    2 3
     2    1   12 1
     3    2    3 1
     4    3    4 1
     5    3    5 1
     6    3   11 1
     7    5    6 1
     8    5   13 1
     9    5   14 1
    10    6    7 1
    11    6    9 1
    12    6   10 1
    13    7    8 1
    14    7   15 1
    15    7   16 1
    16    8   17 1
    17    8   19 1
    18   11   18 1
    19   11   20 1
@<TRIPOS>MOLECULE
ZINC29414525
   21    20     0     0     0
SMALL
USER_CHARGES
(4R)-2,2-difluorohex-5-yne-1,4-diamine
@<TRIPOS>ATOM
      1 C1         -1.2925    1.9623   -2.1356 C.1       1 <0>        -0.0516
      2 C2         -0.7246    1.5734   -1.1845 C.1       1 <0>        -0.3065
      3 C3         -0.0127    1.0858    0.0080 C.3       1 <0>         0.1805
      4 H1         -0.0392   -0.0139    0.0041 H         1 <0>         0.1587
      5 C4          1.4227    1.6154   -0.0028 C.3       1 <0>        -0.1823
      6 C5          2.1988    1.0094    1.1682 C.3       1 <0>         0.2848
      7 C6          3.6341    1.5389    1.1573 C.3       1 <0>         0.0064
      8 N1          4.3793    0.9571    2.2817 N.3       1 <0>        -0.8297
      9 F1          1.5798    1.3645    2.3715 F         1 <0>        -0.1972
     10 F2          2.2149   -0.3842    1.0456 F         1 <0>        -0.1715
     11 N2         -0.7003    1.5596    1.2166 N.4       1 <0>        -0.6943
     12 H2         -1.8246    2.3267   -3.0267 H         1 <0>         0.2551
     13 H3          1.9094    1.3362   -0.9489 H         1 <0>         0.1493
     14 H4          1.4100    2.7111    0.0936 H         1 <0>         0.1278
     15 H5          4.1208    1.2596    0.2112 H         1 <0>         0.1143
     16 H6          3.6215    2.6346    1.2536 H         1 <0>         0.0683
     17 H7          5.4113    1.3379    2.2738 H         1 <0>         0.3679
     18 H8         -0.1683    1.1952    2.1078 H         1 <0>         0.4557
     19 H9         -1.7323    1.1789    1.2244 H         1 <0>         0.4612
     20 H10         3.8926    1.2364    3.2278 H         1 <0>         0.3489
     21 H11        -0.7152    2.6595    1.2226 H         1 <0>         0.4541
@<TRIPOS>BOND
     1    1    2 3
     2    1   12 1
     3    2    3 1
     4    3    4 1
     5    3    5 1
     6    3   11 1
     7    5    6 1
     8    5   13 1
     9    5   14 1
    10    6    7 1
    11    6    9 1
    12    6   10 1
    13    7    8 1
    14    7   15 1
    15    7   16 1
    16    8   17 1
    17    8   20 1
    18   11   18 1
    19   11   19 1
    20   11   21 1
@<TRIPOS>MOLECULE
ZINC29414528
   21    20     0     0     0
SMALL
USER_CHARGES
(4S)-2,2-difluorohex-5-yne-1,4-diamine
@<TRIPOS>ATOM
      1 C1          0.4214    0.5279    3.4053 C.1       1 <0>        -0.1558
      2 C2         -0.0890    0.9944    2.4565 C.1       1 <0>        -0.2214
      3 C3         -0.7288    1.5792    1.2668 C.3       1 <0>         0.1956
      4 H1         -1.7912    1.2939    1.2669 H         1 <0>         0.0674
      5 C4         -0.0127    1.0858    0.0080 C.3       1 <0>        -0.1540
      6 C5         -0.7527    1.5927   -1.2315 C.3       1 <0>         0.2711
      7 C6         -0.0366    1.0992   -2.4903 C.3       1 <0>        -0.0372
      8 N1         -0.7471    1.5859   -3.6804 N.4       1 <0>        -0.6885
      9 F1         -2.0652    1.1084   -1.2216 F         1 <0>        -0.1820
     10 F2         -0.7717    2.9915   -1.2238 F         1 <0>        -0.1703
     11 N2         -0.6445    3.0442    1.3358 N.3       1 <0>        -0.8380
     12 H2          0.8996    0.0908    4.2943 H         1 <0>         0.2390
     13 H3          1.0193    1.4665    0.0002 H         1 <0>         0.1228
     14 H4          0.0022   -0.0141    0.0019 H         1 <0>         0.1167
     15 H5          0.9954    1.4799   -2.4981 H         1 <0>         0.1652
     16 H6         -0.0217   -0.0007   -2.4963 H         1 <0>         0.1640
     17 H7         -0.2323    1.2311   -4.5854 H         1 <0>         0.4716
     18 H8         -0.7619    2.6858   -3.6743 H         1 <0>         0.4645
     19 H9         -1.1226    3.4812    0.4468 H         1 <0>         0.3482
     20 H10        -1.1595    3.3989    2.2408 H         1 <0>         0.3573
     21 H11        -1.7791    1.2052   -3.6725 H         1 <0>         0.4638
@<TRIPOS>BOND
     1    1    2 3
     2    1   12 1
     3    2    3 1
     4    3    4 1
     5    3    5 1
     6    3   11 1
     7    5    6 1
     8    5   13 1
     9    5   14 1
    10    6    7 1
    11    6    9 1
    12    6   10 1
    13    7    8 1
    14    7   15 1
    15    7   16 1
    16    8   17 1
    17    8   18 1
    18    8   21 1
    19   11   19 1
    20   11   20 1
@<TRIPOS>MOLECULE
ZINC29414528
   20    19     0     0     0
SMALL
USER_CHARGES
(4S)-2,2-difluorohex-5-yne-1,4-diamine
@<TRIPOS>ATOM
      1 C1          0.4214    0.5279    3.4053 C.1       1 <0>        -0.1880
      2 C2         -0.0890    0.9944    2.4565 C.1       1 <0>        -0.1947
      3 C3         -0.7288    1.5792    1.2668 C.3       1 <0>         0.1903
      4 H1         -1.7912    1.2939    1.2669 H         1 <0>         0.0640
      5 C4         -0.0127    1.0858    0.0080 C.3       1 <0>        -0.1517
      6 C5         -0.7527    1.5927   -1.2315 C.3       1 <0>         0.2943
      7 C6         -0.0366    1.0992   -2.4903 C.3       1 <0>         0.0079
      8 N1         -0.7471    1.5859   -3.6804 N.3       1 <0>        -0.8280
      9 F1         -2.0652    1.1084   -1.2216 F         1 <0>        -0.2002
     10 F2         -0.7717    2.9915   -1.2238 F         1 <0>        -0.1753
     11 N2         -0.6445    3.0442    1.3358 N.3       1 <0>        -0.8376
     12 H2          0.8996    0.0908    4.2943 H         1 <0>         0.2345
     13 H3          1.0193    1.4665    0.0002 H         1 <0>         0.1112
     14 H4          0.0022   -0.0141    0.0019 H         1 <0>         0.1031
     15 H5          0.9954    1.4799   -2.4981 H         1 <0>         0.1061
     16 H6         -0.0217   -0.0007   -2.4963 H         1 <0>         0.0616
     17 H7         -0.2323    1.2311   -4.5854 H         1 <0>         0.3538
     18 H8         -1.1226    3.4812    0.4468 H         1 <0>         0.3578
     19 H9         -1.7791    1.2052   -3.6725 H         1 <0>         0.3473
     20 H10        -1.1595    3.3989    2.2408 H         1 <0>         0.3435
@<TRIPOS>BOND
     1    1    2 3
     2    1   12 1
     3    2    3 1
     4    3    4 1
     5    3    5 1
     6    3   11 1
     7    5    6 1
     8    5   13 1
     9    5   14 1
    10    6    7 1
    11    6    9 1
    12    6   10 1
    13    7    8 1
    14    7   15 1
    15    7   16 1
    16    8   17 1
    17    8   19 1
    18   11   18 1
    19   11   20 1
@<TRIPOS>MOLECULE
ZINC29414528
   21    20     0     0     0
SMALL
USER_CHARGES
(4S)-2,2-difluorohex-5-yne-1,4-diamine
@<TRIPOS>ATOM
      1 C1          0.4214    0.5279    3.4053 C.1       1 <0>        -0.0519
      2 C2         -0.0890    0.9944    2.4565 C.1       1 <0>        -0.3064
      3 C3         -0.7288    1.5792    1.2668 C.3       1 <0>         0.1808
      4 H1         -1.7912    1.2939    1.2669 H         1 <0>         0.1577
      5 C4         -0.0127    1.0858    0.0080 C.3       1 <0>        -0.1825
      6 C5         -0.7527    1.5927   -1.2315 C.3       1 <0>         0.2849
      7 C6         -0.0366    1.0992   -2.4903 C.3       1 <0>         0.0056
      8 N1         -0.7471    1.5859   -3.6804 N.3       1 <0>        -0.8323
      9 F1         -2.0652    1.1084   -1.2216 F         1 <0>        -0.1831
     10 F2         -0.7717    2.9915   -1.2238 F         1 <0>        -0.1853
     11 N2         -0.6445    3.0442    1.3358 N.4       1 <0>        -0.6945
     12 H2          0.8996    0.0908    4.2943 H         1 <0>         0.2551
     13 H3          1.0193    1.4665    0.0002 H         1 <0>         0.1296
     14 H4          0.0022   -0.0141    0.0019 H         1 <0>         0.1475
     15 H5          0.9954    1.4799   -2.4981 H         1 <0>         0.1109
     16 H6         -0.0217   -0.0007   -2.4963 H         1 <0>         0.0722
     17 H7         -0.2323    1.2311   -4.5854 H         1 <0>         0.3673
     18 H8         -1.1226    3.4812    0.4468 H         1 <0>         0.4561
     19 H9          0.4117    3.3494    1.3715 H         1 <0>         0.4548
     20 H10        -1.7791    1.2052   -3.6725 H         1 <0>         0.3527
     21 H11        -1.1595    3.3989    2.2408 H         1 <0>         0.4609
@<TRIPOS>BOND
     1    1    2 3
     2    1   12 1
     3    2    3 1
     4    3    4 1
     5    3    5 1
     6    3   11 1
     7    5    6 1
     8    5   13 1
     9    5   14 1
    10    6    7 1
    11    6    9 1
    12    6   10 1
    13    7    8 1
    14    7   15 1
    15    7   16 1
    16    8   17 1
    17    8   20 1
    18   11   18 1
    19   11   19 1
    20   11   21 1
