@<TRIPOS>MOLECULE
ZINC14557836
   42    44     0     0     0
SMALL
USER_CHARGES
(E)-1-(5-hydroxy-2,2-dimethyl-chromen-6-yl)-3-(4-hydroxyphenyl)prop-2-en-1-one
@<TRIPOS>ATOM
      1 C1         -0.0187    1.5258    0.0104 C.3       1 <0>        -0.1377
      2 C2          0.0021   -0.0041    0.0020 C.3       1 <0>         0.1460
      3 C3          0.7191   -0.4843   -1.2322 C.2       1 <0>        -0.1868
      4 C4          0.4077   -1.6631   -1.7669 C.2       1 <0>        -0.0849
      5 C5         -0.6588   -2.4586   -1.1223 C.ar      1 <0>        -0.1772
      6 C6         -1.5189   -1.8157   -0.2194 C.ar      1 <0>         0.1813
      7 C7         -2.5295   -2.5308    0.4054 C.ar      1 <0>        -0.1667
      8 C8         -2.6929   -3.8733    0.1421 C.ar      1 <0>        -0.0219
      9 C9         -1.8442   -4.5280   -0.7568 C.ar      1 <0>        -0.2202
     10 C10        -0.8178   -3.8149   -1.3953 C.ar      1 <0>         0.2142
     11 O1          0.0101   -4.4398   -2.2686 O.3       1 <0>        -0.4735
     12 C11        -2.0274   -5.9648   -1.0326 C.2       1 <0>         0.4258
     13 O2         -1.2877   -6.5338   -1.8155 O.2       1 <0>        -0.4470
     14 C12        -3.0966   -6.7064   -0.3665 C.2       1 <0>        -0.2356
     15 C13        -3.2645   -8.0234   -0.6193 C.2       1 <0>        -0.0112
     16 C14        -4.3392   -8.7688    0.0502 C.ar      1 <0>        -0.0922
     17 C15        -5.1871   -8.1184    0.9550 C.ar      1 <0>        -0.0813
     18 C16        -6.1957   -8.8202    1.5754 C.ar      1 <0>        -0.1484
     19 C17        -6.3662  -10.1750    1.3136 C.ar      1 <0>         0.1210
     20 C18        -5.5233  -10.8270    0.4204 C.ar      1 <0>        -0.1487
     21 C19        -4.5153  -10.1333   -0.2099 C.ar      1 <0>        -0.0747
     22 O3         -7.3586  -10.8637    1.9324 O.3       1 <0>        -0.4986
     23 O4         -1.3393   -0.4934    0.0245 O.3       1 <0>        -0.2999
     24 C20         0.7430   -0.5054    1.2432 C.3       1 <0>        -0.1737
     25 H1          1.0039    1.9031    0.0027 H         1 <0>         0.0825
     26 H2         -0.5459    1.8868   -0.8726 H         1 <0>         0.0689
     27 H3         -0.5289    1.8773    0.9072 H         1 <0>         0.0716
     28 H4          1.4863    0.1273   -1.6835 H         1 <0>         0.1357
     29 H5          0.9185   -2.0271   -2.6461 H         1 <0>         0.1368
     30 H6         -3.1900   -2.0341    1.1007 H         1 <0>         0.1434
     31 H7         -3.4819   -4.4239    0.6327 H         1 <0>         0.1437
     32 H8         -0.2994   -4.4232   -3.1846 H         1 <0>         0.3987
     33 H9         -3.7524   -6.2019    0.3276 H         1 <0>         0.1333
     34 H10        -2.6087   -8.5279   -1.3134 H         1 <0>         0.1365
     35 H11        -5.0529   -7.0670    1.1622 H         1 <0>         0.1331
     36 H12        -6.8531   -8.3186    2.2701 H         1 <0>         0.1339
     37 H13        -5.6601  -11.8795    0.2204 H         1 <0>         0.1342
     38 H14        -3.8612  -10.6406   -0.9035 H         1 <0>         0.1343
     39 H15        -7.0963  -11.2603    2.7744 H         1 <0>         0.3950
     40 H16         0.2321   -0.1520    2.1388 H         1 <0>         0.0717
     41 H17         0.7599   -1.5953    1.2408 H         1 <0>         0.0608
     42 H18         1.7648   -0.1262    1.2343 H         1 <0>         0.0776
@<TRIPOS>BOND
     1    1    2 1
     2    1   25 1
     3    1   26 1
     4    1   27 1
     5    2   23 1
     6    2    3 1
     7    2   24 1
     8    3    4 2
     9    3   28 1
    10    4    5 1
    11    4   29 1
    12    5   10 ar
    13    5    6 ar
    14    6    7 ar
    15    6   23 1
    16    7    8 ar
    17    7   30 1
    18    8    9 ar
    19    8   31 1
    20    9   10 ar
    21    9   12 1
    22   10   11 1
    23   11   32 1
    24   12   13 2
    25   12   14 1
    26   14   15 2
    27   14   33 1
    28   15   16 1
    29   15   34 1
    30   16   21 ar
    31   16   17 ar
    32   17   18 ar
    33   17   35 1
    34   18   19 ar
    35   18   36 1
    36   19   20 ar
    37   19   22 1
    38   20   21 ar
    39   20   37 1
    40   21   38 1
    41   22   39 1
    42   24   40 1
    43   24   41 1
    44   24   42 1
@<TRIPOS>MOLECULE
ZINC14756841
   43    45     0     0     0
SMALL
USER_CHARGES
2-(2,6-dimethoxyphenyl)-5,6-dimethoxy-chromen-4-one
@<TRIPOS>ATOM
      1 C1          4.5595    0.2169   -6.3389 C.3       1 <0>         0.0242
      2 O1          4.0486    1.1645   -5.3992 O.3       1 <0>        -0.3039
      3 C2          4.2376    2.4779   -5.6841 C.ar      1 <0>         0.2059
      4 C3          4.8958    2.8498   -6.8447 C.ar      1 <0>        -0.2485
      5 C4          5.0947    4.1871   -7.1344 C.ar      1 <0>        -0.0130
      6 C5          4.6353    5.1670   -6.2738 C.ar      1 <0>        -0.2492
      7 C6          3.9699    4.8174   -5.1103 C.ar      1 <0>         0.2052
      8 C7          3.7628    3.4638   -4.8067 C.ar      1 <0>        -0.1477
      9 C8          3.0573    3.0805   -3.5728 C.2       1 <0>         0.2346
     10 C9          1.8547    2.4475   -3.6750 C.2       1 <0>        -0.3000
     11 C10         1.1637    2.0718   -2.5018 C.2       1 <0>         0.4236
     12 O2          0.0851    1.5033   -2.5560 O.2       1 <0>        -0.4529
     13 C11         1.7965    2.3928   -1.2089 C.ar      1 <0>        -0.2093
     14 C12         3.0392    3.0480   -1.2146 C.ar      1 <0>         0.1272
     15 O3          3.6232    3.3673   -2.3899 O.3       1 <0>        -0.2113
     16 C13         3.6519    3.3593   -0.0095 C.ar      1 <0>        -0.1061
     17 C14         3.0424    3.0268    1.1843 C.ar      1 <0>        -0.1355
     18 C15         1.8131    2.3831    1.1970 C.ar      1 <0>         0.0793
     19 C16         1.1844    2.0578    0.0018 C.ar      1 <0>         0.1528
     20 O4         -0.0173    1.4248    0.0099 O.3       1 <0>        -0.3079
     21 C17         0.0021   -0.0041    0.0020 C.3       1 <0>         0.0477
     22 O5          1.2244    2.0666    2.3822 O.3       1 <0>        -0.3016
     23 C18         1.9261    2.4305    3.5727 C.3       1 <0>         0.0219
     24 O6          3.5196    5.7811   -4.2675 O.3       1 <0>        -0.3040
     25 C19         3.7669    7.1378   -4.6420 C.3       1 <0>         0.0247
     26 H1          4.3416   -0.7930   -5.9914 H         1 <0>         0.1064
     27 H2          4.0886    0.3769   -7.3088 H         1 <0>         0.0627
     28 H3          5.6380    0.3439   -6.4332 H         1 <0>         0.0616
     29 H4          5.2584    2.0924   -7.5239 H         1 <0>         0.1402
     30 H5          5.6129    4.4683   -8.0393 H         1 <0>         0.1366
     31 H6          4.7956    6.2086   -6.5097 H         1 <0>         0.1395
     32 H7          1.4329    2.2350   -4.6462 H         1 <0>         0.1574
     33 H8          4.6073    3.8629   -0.0049 H         1 <0>         0.1495
     34 H9          3.5260    3.2735    2.1180 H         1 <0>         0.1505
     35 H10        -1.0205   -0.3814    0.0098 H         1 <0>         0.0975
     36 H11         0.5123   -0.3556   -0.8948 H         1 <0>         0.0469
     37 H12         0.5293   -0.3651    0.8851 H         1 <0>         0.0446
     38 H13         2.8976    1.9365    3.5872 H         1 <0>         0.0572
     39 H14         2.0675    3.5110    3.5953 H         1 <0>         0.0583
     40 H15         1.3483    2.1214    4.4438 H         1 <0>         0.1047
     41 H16         4.8412    7.3013   -4.7266 H         1 <0>         0.0620
     42 H17         3.2915    7.3423   -5.6014 H         1 <0>         0.0619
     43 H18         3.3565    7.8046   -3.8837 H         1 <0>         0.1061
@<TRIPOS>BOND
     1    1    2 1
     2    1   26 1
     3    1   27 1
     4    1   28 1
     5    2    3 1
     6    3    8 ar
     7    3    4 ar
     8    4    5 ar
     9    4   29 1
    10    5    6 ar
    11    5   30 1
    12    6    7 ar
    13    6   31 1
    14    7    8 ar
    15    7   24 1
    16    8    9 1
    17    9   15 1
    18    9   10 2
    19   10   11 1
    20   10   32 1
    21   11   12 2
    22   11   13 1
    23   13   19 ar
    24   13   14 ar
    25   14   15 1
    26   14   16 ar
    27   16   17 ar
    28   16   33 1
    29   17   18 ar
    30   17   34 1
    31   18   19 ar
    32   18   22 1
    33   19   20 1
    34   20   21 1
    35   21   35 1
    36   21   36 1
    37   21   37 1
    38   22   23 1
    39   23   38 1
    40   23   39 1
    41   23   40 1
    42   24   25 1
    43   25   41 1
    44   25   42 1
    45   25   43 1
