@<TRIPOS>MOLECULE
ZINC15682449
   31    30     0     0     0
SMALL
USER_CHARGES

@<TRIPOS>ATOM
      1 C1         -0.0160    1.3301    0.0094 C.2       1 <0>        -0.2469
      2 C2          0.0021   -0.0041    0.0020 C.2       1 <0>        -0.0662
      3 C3         -1.2548   -0.7527    0.0100 C.2       1 <0>        -0.3733
      4 C4         -1.2364   -2.1062    0.0026 C.2       1 <0>         0.4508
      5 N1         -0.0307   -2.7807   -0.0126 N.pl3     1 <0>        -0.8741
      6 N2         -2.4234   -2.8132    0.0101 N.pl3     1 <0>        -0.7496
      7 C5         -2.4035   -4.2781    0.0020 C.3       1 <0>         0.1154
      8 C6         -3.8389   -4.8077    0.0129 C.3       1 <0>        -0.1416
      9 C7         -3.8182   -6.3375    0.0045 C.3       1 <0>        -0.1250
     10 C8         -5.2536   -6.8671    0.0153 C.3       1 <0>        -0.0485
     11 H1         -5.8064   -6.4353   -0.8189 H         1 <0>         0.1340
     12 C9         -5.2362   -8.3682   -0.1167 C.2       1 <0>         0.4867
     13 O1         -5.1872   -9.0674    0.8809 O.co2     1 <0>        -0.6674
     14 O2         -5.2710   -8.8834   -1.2212 O.co2     1 <0>        -0.6351
     15 N3         -5.9035   -6.4942    1.2788 N.4       1 <0>        -0.6152
     16 H2          0.9118    1.8828    0.0035 H         1 <0>         0.0891
     17 H3         -0.9586    1.8573    0.0167 H         1 <0>         0.0898
     18 H4          0.9446   -0.5313   -0.0098 H         1 <0>         0.0920
     19 H5         -2.1973   -0.2255    0.0218 H         1 <0>         0.1130
     20 H6         -0.0175   -3.7505   -0.0179 H         1 <0>         0.3931
     21 H7          0.8027   -2.2843   -0.0179 H         1 <0>         0.4130
     22 H8         -3.2699   -2.3397    0.0207 H         1 <0>         0.4117
     23 H9         -1.8933   -4.6296   -0.8948 H         1 <0>         0.0672
     24 H10        -1.8764   -4.6391    0.8851 H         1 <0>         0.0638
     25 H11        -4.3491   -4.4561    0.9097 H         1 <0>         0.0631
     26 H12        -4.3661   -4.4466   -0.8702 H         1 <0>         0.0843
     27 H13        -3.3080   -6.6890   -0.8923 H         1 <0>         0.1102
     28 H14        -3.2910   -6.6986    0.8875 H         1 <0>         0.0881
     29 H15        -5.9152   -5.4891    1.3673 H         1 <0>         0.4124
     30 H16        -6.8501   -6.8434    1.2860 H         1 <0>         0.4316
     31 H17        -5.3917   -6.8938    2.0511 H         1 <0>         0.4334
@<TRIPOS>BOND
     1    1    2 2
     2    1   16 1
     3    1   17 1
     4    2    3 1
     5    2   18 1
     6    3    4 2
     7    3   19 1
     8    4    5 1
     9    4    6 1
    10    5   21 1
    11    5   20 1
    12    6    7 1
    13    6   22 1
    14    7    8 1
    15    7   23 1
    16    7   24 1
    17    8    9 1
    18    8   25 1
    19    8   26 1
    20    9   10 1
    21    9   27 1
    22    9   28 1
    23   10   11 1
    24   10   12 1
    25   10   15 1
    26   12   13 2
    27   12   14 1
    28   15   29 1
    29   15   30 1
    30   15   31 1
