@<TRIPOS>MOLECULE
ZINC36487839
   70    73     0     0     0
SMALL
USER_CHARGES

@<TRIPOS>ATOM
      1 C1          4.2985    0.6587    2.2893 C.3       1 <0>        -0.1527
      2 C2          3.7773   -0.7480    1.9887 C.3       1 <0>         0.0503
      3 O1          3.9685   -1.0408    0.6031 O.3       1 <0>        -0.2982
      4 C3          3.5567   -2.2590    0.1681 C.ar      1 <0>         0.1466
      5 C4          2.9744   -3.1519    1.0588 C.ar      1 <0>        -0.1959
      6 C5          2.5551   -4.3891    0.6238 C.ar      1 <0>        -0.0113
      7 C6          2.7149   -4.7494   -0.7196 C.ar      1 <0>        -0.1798
      8 C7          3.3017   -3.8484   -1.6169 C.ar      1 <0>        -0.1235
      9 C8          3.7143   -2.6082   -1.1731 C.ar      1 <0>         0.0844
     10 O2          4.2799   -1.7287   -2.0426 O.3       1 <0>        -0.3032
     11 C9          4.4102   -2.1523   -3.4011 C.3       1 <0>         0.0511
     12 C10         5.0630   -1.0386   -4.2223 C.3       1 <0>        -0.1518
     13 C11         2.2690   -6.0685   -1.1864 C.2       1 <0>         0.4025
     14 O3          1.6545   -6.8003   -0.4394 O.2       1 <0>        -0.4493
     15 C12         2.5750   -6.5129   -2.5935 C.3       1 <0>        -0.1531
     16 C13         2.0038   -7.9138   -2.8215 C.3       1 <0>        -0.1251
     17 C14         2.3097   -8.3583   -4.2286 C.2       1 <0>         0.5095
     18 O4          2.9242   -7.6265   -4.9755 O.2       1 <0>        -0.4676
     19 N1          1.9005   -9.5688   -4.6569 N.am      1 <0>        -0.6193
     20 C15         2.1827   -9.9786   -5.9543 C.2       1 <0>         0.3320
     21 N2          2.8354   -9.3412   -6.9081 N.2       1 <0>        -0.4896
     22 C16         3.0155   -9.8871   -8.1015 C.2       1 <0>         0.1204
     23 C17         2.5158  -11.1350   -8.3505 C.2       1 <0>        -0.1629
     24 S1          1.7648  -11.5120   -6.7721 S.3       1 <0>         0.0191
     25 C18         2.5837  -11.9654   -9.6062 C.3       1 <0>         0.0046
     26 C19         1.3161  -11.7803  -10.4000 C.ar      1 <0>        -0.0833
     27 C20         0.2018  -12.5457  -10.1113 C.ar      1 <0>        -0.1115
     28 C21        -0.9609  -12.3759  -10.8394 C.ar      1 <0>        -0.1187
     29 C22        -1.0095  -11.4403  -11.8559 C.ar      1 <0>        -0.1192
     30 C23         0.1046  -10.6743  -12.1440 C.ar      1 <0>        -0.1181
     31 C24         1.2659  -10.8411  -11.4131 C.ar      1 <0>        -0.1046
     32 C25         3.7520   -9.1512   -9.1578 C.ar      1 <0>        -0.0169
     33 C26         4.7107   -9.8070   -9.9285 C.ar      1 <0>        -0.1088
     34 C27         5.3929   -9.1172  -10.9099 C.ar      1 <0>        -0.1199
     35 C28         5.1273   -7.7775  -11.1293 C.ar      1 <0>        -0.1135
     36 C29         4.1773   -7.1215  -10.3672 C.ar      1 <0>        -0.1200
     37 C30         3.4841   -7.8028   -9.3874 C.ar      1 <0>        -0.0812
     38 C31         1.9247   -5.3552    1.5935 C.3       1 <0>        -0.1198
     39 H1          5.3606    0.7114    2.0501 H         1 <0>         0.0677
     40 H2          3.7537    1.3848    1.6859 H         1 <0>         0.0677
     41 H3          4.1526    0.8821    3.3462 H         1 <0>         0.0804
     42 H4          4.3221   -1.4740    2.5921 H         1 <0>         0.0648
     43 H5          2.7151   -0.8007    2.2279 H         1 <0>         0.0648
     44 H6          2.8506   -2.8751    2.0954 H         1 <0>         0.1419
     45 H7          3.4275   -4.1217   -2.6541 H         1 <0>         0.1453
     46 H8          5.0309   -3.0473   -3.4447 H         1 <0>         0.0632
     47 H9          3.4240   -2.3740   -3.8088 H         1 <0>         0.0625
     48 H10         5.1624   -1.3618   -5.2586 H         1 <0>         0.0799
     49 H11         4.4423   -0.1436   -4.1788 H         1 <0>         0.0668
     50 H12         6.0493   -0.8169   -3.8147 H         1 <0>         0.0670
     51 H13         2.1236   -5.8170   -3.3006 H         1 <0>         0.1085
     52 H14         3.6547   -6.5322   -2.7417 H         1 <0>         0.1094
     53 H15         2.4552   -8.6098   -2.1144 H         1 <0>         0.1094
     54 H16         0.9241   -7.8945   -2.6732 H         1 <0>         0.1093
     55 H17         1.4091  -10.1541   -4.0595 H         1 <0>         0.4292
     56 H18         3.4372  -11.6487  -10.2056 H         1 <0>         0.1066
     57 H19         2.6960  -13.0167   -9.3410 H         1 <0>         0.0924
     58 H20         0.2398  -13.2766   -9.3172 H         1 <0>         0.1195
     59 H21        -1.8313  -12.9744  -10.6143 H         1 <0>         0.1224
     60 H22        -1.9176  -11.3082  -12.4252 H         1 <0>         0.1217
     61 H23         0.0667   -9.9436  -12.9384 H         1 <0>         0.1224
     62 H24         2.1351  -10.2400  -11.6357 H         1 <0>         0.1222
     63 H25         4.9194  -10.8528   -9.7576 H         1 <0>         0.1259
     64 H26         6.1359   -9.6243  -11.5076 H         1 <0>         0.1259
     65 H27         5.6638   -7.2415  -11.8982 H         1 <0>         0.1232
     66 H28         3.9745   -6.0752  -10.5423 H         1 <0>         0.1240
     67 H29         2.7393   -7.2908   -8.7963 H         1 <0>         0.1234
     68 H30         0.8393   -5.2839    1.5236 H         1 <0>         0.0781
     69 H31         2.2385   -6.3704    1.3506 H         1 <0>         0.0923
     70 H32         2.2404   -5.1101    2.6076 H         1 <0>         0.0600
@<TRIPOS>BOND
     1    1    2 1
     2    1   39 1
     3    1   40 1
     4    1   41 1
     5    2    3 1
     6    2   42 1
     7    2   43 1
     8    3    4 1
     9    4    9 ar
    10    4    5 ar
    11    5    6 ar
    12    5   44 1
    13    6    7 ar
    14    6   38 1
    15    7    8 ar
    16    7   13 1
    17    8    9 ar
    18    8   45 1
    19    9   10 1
    20   10   11 1
    21   11   12 1
    22   11   46 1
    23   11   47 1
    24   12   48 1
    25   12   49 1
    26   12   50 1
    27   13   14 2
    28   13   15 1
    29   15   16 1
    30   15   51 1
    31   15   52 1
    32   16   17 1
    33   16   53 1
    34   16   54 1
    35   17   18 2
    36   17   19 am
    37   19   20 1
    38   19   55 1
    39   20   24 1
    40   20   21 2
    41   21   22 1
    42   22   23 2
    43   22   32 1
    44   23   24 1
    45   23   25 1
    46   25   26 1
    47   25   56 1
    48   25   57 1
    49   26   31 ar
    50   26   27 ar
    51   27   28 ar
    52   27   58 1
    53   28   29 ar
    54   28   59 1
    55   29   30 ar
    56   29   60 1
    57   30   31 ar
    58   30   61 1
    59   31   62 1
    60   32   37 ar
    61   32   33 ar
    62   33   34 ar
    63   33   63 1
    64   34   35 ar
    65   34   64 1
    66   35   36 ar
    67   35   65 1
    68   36   37 ar
    69   36   66 1
    70   37   67 1
    71   38   68 1
    72   38   69 1
    73   38   70 1
@<TRIPOS>MOLECULE
ZINC49109990
   52    54     0     0     0
SMALL
USER_CHARGES

@<TRIPOS>ATOM
      1 C1         -0.0167    1.3786    0.0096 C.ar      1 <0>        -0.1133
      2 C2          1.1696    2.0890    0.0021 C.ar      1 <0>        -0.0948
      3 C3          2.3774    1.4191   -0.0134 C.ar      1 <0>        -0.1059
      4 C4          2.3995    0.0308   -0.0211 C.ar      1 <0>         0.1325
      5 C5          1.2066   -0.6797   -0.0130 C.ar      1 <0>        -0.1284
      6 C6          0.0021   -0.0041    0.0020 C.ar      1 <0>        -0.0928
      7 N1          3.6234   -0.6519   -0.0373 N.pl3     1 <0>        -0.2845
      8 C7          3.7783   -1.9883   -0.0514 C.2       1 <0>         0.1087
      9 C8          5.1346   -2.2460   -0.0645 C.2       1 <0>        -0.2417
     10 C9          5.7969   -0.9975   -0.0577 C.2       1 <0>         0.0451
     11 N2          4.8908   -0.0588   -0.0477 N.2       1 <0>        -0.2271
     12 C10         7.2891   -0.7872   -0.0675 C.3       1 <0>         0.5540
     13 F1          7.7405   -0.7094   -1.3894 F         1 <0>        -0.1642
     14 F2          7.5967    0.4026    0.6011 F         1 <0>        -0.1683
     15 F3          7.9155   -1.8595    0.5768 F         1 <0>        -0.1353
     16 C11         5.7726   -3.5748   -0.0819 C.2       1 <0>         0.5913
     17 O1          6.9851   -3.6671   -0.0920 O.2       1 <0>        -0.5100
     18 N3          5.0120   -4.6875   -0.0867 N.am      1 <0>        -0.7239
     19 C12         5.6460   -6.0081   -0.1040 C.3       1 <0>         0.1096
     20 C13         4.5664   -7.0922   -0.1061 C.3       1 <0>         0.1090
     21 N4          5.2004   -8.4127   -0.1234 N.am      1 <0>        -0.7243
     22 C14         4.4398   -9.5254   -0.1281 C.2       1 <0>         0.5740
     23 O2          3.2276   -9.4332   -0.1181 O.2       1 <0>        -0.5290
     24 C15         5.0787  -10.8560   -0.1455 C.ar      1 <0>        -0.2245
     25 C16         4.2971  -12.0209   -0.1565 C.ar      1 <0>         0.0224
     26 C17         4.9402  -13.2413   -0.1726 C.ar      1 <0>        -0.1848
     27 C18         6.3314  -13.2772   -0.1774 C.ar      1 <0>         0.3472
     28 N5          7.0414  -12.1596   -0.1668 N.ar      1 <0>        -0.5424
     29 C19         6.4689  -10.9740   -0.1572 C.ar      1 <0>         0.1830
     30 O3          6.9685  -14.4730   -0.1928 O.3       1 <0>        -0.2863
     31 C20         8.3972  -14.4468   -0.1971 C.3       1 <0>         0.0250
     32 C21         8.9335  -15.8796   -0.2147 C.3       1 <0>         0.4634
     33 F4          8.4756  -16.5348   -1.3629 F         1 <0>        -0.1731
     34 F5         10.3322  -15.8540   -0.2189 F         1 <0>        -0.1681
     35 F6          8.4829  -16.5602    0.9215 F         1 <0>        -0.1731
     36 H1         -0.9598    1.9047    0.0260 H         1 <0>         0.1347
     37 H2          1.1518    3.1689    0.0080 H         1 <0>         0.1383
     38 H3          3.3036    1.9745   -0.0200 H         1 <0>         0.1422
     39 H4          1.2206   -1.7596   -0.0193 H         1 <0>         0.1338
     40 H5         -0.9261   -0.5562    0.0082 H         1 <0>         0.1393
     41 H6          2.9875   -2.7238   -0.0517 H         1 <0>         0.1996
     42 H7          4.0448   -4.6139   -0.0787 H         1 <0>         0.4003
     43 H8          6.2597   -6.1048   -0.9996 H         1 <0>         0.0808
     44 H9          6.2732   -6.1216    0.7802 H         1 <0>         0.0810
     45 H10         3.9527   -6.9955    0.7895 H         1 <0>         0.0795
     46 H11         3.9392   -6.9786   -0.9903 H         1 <0>         0.0795
     47 H12         6.1676   -8.4863   -0.1314 H         1 <0>         0.4035
     48 H13         3.2186  -11.9638   -0.1520 H         1 <0>         0.1601
     49 H14         4.3703  -14.1587   -0.1810 H         1 <0>         0.1562
     50 H15         7.0812  -10.0844   -0.1538 H         1 <0>         0.1665
     51 H16         8.7483  -13.9165   -1.0823 H         1 <0>         0.1177
     52 H17         8.7539  -13.9364    0.6975 H         1 <0>         0.1176
@<TRIPOS>BOND
     1    1    6 ar
     2    1    2 ar
     3    1   36 1
     4    2    3 ar
     5    2   37 1
     6    3    4 ar
     7    3   38 1
     8    4    5 ar
     9    4    7 1
    10    5    6 ar
    11    5   39 1
    12    6   40 1
    13    7   11 1
    14    7    8 1
    15    8    9 2
    16    8   41 1
    17    9   10 1
    18    9   16 1
    19   10   11 2
    20   10   12 1
    21   12   13 1
    22   12   14 1
    23   12   15 1
    24   16   17 2
    25   16   18 am
    26   18   19 1
    27   18   42 1
    28   19   20 1
    29   19   43 1
    30   19   44 1
    31   20   21 1
    32   20   45 1
    33   20   46 1
    34   21   22 am
    35   21   47 1
    36   22   23 2
    37   22   24 1
    38   24   29 ar
    39   24   25 ar
    40   25   26 ar
    41   25   48 1
    42   26   27 ar
    43   26   49 1
    44   27   28 ar
    45   27   30 1
    46   28   29 ar
    47   29   50 1
    48   30   31 1
    49   31   32 1
    50   31   51 1
    51   31   52 1
    52   32   33 1
    53   32   34 1
    54   32   35 1
@<TRIPOS>MOLECULE
ZINC01023799
   64    67     0     0     0
SMALL
USER_CHARGES

@<TRIPOS>ATOM
      1 C1         -0.5042    1.4169   -1.0545 C.3       1 <0>        -0.1497
      2 C2         -0.4285   -0.1010   -0.8781 C.3       1 <0>        -0.1212
      3 C3          0.1257   -0.4261    0.5104 C.3       1 <0>        -0.0580
      4 C4          0.2002   -1.9212    0.6841 C.2       1 <0>         0.1446
      5 C5         -0.8088   -2.7135    1.1868 C.2       1 <0>        -0.1367
      6 C6         -0.2958   -4.0913    1.1723 C.2       1 <0>        -0.0799
      7 C7          1.0001   -4.0027    0.6525 C.2       1 <0>        -0.0408
      8 N1          1.2609   -2.6876    0.3664 N.pl3     1 <0>        -0.2057
      9 N2          2.5163   -2.3636   -0.1766 N.2       1 <0>        -0.3814
     10 C8          3.4013   -3.3071   -0.4004 C.2       1 <0>         0.5627
     11 N3          3.1540   -4.5892   -0.1282 N.2       1 <0>        -0.5431
     12 C9          2.0001   -4.9713    0.3917 C.2       1 <0>         0.3736
     13 C10         1.7495   -6.4011    0.6840 C.ar      1 <0>        -0.0769
     14 C11         0.6477   -7.0479    0.1237 C.ar      1 <0>        -0.0845
     15 C12         0.4199   -8.3804    0.3996 C.ar      1 <0>        -0.1158
     16 C13         1.2815   -9.0751    1.2298 C.ar      1 <0>        -0.0925
     17 C14         2.3757   -8.4392    1.7888 C.ar      1 <0>        -0.1207
     18 C15         2.6176   -7.1085    1.5161 C.ar      1 <0>        -0.0624
     19 N4          4.6326   -2.9596   -0.9375 N.pl3     1 <0>        -0.5729
     20 C16         4.9546   -1.5581   -1.2495 C.3       1 <0>         0.0895
     21 C17         6.3092   -1.2207   -0.6159 C.3       1 <0>         0.0479
     22 O1          7.2727   -2.1978   -1.0166 O.3       1 <0>        -0.3765
     23 C18         6.9755   -3.5262   -0.5798 C.3       1 <0>         0.0473
     24 C19         5.6572   -3.9810   -1.2063 C.3       1 <0>         0.0906
     25 C20        -0.9940   -5.3015    1.6102 C.2       1 <0>         0.5427
     26 O2         -1.7531   -5.8740    0.8514 O.2       1 <0>        -0.4778
     27 O3         -0.7956   -5.7816    2.8552 O.3       1 <0>        -0.3358
     28 C21        -1.4423   -7.0120    3.1868 C.3       1 <0>         0.0571
     29 C22        -1.0067   -7.4566    4.5845 C.3       1 <0>        -0.1513
     30 C23        -2.1358   -2.2690    1.6474 C.2       1 <0>         0.5456
     31 O4         -3.0643   -2.2167    0.8653 O.2       1 <0>        -0.4760
     32 O5         -2.3198   -1.9203    2.9360 O.3       1 <0>        -0.3399
     33 C24        -3.6322   -1.4990    3.3131 C.3       1 <0>         0.0570
     34 C25        -3.6466   -1.1465    4.8019 C.3       1 <0>        -0.1522
     35 H1          0.4931    1.8447   -0.9520 H         1 <0>         0.0567
     36 H2         -0.8990    1.6485   -2.0437 H         1 <0>         0.0596
     37 H3         -1.1605    1.8389   -0.2934 H         1 <0>         0.0569
     38 H4         -1.4258   -0.5288   -0.9806 H         1 <0>         0.0709
     39 H5          0.2278   -0.5230   -1.6392 H         1 <0>         0.0653
     40 H6          1.1230    0.0017    0.6129 H         1 <0>         0.0928
     41 H7         -0.5307   -0.0042    1.2715 H         1 <0>         0.0929
     42 H8         -0.0258   -6.5066   -0.5242 H         1 <0>         0.1329
     43 H9         -0.4330   -8.8822   -0.0332 H         1 <0>         0.1334
     44 H10         1.0989  -10.1180    1.4427 H         1 <0>         0.1309
     45 H11         3.0442   -8.9867    2.4367 H         1 <0>         0.1331
     46 H12         3.4745   -6.6143    1.9495 H         1 <0>         0.1290
     47 H13         5.0117   -1.4262   -2.3300 H         1 <0>         0.0828
     48 H14         4.1846   -0.9045   -0.8396 H         1 <0>         0.1061
     49 H15         6.6311   -0.2340   -0.9489 H         1 <0>         0.1125
     50 H16         6.2147   -1.2264    0.4700 H         1 <0>         0.0576
     51 H17         7.7769   -4.1983   -0.8868 H         1 <0>         0.1129
     52 H18         6.8835   -3.5404    0.5062 H         1 <0>         0.0570
     53 H19         5.3522   -4.9312   -0.7678 H         1 <0>         0.1101
     54 H20         5.7863   -4.0973   -2.2824 H         1 <0>         0.0813
     55 H21        -2.5229   -6.8702    3.1710 H         1 <0>         0.0691
     56 H22        -1.1653   -7.7755    2.4599 H         1 <0>         0.0721
     57 H23         0.0739   -7.5984    4.6004 H         1 <0>         0.0672
     58 H24        -1.2837   -6.6931    5.3114 H         1 <0>         0.0677
     59 H25        -1.5000   -8.3951    4.8374 H         1 <0>         0.0814
     60 H26        -3.9142   -0.6227    2.7295 H         1 <0>         0.0721
     61 H27        -4.3409   -2.3052    3.1237 H         1 <0>         0.0702
     62 H28        -3.3646   -2.0228    5.3855 H         1 <0>         0.0680
     63 H29        -2.9378   -0.3403    4.9912 H         1 <0>         0.0683
     64 H30        -4.6476   -0.8251    5.0895 H         1 <0>         0.0822
@<TRIPOS>BOND
     1    1    2 1
     2    1   35 1
     3    1   36 1
     4    1   37 1
     5    2    3 1
     6    2   38 1
     7    2   39 1
     8    3    4 1
     9    3   40 1
    10    3   41 1
    11    4    8 1
    12    4    5 2
    13    5    6 1
    14    5   30 1
    15    6    7 2
    16    6   25 1
    17    7   12 1
    18    7    8 1
    19    8    9 1
    20    9   10 2
    21   10   11 1
    22   10   19 1
    23   11   12 2
    24   12   13 1
    25   13   18 ar
    26   13   14 ar
    27   14   15 ar
    28   14   42 1
    29   15   16 ar
    30   15   43 1
    31   16   17 ar
    32   16   44 1
    33   17   18 ar
    34   17   45 1
    35   18   46 1
    36   19   24 1
    37   19   20 1
    38   20   21 1
    39   20   47 1
    40   20   48 1
    41   21   22 1
    42   21   49 1
    43   21   50 1
    44   22   23 1
    45   23   24 1
    46   23   51 1
    47   23   52 1
    48   24   53 1
    49   24   54 1
    50   25   26 2
    51   25   27 1
    52   27   28 1
    53   28   29 1
    54   28   55 1
    55   28   56 1
    56   29   57 1
    57   29   58 1
    58   29   59 1
    59   30   31 2
    60   30   32 1
    61   32   33 1
    62   33   34 1
    63   33   60 1
    64   33   61 1
    65   34   62 1
    66   34   63 1
    67   34   64 1
@<TRIPOS>MOLECULE
ZINC71318104
   50    52     0     0     0
SMALL
USER_CHARGES

@<TRIPOS>ATOM
      1 C1          0.0181    1.4771   -0.0042 C.3       1 <0>         0.0925
      2 N1          0.0282    0.0121   -0.0073 N.pl3     1 <0>        -0.6299
      3 C2          0.0474   -0.7230    1.2597 C.3       1 <0>         0.1253
      4 C3         -1.3883   -0.9889    1.7168 C.3       1 <0>         0.0373
      5 O1         -2.0316   -1.8598    0.7842 O.3       1 <0>        -0.3775
      6 C4         -3.3848   -2.1734    1.1198 C.3       1 <0>         0.0319
      7 C5          0.0196   -0.6849   -1.2204 C.ar      1 <0>         0.2146
      8 C6          0.0234   -2.0738   -1.2233 C.ar      1 <0>        -0.1542
      9 C7          0.0149   -2.7615   -2.4204 C.ar      1 <0>        -0.0908
     10 C8          0.0030   -2.0646   -3.6215 C.ar      1 <0>         0.0751
     11 C9         -0.0004   -0.6760   -3.6187 C.ar      1 <0>        -0.0699
     12 C10         0.0014    0.0120   -2.4216 C.ar      1 <0>        -0.1811
     13 N2         -0.0051   -2.7625   -4.8362 N.am      1 <0>        -0.6417
     14 C11        -0.6864   -2.2721   -5.8906 C.2       1 <0>         0.5889
     15 O2         -1.2240   -1.1838   -5.8144 O.2       1 <0>        -0.4920
     16 C12        -0.7799   -3.0549   -7.1366 C.2       1 <0>         0.0251
     17 C13        -1.4267   -2.6841   -8.2770 C.2       1 <0>        -0.0823
     18 O3         -1.2668   -3.6798   -9.1636 O.3       1 <0>        -0.1594
     19 C14        -0.5353   -4.6464   -8.5814 C.2       1 <0>         0.2923
     20 N3         -0.2324   -4.2767   -7.3628 N.2       1 <0>        -0.4530
     21 C15        -0.1324   -5.9191   -9.2175 C.ar      1 <0>        -0.0403
     22 C16        -0.5084   -6.1948  -10.5328 C.ar      1 <0>        -0.0786
     23 C17        -0.1293   -7.3841  -11.1205 C.ar      1 <0>        -0.1206
     24 C18         0.6216   -8.3025  -10.4086 C.ar      1 <0>        -0.0867
     25 C19         0.9972   -8.0353   -9.1041 C.ar      1 <0>        -0.1216
     26 C20         0.6303   -6.8469   -8.5071 C.ar      1 <0>        -0.0597
     27 C21        -2.1806   -1.3986   -8.5009 C.3       1 <0>         0.5645
     28 F1         -1.3095   -0.4299   -9.0109 F         1 <0>        -0.1571
     29 F2         -3.2182   -1.6193   -9.4129 F         1 <0>        -0.1652
     30 F3         -2.7139   -0.9532   -7.2866 F         1 <0>        -0.1229
     31 H1          1.0432    1.8475   -0.0148 H         1 <0>         0.0490
     32 H2         -0.5081    1.8387   -0.8876 H         1 <0>         0.0691
     33 H3         -0.4883    1.8350    0.8922 H         1 <0>         0.0634
     34 H4          0.5663   -1.6716    1.1217 H         1 <0>         0.0849
     35 H5          0.5655   -0.1320    2.0149 H         1 <0>         0.0899
     36 H6         -1.3755   -1.4565    2.7014 H         1 <0>         0.0555
     37 H7         -1.9334   -0.0464    1.7694 H         1 <0>         0.0491
     38 H8         -3.8020   -2.8383    0.3635 H         1 <0>         0.0851
     39 H9         -3.4133   -2.6656    2.0919 H         1 <0>         0.0393
     40 H10        -3.9712   -1.2554    1.1599 H         1 <0>         0.0383
     41 H11         0.0334   -2.6158   -0.2892 H         1 <0>         0.1299
     42 H12         0.0179   -3.8415   -2.4228 H         1 <0>         0.1232
     43 H13        -0.0089   -0.1341   -4.5529 H         1 <0>         0.1366
     44 H14        -0.0061    1.0919   -2.4194 H         1 <0>         0.1243
     45 H15         0.4795   -3.5988   -4.9183 H         1 <0>         0.4168
     46 H16        -1.0952   -5.4790  -11.0893 H         1 <0>         0.1347
     47 H17        -0.4197   -7.5987  -12.1383 H         1 <0>         0.1358
     48 H18         0.9155   -9.2321  -10.8731 H         1 <0>         0.1331
     49 H19         1.5828   -8.7567   -8.5536 H         1 <0>         0.1371
     50 H20         0.9282   -6.6374   -7.4903 H         1 <0>         0.1419
@<TRIPOS>BOND
     1    1    2 1
     2    1   31 1
     3    1   32 1
     4    1   33 1
     5    2    3 1
     6    2    7 1
     7    3    4 1
     8    3   34 1
     9    3   35 1
    10    4    5 1
    11    4   36 1
    12    4   37 1
    13    5    6 1
    14    6   38 1
    15    6   39 1
    16    6   40 1
    17    7   12 ar
    18    7    8 ar
    19    8    9 ar
    20    8   41 1
    21    9   10 ar
    22    9   42 1
    23   10   11 ar
    24   10   13 1
    25   11   12 ar
    26   11   43 1
    27   12   44 1
    28   13   14 am
    29   13   45 1
    30   14   15 2
    31   14   16 1
    32   16   20 1
    33   16   17 2
    34   17   18 1
    35   17   27 1
    36   18   19 1
    37   19   20 2
    38   19   21 1
    39   21   26 ar
    40   21   22 ar
    41   22   23 ar
    42   22   46 1
    43   23   24 ar
    44   23   47 1
    45   24   25 ar
    46   24   48 1
    47   25   26 ar
    48   25   49 1
    49   26   50 1
    50   27   28 1
    51   27   29 1
    52   27   30 1
@<TRIPOS>MOLECULE
ZINC68199923
   52    55     0     0     0
SMALL
USER_CHARGES

@<TRIPOS>ATOM
      1 C1         -0.0050    1.3561   -0.2462 C.ar      1 <0>        -0.1076
      2 C2          1.1806    2.0644   -0.2545 C.ar      1 <0>        -0.1014
      3 C3          2.3810    1.4089   -0.0131 C.ar      1 <0>         0.1196
      4 C4          2.3848    0.0425    0.2359 C.ar      1 <0>        -0.1147
      5 C5          1.1957   -0.6599    0.2427 C.ar      1 <0>        -0.1023
      6 C6          0.0022   -0.0042    0.0020 C.ar      1 <0>        -0.0569
      7 C7         -1.2935   -0.7738    0.0108 C.3       1 <0>        -0.0515
      8 C8         -1.2468   -1.8634   -1.0622 C.3       1 <0>        -0.1042
      9 C9         -2.5622   -2.6447   -1.0533 C.3       1 <0>        -0.1171
     10 C10        -2.7633   -3.2893    0.3196 C.3       1 <0>        -0.0607
     11 C11        -2.8100   -2.1996    1.3927 C.3       1 <0>        -0.1151
     12 C12        -1.4946   -1.4183    1.3838 C.3       1 <0>        -0.1044
     13 C13        -4.0787   -4.0706    0.3285 C.3       1 <0>        -0.1810
     14 C14        -4.2178   -4.8052    1.6370 C.2       1 <0>         0.4898
     15 O1         -3.3457   -4.7125    2.4839 O.co2     1 <0>        -0.6935
     16 O2         -5.2025   -5.4923    1.8487 O.co2     1 <0>        -0.7105
     17 N1          3.5835    2.1231   -0.0212 N.am      1 <0>        -0.5598
     18 C15         4.5751    1.8858   -1.0711 C.3       1 <0>         0.0721
     19 C16         4.5806    3.0233   -2.0837 C.3       1 <0>         0.0562
     20 O3          4.5533    4.2943   -1.4436 O.3       1 <0>        -0.3087
     21 C17         5.3748    4.4681   -0.3849 C.ar      1 <0>         0.4236
     22 C18         5.0612    3.8481    0.8383 C.ar      1 <0>        -0.3405
     23 C19         5.9298    4.0295    1.9247 C.ar      1 <0>         0.4983
     24 N2          7.0112    4.7888    1.7470 N.ar      1 <0>        -0.5828
     25 C20         7.2608    5.3543    0.5838 C.ar      1 <0>         0.3821
     26 N3          6.4717    5.2063   -0.4643 N.ar      1 <0>        -0.5681
     27 N4          5.6719    3.4387    3.1436 N.pl3     1 <0>        -0.8117
     28 C21         3.8373    3.0448    0.9405 C.2       1 <0>         0.5873
     29 O4          3.0688    3.1999    1.8706 O.2       1 <0>        -0.5094
     30 H1         -0.9393    1.8661   -0.4295 H         1 <0>         0.1262
     31 H2          1.1743    3.1267   -0.4488 H         1 <0>         0.1199
     32 H3          3.3166   -0.4702    0.4236 H         1 <0>         0.1218
     33 H4          1.1979   -1.7224    0.4363 H         1 <0>         0.1301
     34 H5         -2.1207   -0.0949   -0.1965 H         1 <0>         0.0760
     35 H6         -1.1035   -1.4042   -2.0403 H         1 <0>         0.0548
     36 H7         -0.4196   -2.5423   -0.8549 H         1 <0>         0.0616
     37 H8         -3.3894   -1.9659   -1.2607 H         1 <0>         0.0555
     38 H9         -2.5289   -3.4210   -1.8178 H         1 <0>         0.0559
     39 H10        -1.9361   -3.9681    0.5270 H         1 <0>         0.0669
     40 H11        -3.6372   -1.5207    1.1853 H         1 <0>         0.0435
     41 H12        -2.9533   -2.6588    2.3708 H         1 <0>         0.0955
     42 H13        -0.6674   -2.0972    1.5911 H         1 <0>         0.0616
     43 H14        -1.5279   -0.6420    2.1482 H         1 <0>         0.0551
     44 H15        -4.9129   -3.3790    0.2097 H         1 <0>         0.0538
     45 H16        -4.0812   -4.7873   -0.4926 H         1 <0>         0.0534
     46 H17         5.5633    1.8047   -0.6184 H         1 <0>         0.0810
     47 H18         4.3388    0.9526   -1.5824 H         1 <0>         0.1130
     48 H19         5.4805    2.9517   -2.6945 H         1 <0>         0.0832
     49 H20         3.7063    2.9305   -2.7280 H         1 <0>         0.1194
     50 H21         8.1466    5.9640    0.4835 H         1 <0>         0.2091
     51 H22         4.8810    2.8890    3.2586 H         1 <0>         0.4218
     52 H23         6.2814    3.5729    3.8862 H         1 <0>         0.4139
@<TRIPOS>BOND
     1    1    6 ar
     2    1    2 ar
     3    1   30 1
     4    2    3 ar
     5    2   31 1
     6    3    4 ar
     7    3   17 1
     8    4    5 ar
     9    4   32 1
    10    5    6 ar
    11    5   33 1
    12    6    7 1
    13    7   12 1
    14    7    8 1
    15    7   34 1
    16    8    9 1
    17    8   35 1
    18    8   36 1
    19    9   10 1
    20    9   37 1
    21    9   38 1
    22   10   11 1
    23   10   13 1
    24   10   39 1
    25   11   12 1
    26   11   40 1
    27   11   41 1
    28   12   42 1
    29   12   43 1
    30   13   14 1
    31   13   44 1
    32   13   45 1
    33   14   15 2
    34   14   16 1
    35   17   28 am
    36   17   18 1
    37   18   19 1
    38   18   46 1
    39   18   47 1
    40   19   20 1
    41   19   48 1
    42   19   49 1
    43   20   21 1
    44   21   26 ar
    45   21   22 ar
    46   22   23 ar
    47   22   28 1
    48   23   24 ar
    49   23   27 1
    50   24   25 ar
    51   25   26 ar
    52   25   50 1
    53   27   51 1
    54   27   52 1
    55   28   29 2
@<TRIPOS>MOLECULE
ZINC14974425
   55    58     0     0     0
SMALL
USER_CHARGES
(1S,2S)-2-[4-[4-(phenylcarbamoylamino)phenyl]benzoyl]cyclopentane-1-carboxylic acid
@<TRIPOS>ATOM
      1 C1          0.2531    3.6146   -2.3905 C.ar      1 <0>        -0.1352
      2 C2          1.0702    3.3306   -1.3116 C.ar      1 <0>        -0.1027
      3 C3          1.0135    2.0895   -0.7084 C.ar      1 <0>        -0.1464
      4 C4          0.1351    1.1261   -1.1867 C.ar      1 <0>         0.1589
      5 C5         -0.6801    1.4125   -2.2739 C.ar      1 <0>        -0.1181
      6 C6         -0.6224    2.6573   -2.8694 C.ar      1 <0>        -0.1012
      7 N1          0.0756   -0.1326   -0.5781 N.am      1 <0>        -0.6830
      8 C7         -1.1017   -0.7825   -0.4877 C.2       1 <0>         0.7033
      9 O1         -2.0958   -0.3148   -1.0086 O.2       1 <0>        -0.5513
     10 N2         -1.1770   -1.9508    0.1800 N.am      1 <0>        -0.6795
     11 C8         -2.3732   -2.6725    0.1923 C.ar      1 <0>         0.1559
     12 C9         -3.5895   -1.9995    0.2159 C.ar      1 <0>        -0.1156
     13 C10        -4.7709   -2.7089    0.2224 C.ar      1 <0>        -0.0888
     14 C11        -4.7455   -4.1039    0.2172 C.ar      1 <0>        -0.0558
     15 C12        -3.5235   -4.7768    0.1992 C.ar      1 <0>        -0.0878
     16 C13        -2.3451   -4.0625    0.1866 C.ar      1 <0>        -0.1410
     17 C14        -6.0138   -4.8691    0.2312 C.ar      1 <0>        -0.0227
     18 C15        -5.9859   -6.2650    0.2207 C.ar      1 <0>        -0.1243
     19 C16        -7.1539   -6.9726    0.2394 C.ar      1 <0>        -0.0590
     20 C17        -8.3804   -6.2970    0.2574 C.ar      1 <0>        -0.1541
     21 C18        -8.4061   -4.8968    0.2622 C.ar      1 <0>        -0.0617
     22 C19        -7.2355   -4.1933    0.2492 C.ar      1 <0>        -0.1261
     23 C20        -9.6384   -7.0560    0.2709 C.2       1 <0>         0.4072
     24 O2        -10.7002   -6.4699    0.2861 O.2       1 <0>        -0.4556
     25 C21        -9.6095   -8.5627    0.2657 C.3       1 <0>        -0.1179
     26 H1         -8.7869   -8.8787   -0.2071 H         1 <0>         0.1012
     27 C22        -9.6339   -9.0953    1.7092 C.3       1 <0>        -0.1066
     28 C23       -10.9108   -9.9508    1.8417 C.3       1 <0>        -0.1228
     29 C24       -11.2340  -10.3784    0.3885 C.3       1 <0>        -0.0969
     30 C25       -10.8717   -9.1131   -0.4297 C.3       1 <0>        -0.1254
     31 H2        -11.6811   -8.3845   -0.3836 H         1 <0>         0.0874
     32 C26       -10.5692   -9.4776   -1.8603 C.2       1 <0>         0.4676
     33 O3         -9.4555   -9.3196   -2.3014 O.co2     1 <0>        -0.6406
     34 H3          0.2990    4.5860   -2.8602 H         1 <0>         0.1229
     35 H4          1.7531    4.0802   -0.9401 H         1 <0>         0.1256
     36 H5          1.6519    1.8683    0.1341 H         1 <0>         0.1242
     37 H6         -1.3613    0.6640   -2.6508 H         1 <0>         0.1415
     38 H7         -1.2590    2.8820   -3.7124 H         1 <0>         0.1262
     39 H8          0.8816   -0.5373   -0.2212 H         1 <0>         0.4080
     40 H9         -0.4006   -2.2905    0.6520 H         1 <0>         0.4081
     41 H10        -3.6085   -0.9197    0.2251 H         1 <0>         0.1420
     42 H11        -5.7155   -2.1855    0.2359 H         1 <0>         0.1309
     43 H12        -3.5011   -5.8566    0.1948 H         1 <0>         0.1335
     44 H13        -1.3989   -4.5830    0.1727 H         1 <0>         0.1274
     45 H14        -5.0398   -6.7857    0.2023 H         1 <0>         0.1300
     46 H15        -7.1318   -8.0524    0.2360 H         1 <0>         0.1383
     47 H16        -9.3509   -4.3737    0.2757 H         1 <0>         0.1337
     48 H17        -7.2549   -3.1135    0.2525 H         1 <0>         0.1286
     49 H18        -8.7525   -9.7087    1.8958 H         1 <0>         0.0693
     50 H19        -9.6659   -8.2640    2.4134 H         1 <0>         0.0590
     51 H20       -10.7210  -10.8257    2.4635 H         1 <0>         0.0628
     52 H21       -11.7263   -9.3575    2.2551 H         1 <0>         0.0636
     53 H22       -10.6142  -11.2229    0.0874 H         1 <0>         0.0631
     54 H23       -12.2916  -10.6204    0.2832 H         1 <0>         0.0679
     55 O4        -11.5371   -9.9776   -2.6445 O.co2     1 <0>        -0.7678
@<TRIPOS>BOND
     1    1    6 ar
     2    1    2 ar
     3    1   34 1
     4    2    3 ar
     5    2   35 1
     6    3    4 ar
     7    3   36 1
     8    4    5 ar
     9    4    7 1
    10    5    6 ar
    11    5   37 1
    12    6   38 1
    13    7    8 am
    14    7   39 1
    15    8    9 2
    16    8   10 am
    17   10   11 1
    18   10   40 1
    19   11   16 ar
    20   11   12 ar
    21   12   13 ar
    22   12   41 1
    23   13   14 ar
    24   13   42 1
    25   14   15 ar
    26   14   17 1
    27   15   16 ar
    28   15   43 1
    29   16   44 1
    30   17   22 ar
    31   17   18 ar
    32   18   19 ar
    33   18   45 1
    34   19   20 ar
    35   19   46 1
    36   20   21 ar
    37   20   23 1
    38   21   22 ar
    39   21   47 1
    40   22   48 1
    41   23   24 2
    42   23   25 1
    43   25   26 1
    44   25   30 1
    45   25   27 1
    46   27   28 1
    47   27   49 1
    48   27   50 1
    49   28   29 1
    50   28   51 1
    51   28   52 1
    52   29   30 1
    53   29   53 1
    54   29   54 1
    55   30   31 1
    56   30   32 1
    57   32   33 2
    58   32   55 1
@<TRIPOS>MOLECULE
ZINC14974428
   55    58     0     0     0
SMALL
USER_CHARGES
(1S,2R)-2-[4-[4-(phenylcarbamoylamino)phenyl]benzoyl]cyclopentane-1-carboxylic acid
@<TRIPOS>ATOM
      1 C1          0.2457    3.6351   -2.2811 C.ar      1 <0>        -0.1361
      2 C2          1.0407    3.3634   -1.1827 C.ar      1 <0>        -0.1027
      3 C3          0.9790    2.1257   -0.5730 C.ar      1 <0>        -0.1468
      4 C4          0.1178    1.1534   -1.0644 C.ar      1 <0>         0.1605
      5 C5         -0.6747    1.4273   -2.1714 C.ar      1 <0>        -0.1183
      6 C6         -0.6129    2.6691   -2.7728 C.ar      1 <0>        -0.1015
      7 N1          0.0528   -0.1016   -0.4489 N.am      1 <0>        -0.6839
      8 C7         -1.1221   -0.7582   -0.3795 C.2       1 <0>         0.7030
      9 O1         -2.1090   -0.2972   -0.9199 O.2       1 <0>        -0.5522
     10 N2         -1.2032   -1.9258    0.2887 N.am      1 <0>        -0.6784
     11 C8         -2.3974   -2.6511    0.2855 C.ar      1 <0>         0.1494
     12 C9         -3.6159   -1.9817    0.2932 C.ar      1 <0>        -0.1137
     13 C10        -4.7951   -2.6946    0.2851 C.ar      1 <0>        -0.0917
     14 C11        -4.7655   -4.0895    0.2795 C.ar      1 <0>        -0.0458
     15 C12        -3.5413   -4.7588    0.2771 C.ar      1 <0>        -0.0914
     16 C13        -2.3650   -4.0410    0.2803 C.ar      1 <0>        -0.1401
     17 C14        -6.0316   -4.8585    0.2755 C.ar      1 <0>        -0.0324
     18 C15        -5.9994   -6.2544    0.2637 C.ar      1 <0>        -0.1222
     19 C16        -7.1655   -6.9654    0.2658 C.ar      1 <0>        -0.0541
     20 C17        -8.3941   -6.2934    0.2682 C.ar      1 <0>        -0.1240
     21 C18        -8.4240   -4.8934    0.2743 C.ar      1 <0>        -0.0598
     22 C19        -7.2555   -4.1864    0.2779 C.ar      1 <0>        -0.1228
     23 C20        -9.6499   -7.0562    0.2648 C.2       1 <0>         0.4063
     24 O2        -10.7135   -6.4733    0.2672 O.2       1 <0>        -0.4415
     25 C21        -9.6164   -8.5628    0.2582 C.3       1 <0>        -0.1090
     26 H1         -8.7515   -8.8752   -0.1347 H         1 <0>         0.0798
     27 C22       -10.8052   -9.1143   -0.5556 C.3       1 <0>        -0.1159
     28 C23       -11.2402  -10.3829    0.2193 C.3       1 <0>        -0.1197
     29 C24       -11.0591   -9.9590    1.6980 C.3       1 <0>        -0.1134
     30 C25        -9.7778   -9.0999    1.6911 C.3       1 <0>        -0.1244
     31 H2         -8.9166   -9.7117    1.9598 H         1 <0>         0.0734
     32 C26        -9.9196   -7.9536    2.6591 C.2       1 <0>         0.4561
     33 O3        -11.0182   -7.5726    2.9874 O.co2     1 <0>        -0.6239
     34 H3          0.2958    4.6038   -2.7561 H         1 <0>         0.1224
     35 H4          1.7103    4.1200   -0.8011 H         1 <0>         0.1254
     36 H5          1.6001    1.9141    0.2848 H         1 <0>         0.1242
     37 H6         -1.3422    0.6718   -2.5586 H         1 <0>         0.1412
     38 H7         -1.2325    2.8844   -3.6307 H         1 <0>         0.1256
     39 H8          0.8535   -0.4990   -0.0721 H         1 <0>         0.4078
     40 H9         -0.4325   -2.2626    0.7719 H         1 <0>         0.4074
     41 H10        -3.6382   -0.9020    0.3017 H         1 <0>         0.1404
     42 H11        -5.7414   -2.1741    0.2866 H         1 <0>         0.1308
     43 H12        -3.5156   -5.8385    0.2724 H         1 <0>         0.1325
     44 H13        -1.4172   -4.5586    0.2785 H         1 <0>         0.1257
     45 H14        -5.0516   -6.7722    0.2574 H         1 <0>         0.1253
     46 H15        -7.1400   -8.0451    0.2607 H         1 <0>         0.1285
     47 H16        -9.3704   -4.3731    0.2758 H         1 <0>         0.1298
     48 H17        -7.2781   -3.1066    0.2823 H         1 <0>         0.1254
     49 H18       -11.6173   -8.3878   -0.5847 H         1 <0>         0.0797
     50 H19       -10.4888   -9.3720   -1.5664 H         1 <0>         0.0615
     51 H20       -12.2826  -10.6241    0.0115 H         1 <0>         0.0625
     52 H21       -10.5920  -11.2250   -0.0233 H         1 <0>         0.0603
     53 H22       -11.9122   -9.3690    2.0329 H         1 <0>         0.0851
     54 H23       -10.9297  -10.8354    2.3330 H         1 <0>         0.0551
     55 O4         -8.8255   -7.3560    3.1566 O.co2     1 <0>        -0.7596
@<TRIPOS>BOND
     1    1    6 ar
     2    1    2 ar
     3    1   34 1
     4    2    3 ar
     5    2   35 1
     6    3    4 ar
     7    3   36 1
     8    4    5 ar
     9    4    7 1
    10    5    6 ar
    11    5   37 1
    12    6   38 1
    13    7    8 am
    14    7   39 1
    15    8    9 2
    16    8   10 am
    17   10   11 1
    18   10   40 1
    19   11   16 ar
    20   11   12 ar
    21   12   13 ar
    22   12   41 1
    23   13   14 ar
    24   13   42 1
    25   14   15 ar
    26   14   17 1
    27   15   16 ar
    28   15   43 1
    29   16   44 1
    30   17   22 ar
    31   17   18 ar
    32   18   19 ar
    33   18   45 1
    34   19   20 ar
    35   19   46 1
    36   20   21 ar
    37   20   23 1
    38   21   22 ar
    39   21   47 1
    40   22   48 1
    41   23   24 2
    42   23   25 1
    43   25   26 1
    44   25   30 1
    45   25   27 1
    46   27   28 1
    47   27   49 1
    48   27   50 1
    49   28   29 1
    50   28   51 1
    51   28   52 1
    52   29   30 1
    53   29   53 1
    54   29   54 1
    55   30   31 1
    56   30   32 1
    57   32   33 2
    58   32   55 1
@<TRIPOS>MOLECULE
ZINC14974393
   55    58     0     0     0
SMALL
USER_CHARGES
(1R,2R)-2-[4-[4-(phenylcarbamoylamino)phenyl]benzoyl]cyclopentane-1-carboxylic acid
@<TRIPOS>ATOM
      1 C1          0.2523    3.6149   -2.3898 C.ar      1 <0>        -0.1352
      2 C2          1.0698    3.3308   -1.3113 C.ar      1 <0>        -0.1024
      3 C3          1.0135    2.0894   -0.7084 C.ar      1 <0>        -0.1462
      4 C4          0.1351    1.1261   -1.1867 C.ar      1 <0>         0.1591
      5 C5         -0.6801    1.4125   -2.2739 C.ar      1 <0>        -0.1184
      6 C6         -0.6235    2.6578   -2.8685 C.ar      1 <0>        -0.1015
      7 N1          0.0756   -0.1326   -0.5781 N.am      1 <0>        -0.6831
      8 C7         -1.1017   -0.7825   -0.4877 C.2       1 <0>         0.7035
      9 O1         -2.0958   -0.3148   -1.0086 O.2       1 <0>        -0.5520
     10 N2         -1.1770   -1.9508    0.1800 N.am      1 <0>        -0.6794
     11 C8         -2.3732   -2.6725    0.1923 C.ar      1 <0>         0.1555
     12 C9         -3.5895   -1.9995    0.2160 C.ar      1 <0>        -0.1152
     13 C10        -4.7709   -2.7089    0.2233 C.ar      1 <0>        -0.0889
     14 C11        -4.7455   -4.1039    0.2181 C.ar      1 <0>        -0.0550
     15 C12        -3.5235   -4.7768    0.1997 C.ar      1 <0>        -0.0884
     16 C13        -2.3451   -4.0625    0.1866 C.ar      1 <0>        -0.1410
     17 C14        -6.0138   -4.8691    0.2316 C.ar      1 <0>        -0.0244
     18 C15        -5.9859   -6.2650    0.2202 C.ar      1 <0>        -0.1242
     19 C16        -7.1539   -6.9726    0.2384 C.ar      1 <0>        -0.0626
     20 C17        -8.3804   -6.2970    0.2569 C.ar      1 <0>        -0.1499
     21 C18        -8.4061   -4.8968    0.2626 C.ar      1 <0>        -0.0617
     22 C19        -7.2355   -4.1933    0.2501 C.ar      1 <0>        -0.1245
     23 C20        -9.6384   -7.0560    0.2709 C.2       1 <0>         0.4094
     24 O2        -10.7002   -6.4699    0.2873 O.2       1 <0>        -0.4519
     25 C21        -9.6095   -8.5627    0.2647 C.3       1 <0>        -0.1124
     26 H1         -8.8347   -8.8835    0.8095 H         1 <0>         0.0975
     27 C22        -9.5290   -9.0953   -1.1808 C.3       1 <0>        -0.1083
     28 C23       -10.4057  -10.3588   -1.2332 C.3       1 <0>        -0.1210
     29 C24       -10.9883  -10.5499    0.1824 C.3       1 <0>        -0.0999
     30 C25       -10.9442   -9.1327    0.8058 C.3       1 <0>        -0.1213
     31 H2        -11.7875   -8.5334    0.4628 H         1 <0>         0.0865
     32 C26       -10.9202   -9.2118    2.3106 C.2       1 <0>         0.4697
     33 O3         -9.9400   -8.8524    2.9188 O.co2     1 <0>        -0.6413
     34 H3          0.2982    4.5863   -2.8596 H         1 <0>         0.1228
     35 H4          1.7527    4.0804   -0.9398 H         1 <0>         0.1258
     36 H5          1.6522    1.8681    0.1339 H         1 <0>         0.1244
     37 H6         -1.3610    0.6638   -2.6510 H         1 <0>         0.1412
     38 H7         -1.2606    2.8828   -3.7110 H         1 <0>         0.1259
     39 H8          0.8816   -0.5373   -0.2212 H         1 <0>         0.4081
     40 H9         -0.4007   -2.2905    0.6520 H         1 <0>         0.4082
     41 H10        -3.6085   -0.9197    0.2249 H         1 <0>         0.1420
     42 H11        -5.7155   -2.1855    0.2372 H         1 <0>         0.1311
     43 H12        -3.5010   -5.8566    0.1952 H         1 <0>         0.1331
     44 H13        -1.3989   -4.5830    0.1723 H         1 <0>         0.1272
     45 H14        -5.0398   -6.7856    0.2015 H         1 <0>         0.1294
     46 H15        -7.1318   -8.0524    0.2344 H         1 <0>         0.1360
     47 H16        -9.3509   -4.3737    0.2772 H         1 <0>         0.1340
     48 H17        -7.2549   -3.1135    0.2548 H         1 <0>         0.1286
     49 H18        -9.9102   -8.3473   -1.8761 H         1 <0>         0.0614
     50 H19        -8.4977   -9.3450   -1.4299 H         1 <0>         0.0663
     51 H20       -11.2123  -10.2240   -1.9539 H         1 <0>         0.0616
     52 H21        -9.8001  -11.2223   -1.5082 H         1 <0>         0.0614
     53 H22       -12.0155  -10.9104    0.1267 H         1 <0>         0.0673
     54 H23       -10.3730  -11.2415    0.7580 H         1 <0>         0.0623
     55 O4        -11.9877   -9.6814    2.9751 O.co2     1 <0>        -0.7691
@<TRIPOS>BOND
     1    1    6 ar
     2    1    2 ar
     3    1   34 1
     4    2    3 ar
     5    2   35 1
     6    3    4 ar
     7    3   36 1
     8    4    5 ar
     9    4    7 1
    10    5    6 ar
    11    5   37 1
    12    6   38 1
    13    7    8 am
    14    7   39 1
    15    8    9 2
    16    8   10 am
    17   10   11 1
    18   10   40 1
    19   11   16 ar
    20   11   12 ar
    21   12   13 ar
    22   12   41 1
    23   13   14 ar
    24   13   42 1
    25   14   15 ar
    26   14   17 1
    27   15   16 ar
    28   15   43 1
    29   16   44 1
    30   17   22 ar
    31   17   18 ar
    32   18   19 ar
    33   18   45 1
    34   19   20 ar
    35   19   46 1
    36   20   21 ar
    37   20   23 1
    38   21   22 ar
    39   21   47 1
    40   22   48 1
    41   23   24 2
    42   23   25 1
    43   25   26 1
    44   25   30 1
    45   25   27 1
    46   27   28 1
    47   27   49 1
    48   27   50 1
    49   28   29 1
    50   28   51 1
    51   28   52 1
    52   29   30 1
    53   29   53 1
    54   29   54 1
    55   30   31 1
    56   30   32 1
    57   32   33 2
    58   32   55 1
@<TRIPOS>MOLECULE
ZINC40901549
   54    57     0     0     0
SMALL
USER_CHARGES

@<TRIPOS>ATOM
      1 C1         -0.6196    0.6030    0.5694 C.3       1 <0>        -0.1718
      2 C2          0.0648   -0.7094    0.1820 C.3       1 <0>         0.1217
      3 C3          0.6914   -0.5642   -1.1804 C.2       1 <0>         0.1706
      4 N1          1.9184   -0.1455   -1.3057 N.2       1 <0>        -0.4295
      5 C4          2.6670    0.1129   -0.1979 C.ar      1 <0>        -0.1552
      6 C5          3.8819    0.8113   -0.2740 C.ar      1 <0>         0.4953
      7 N2          4.5508    1.0408    0.8544 N.ar      1 <0>        -0.5899
      8 C6          4.0899    0.6228    2.0162 C.ar      1 <0>         0.3760
      9 N3          2.9564   -0.0439    2.1305 N.ar      1 <0>        -0.5623
     10 C7          2.2256   -0.3200    1.0605 C.ar      1 <0>         0.3727
     11 O1          1.0719   -1.0240    1.1490 O.3       1 <0>        -0.2773
     12 N4          4.3728    1.2502   -1.4915 N.pl3     1 <0>        -0.8096
     13 C8         -0.0910   -0.8993   -2.3823 C.ar      1 <0>        -0.0648
     14 C9         -1.4560   -0.6030   -2.4371 C.ar      1 <0>        -0.0971
     15 C10        -2.1820   -0.9199   -3.5659 C.ar      1 <0>        -0.1221
     16 C11        -1.5626   -1.5302   -4.6425 C.ar      1 <0>        -0.0435
     17 C12        -0.2116   -1.8267   -4.5957 C.ar      1 <0>        -0.1147
     18 C13         0.5289   -1.5102   -3.4762 C.ar      1 <0>        -0.0692
     19 C14        -2.3634   -1.8741   -5.8719 C.3       1 <0>        -0.0508
     20 C15        -2.3049   -3.3839   -6.1128 C.3       1 <0>        -0.1083
     21 C16        -3.1179   -3.7330   -7.3610 C.3       1 <0>        -0.1153
     22 C17        -2.5346   -3.0005   -8.5710 C.3       1 <0>        -0.0639
     23 C18        -2.5931   -1.4907   -8.3301 C.3       1 <0>        -0.1136
     24 C19        -1.7801   -1.1416   -7.0819 C.3       1 <0>        -0.1097
     25 C20        -1.0798   -3.4287   -8.7737 C.3       1 <0>        -0.1798
     26 C21        -0.5430   -2.8026  -10.0351 C.2       1 <0>         0.4895
     27 O2         -1.2578   -2.0809  -10.7094 O.co2     1 <0>        -0.6947
     28 O3          0.6061   -3.0178  -10.3812 O.co2     1 <0>        -0.7108
     29 C22        -0.9734   -1.8327    0.1453 C.3       1 <0>        -0.1422
     30 H1          0.1196    1.4035    0.5985 H         1 <0>         0.0577
     31 H2         -1.3869    0.8436   -0.1665 H         1 <0>         0.0867
     32 H3         -1.0792    0.4969    1.5520 H         1 <0>         0.0820
     33 H4          4.6613    0.8333    2.9082 H         1 <0>         0.2090
     34 H5          3.8757    1.0761   -2.3060 H         1 <0>         0.4236
     35 H6          5.2139    1.7318   -1.5301 H         1 <0>         0.4109
     36 H7         -1.9409   -0.1274   -1.5974 H         1 <0>         0.1262
     37 H8         -3.2367   -0.6916   -3.6097 H         1 <0>         0.1267
     38 H9          0.2648   -2.3033   -5.4396 H         1 <0>         0.1304
     39 H10         1.5842   -1.7378   -3.4430 H         1 <0>         0.1259
     40 H11        -3.3998   -1.5691   -5.7275 H         1 <0>         0.0754
     41 H12        -1.2685   -3.6889   -6.2573 H         1 <0>         0.0678
     42 H13        -2.7205   -3.9057   -5.2508 H         1 <0>         0.0540
     43 H14        -3.0763   -4.8086   -7.5327 H         1 <0>         0.0556
     44 H15        -4.1544   -3.4280   -7.2166 H         1 <0>         0.0535
     45 H16        -3.1138   -3.2493   -9.4603 H         1 <0>         0.0665
     46 H17        -2.1775   -0.9689   -9.1921 H         1 <0>         0.0950
     47 H18        -3.6295   -1.1857   -8.1857 H         1 <0>         0.0430
     48 H19        -1.8217   -0.0660   -6.9103 H         1 <0>         0.0535
     49 H20        -0.7436   -1.4466   -7.2263 H         1 <0>         0.0677
     50 H21        -0.4826   -3.1009   -7.9228 H         1 <0>         0.0600
     51 H22        -1.0287   -4.5143   -8.8568 H         1 <0>         0.0508
     52 H23        -1.8104   -1.5333   -0.4854 H         1 <0>         0.0983
     53 H24        -0.5174   -2.7357   -0.2605 H         1 <0>         0.0732
     54 H25        -1.3319   -2.0292    1.1557 H         1 <0>         0.0769
@<TRIPOS>BOND
     1    1    2 1
     2    1   30 1
     3    1   31 1
     4    1   32 1
     5    2   11 1
     6    2    3 1
     7    2   29 1
     8    3    4 2
     9    3   13 1
    10    4    5 1
    11    5   10 ar
    12    5    6 ar
    13    6    7 ar
    14    6   12 1
    15    7    8 ar
    16    8    9 ar
    17    8   33 1
    18    9   10 ar
    19   10   11 1
    20   12   34 1
    21   12   35 1
    22   13   18 ar
    23   13   14 ar
    24   14   15 ar
    25   14   36 1
    26   15   16 ar
    27   15   37 1
    28   16   17 ar
    29   16   19 1
    30   17   18 ar
    31   17   38 1
    32   18   39 1
    33   19   24 1
    34   19   20 1
    35   19   40 1
    36   20   21 1
    37   20   41 1
    38   20   42 1
    39   21   22 1
    40   21   43 1
    41   21   44 1
    42   22   23 1
    43   22   25 1
    44   22   45 1
    45   23   24 1
    46   23   46 1
    47   23   47 1
    48   24   48 1
    49   24   49 1
    50   25   26 1
    51   25   50 1
    52   25   51 1
    53   26   27 2
    54   26   28 1
    55   29   52 1
    56   29   53 1
    57   29   54 1
