@<TRIPOS>MOLECULE
ZINC22055353
   17    16     0     0     0
SMALL
USER_CHARGES

@<TRIPOS>ATOM
      1 C1         -0.0858    1.6680    0.0712 C.3       1 <0>         0.0266
      2 C2         -0.1575    0.1562   -0.1529 C.3       1 <0>        -0.0568
      3 H1          0.4838   -0.3490    0.5694 H         1 <0>         0.1460
      4 C3         -1.5792   -0.3110    0.0245 C.2       1 <0>         0.4987
      5 O1         -2.3354   -0.3391   -0.9314 O.co2     1 <0>        -0.6713
      6 O2         -1.9732   -0.6610    1.1240 O.co2     1 <0>        -0.6278
      7 N1          0.2953   -0.1590   -1.5143 N.4       1 <0>        -0.6048
      8 S1          1.6468    2.2039    0.0298 S.3       1 <0>        -0.9510
      9 S2          2.3950    1.6037    1.8415 S.o2      1 <0>         2.5937
     10 O3          3.6543    2.3066    2.0322 O.2       1 <0>        -0.9538
     11 O4          1.4104    1.9704    2.8476 O.2       1 <0>        -0.9596
     12 O5          2.5829    0.1633    1.7647 O.3       1 <0>        -0.9702
     13 H2         -0.6429    2.1786   -0.7142 H         1 <0>         0.1207
     14 H3         -0.5186    1.9124    1.0413 H         1 <0>         0.1301
     15 H4         -0.2346    0.3843   -2.1792 H         1 <0>         0.4274
     16 H5          1.2753    0.0639   -1.6029 H         1 <0>         0.4250
     17 H6          0.1561   -1.1417   -1.6960 H         1 <0>         0.4269
@<TRIPOS>BOND
     1    1    2 1
     2    1    8 1
     3    1   13 1
     4    1   14 1
     5    2    3 1
     6    2    4 1
     7    2    7 1
     8    4    5 2
     9    4    6 1
    10    7   15 1
    11    7   16 1
    12    7   17 1
    13    8    9 1
    14    9   10 2
    15    9   11 2
    16    9   12 1
