@<TRIPOS>MOLECULE
ZINC13509425
   42    45     0     0     0
SMALL
USER_CHARGES

@<TRIPOS>ATOM
      1 C1         -0.0187    1.5258    0.0104 C.3       1 <0>        -0.1441
      2 C2          0.0021   -0.0041    0.0020 C.3       1 <0>        -0.1261
      3 C3         -1.4074   -0.5256    0.1829 C.3       1 <0>        -0.0977
      4 C4         -1.9733    0.0969    1.4736 C.3       1 <0>        -0.1140
      5 C5         -1.0810   -0.2282    2.6627 C.3       1 <0>        -0.0432
      6 H1         -1.0782   -1.3101    2.7958 H         1 <0>         0.0788
      7 C6         -1.5931    0.3931    3.9301 C.ar      1 <0>        -0.0786
      8 C7         -2.9665    0.5118    4.0958 C.ar      1 <0>        -0.1029
      9 C8         -3.4900    1.0660    5.2445 C.ar      1 <0>        -0.1471
     10 C9         -2.6356    1.5075    6.2447 C.ar      1 <0>         0.1033
     11 C10        -1.2666    1.3928    6.0776 C.ar      1 <0>        -0.1480
     12 C11        -0.7400    0.8406    4.9173 C.ar      1 <0>        -0.0576
     13 C12         0.7595    0.7756    4.7933 C.3       1 <0>        -0.0825
     14 C13         1.1841   -0.1541    3.6574 C.3       1 <0>        -0.1134
     15 C14         0.3656    0.2227    2.4221 C.3       1 <0>        -0.0748
     16 H2          0.3966    1.2998    2.2579 H         1 <0>         0.0887
     17 C15         0.8620   -0.5119    1.1930 C.3       1 <0>        -0.0782
     18 H3          0.7512   -1.5883    1.3238 H         1 <0>         0.0848
     19 C16         2.2729   -0.1511    0.7109 C.3       1 <0>        -0.1112
     20 C17         2.2205   -0.5241   -0.7959 C.3       1 <0>        -0.1833
     21 C18         0.7513   -0.4835   -1.2046 C.2       1 <0>         0.3798
     22 O1          0.2870   -0.7771   -2.2801 O.2       1 <0>        -0.4385
     23 O2         -3.1409    2.0507    7.3833 O.3       1 <0>        -0.5004
     24 H4          1.0038    1.9031   -0.0041 H         1 <0>         0.0636
     25 H5         -0.5517    1.8867   -0.8692 H         1 <0>         0.0594
     26 H6         -0.5229    1.8774    0.9105 H         1 <0>         0.0807
     27 H7         -2.0218   -0.2335   -0.6688 H         1 <0>         0.0727
     28 H8         -1.3910   -1.6118    0.2726 H         1 <0>         0.0674
     29 H9         -2.0328    1.1787    1.3544 H         1 <0>         0.0719
     30 H10        -2.9724   -0.2993    1.6553 H         1 <0>         0.0695
     31 H11        -3.6309    0.1671    3.3173 H         1 <0>         0.1279
     32 H12        -4.5595    1.1563    5.3650 H         1 <0>         0.1277
     33 H13        -0.6018    1.7357    6.8566 H         1 <0>         0.1263
     34 H14         1.1450    1.7763    4.5982 H         1 <0>         0.0780
     35 H15         1.1794    0.4091    5.7301 H         1 <0>         0.0756
     36 H16         2.2463   -0.0219    3.4518 H         1 <0>         0.0737
     37 H17         0.9894   -1.1893    3.9375 H         1 <0>         0.0677
     38 H18         2.4651    0.9141    0.8393 H         1 <0>         0.0788
     39 H19         3.0235   -0.7463    1.2309 H         1 <0>         0.0784
     40 H20         2.7904    0.1988   -1.3795 H         1 <0>         0.0984
     41 H21         2.6224   -1.5261   -0.9467 H         1 <0>         0.0978
     42 H22        -3.3092    1.4071    8.0851 H         1 <0>         0.3905
@<TRIPOS>BOND
     1    1    2 1
     2    1   24 1
     3    1   25 1
     4    1   26 1
     5    2   17 1
     6    2   21 1
     7    2    3 1
     8    3    4 1
     9    3   27 1
    10    3   28 1
    11    4    5 1
    12    4   29 1
    13    4   30 1
    14    5    6 1
    15    5   15 1
    16    5    7 1
    17    7   12 ar
    18    7    8 ar
    19    8    9 ar
    20    8   31 1
    21    9   10 ar
    22    9   32 1
    23   10   11 ar
    24   10   23 1
    25   11   12 ar
    26   11   33 1
    27   12   13 1
    28   13   14 1
    29   13   34 1
    30   13   35 1
    31   14   15 1
    32   14   36 1
    33   14   37 1
    34   15   16 1
    35   15   17 1
    36   17   18 1
    37   17   19 1
    38   19   20 1
    39   19   38 1
    40   19   39 1
    41   20   21 1
    42   20   40 1
    43   20   41 1
    44   21   22 2
    45   23   42 1
@<TRIPOS>MOLECULE
ZINC03869768
   31    33     0     0     0
SMALL
USER_CHARGES

@<TRIPOS>ATOM
      1 C1          0.9745   -0.2752   -0.9649 C.ar      1 <0>        -0.0474
      2 C2          2.1550    0.4346   -0.9693 C.ar      1 <0>        -0.1488
      3 C3          2.3800    1.4188   -0.0145 C.ar      1 <0>         0.1280
      4 C4          1.4162    1.6917    0.9485 C.ar      1 <0>        -0.1504
      5 C5          0.2327    0.9869    0.9606 C.ar      1 <0>        -0.0665
      6 C6          0.0021   -0.0041    0.0020 C.ar      1 <0>        -0.0625
      7 C7         -1.2634   -0.7608    0.0105 C.2       1 <0>         0.1356
      8 C8         -1.2167   -2.1184   -0.0957 C.2       1 <0>        -0.0454
      9 C9         -2.4259   -2.8610   -0.0886 C.2       1 <0>         0.4007
     10 O1         -2.4232   -4.0781   -0.1814 O.2       1 <0>        -0.4492
     11 C10        -3.6832   -2.1065    0.0355 C.ar      1 <0>        -0.2689
     12 C11        -4.9234   -2.7585    0.0517 C.ar      1 <0>         0.2243
     13 C12        -6.0821   -2.0144    0.1703 C.ar      1 <0>        -0.2086
     14 C13        -6.0155   -0.6287    0.2722 C.ar      1 <0>         0.1994
     15 C14        -4.7926    0.0230    0.2564 C.ar      1 <0>        -0.1859
     16 C15        -3.6188   -0.7060    0.1392 C.ar      1 <0>         0.1873
     17 O2         -2.4200   -0.0864    0.1283 O.3       1 <0>        -0.1981
     18 O3         -7.1599    0.0925    0.3877 O.3       1 <0>        -0.4869
     19 O4         -4.9864   -4.1104   -0.0487 O.3       1 <0>        -0.4727
     20 O5         -0.0202   -2.7570   -0.2082 O.3       1 <0>        -0.4492
     21 O6          3.5454    2.1157   -0.0224 O.3       1 <0>        -0.4978
     22 H1          0.7987   -1.0369   -1.7101 H         1 <0>         0.1366
     23 H2          2.9071    0.2256   -1.7157 H         1 <0>         0.1375
     24 H3          1.5954    2.4572    1.6889 H         1 <0>         0.1366
     25 H4         -0.5157    1.1995    1.7097 H         1 <0>         0.1340
     26 H5         -7.0416   -2.5100    0.1835 H         1 <0>         0.1512
     27 H6         -4.7536    1.0994    0.3359 H         1 <0>         0.1553
     28 H7         -7.4448    0.2345    1.3008 H         1 <0>         0.4049
     29 H8         -4.9577   -4.5698    0.8018 H         1 <0>         0.4037
     30 H9         -0.0926   -3.7187   -0.2778 H         1 <0>         0.4073
     31 H10         3.5195    2.9194   -0.5594 H         1 <0>         0.3958
@<TRIPOS>BOND
     1    1    6 ar
     2    1    2 ar
     3    1   22 1
     4    2    3 ar
     5    2   23 1
     6    3    4 ar
     7    3   21 1
     8    4    5 ar
     9    4   24 1
    10    5    6 ar
    11    5   25 1
    12    6    7 1
    13    7   17 1
    14    7    8 2
    15    8    9 1
    16    8   20 1
    17    9   10 2
    18    9   11 1
    19   11   16 ar
    20   11   12 ar
    21   12   13 ar
    22   12   19 1
    23   13   14 ar
    24   13   26 1
    25   14   15 ar
    26   14   18 1
    27   15   16 ar
    28   15   27 1
    29   16   17 1
    30   18   28 1
    31   19   29 1
    32   20   30 1
    33   21   31 1
@<TRIPOS>MOLECULE
ZINC03869768
   30    32     0     0     0
SMALL
USER_CHARGES

@<TRIPOS>ATOM
      1 C1          0.1387    1.1253   -0.8121 C.ar      1 <0>        -0.0723
      2 C2          1.3222    1.8291   -0.8163 C.ar      1 <0>        -0.1492
      3 C3          2.3802    1.4188   -0.0136 C.ar      1 <0>         0.1107
      4 C4          2.2493    0.2973    0.7970 C.ar      1 <0>        -0.1487
      5 C5          1.0698   -0.4131    0.8081 C.ar      1 <0>        -0.0549
      6 C6          0.0021   -0.0041    0.0020 C.ar      1 <0>        -0.0373
      7 C7         -1.2618   -0.7600    0.0105 C.2       1 <0>         0.1024
      8 C8         -1.2272   -2.1382   -0.0967 C.2       1 <0>        -0.0073
      9 C9         -2.4246   -2.8649   -0.0894 C.2       1 <0>         0.3353
     10 C10        -3.6396   -2.1555    0.0286 C.2       1 <0>        -0.3335
     11 C11        -4.8747   -2.8371    0.0419 C.2       1 <0>         0.2665
     12 C12        -6.0380   -2.1324    0.1573 C.2       1 <0>        -0.3754
     13 C13        -6.0102   -0.7324    0.2627 C.2       1 <0>         0.3645
     14 O1         -7.1532   -0.0530    0.3751 O.2       1 <0>        -0.6613
     15 C14        -4.7917   -0.0455    0.2513 C.2       1 <0>        -0.3154
     16 C15        -3.6071   -0.7470    0.1346 C.2       1 <0>         0.2120
     17 O2         -2.4247   -0.0966    0.1278 O.3       1 <0>        -0.2026
     18 O3         -4.9062   -4.1898   -0.0602 O.3       1 <0>        -0.4482
     19 O4         -2.4171   -4.2129   -0.1933 O.3       1 <0>        -0.5752
     20 O5         -0.0356   -2.7853   -0.2091 O.3       1 <0>        -0.4646
     21 O6          3.5454    2.1154   -0.0218 O.3       1 <0>        -0.5000
     22 H1         -0.6842    1.4472   -1.4330 H         1 <0>         0.1347
     23 H2          1.4286    2.7011   -1.4445 H         1 <0>         0.1321
     24 H3          3.0741   -0.0177    1.4190 H         1 <0>         0.1323
     25 H4          0.9692   -1.2847    1.4377 H         1 <0>         0.1358
     26 H5         -6.9838   -2.6538    0.1671 H         1 <0>         0.1177
     27 H6         -4.7769    1.0313    0.3327 H         1 <0>         0.1225
     28 H7         -5.7973   -4.5650   -0.0417 H         1 <0>         0.3845
     29 H8         -0.1151   -3.7466   -0.2784 H         1 <0>         0.4051
     30 H9          3.5829    2.8269    0.6320 H         1 <0>         0.3897
@<TRIPOS>BOND
     1    1    6 ar
     2    1    2 ar
     3    1   22 1
     4    2    3 ar
     5    2   23 1
     6    3    4 ar
     7    3   21 1
     8    4    5 ar
     9    4   24 1
    10    5    6 ar
    11    5   25 1
    12    6    7 1
    13    7   17 1
    14    7    8 2
    15    8    9 1
    16    8   20 1
    17    9   10 2
    18    9   19 1
    19   10   16 1
    20   10   11 1
    21   11   12 2
    22   11   18 1
    23   12   13 1
    24   12   26 1
    25   13   14 2
    26   13   15 1
    27   15   16 2
    28   15   27 1
    29   16   17 1
    30   18   28 1
    31   20   29 1
    32   21   30 1
@<TRIPOS>MOLECULE
ZINC05494877
   45    49     0     0     0
SMALL
USER_CHARGES
8-(1-adamantyl)-7,9,10-triazabicyclo[5.3.0]deca-8,10-diene
@<TRIPOS>ATOM
      1 C1         -1.3389    6.4099    4.6910 C.3       1 <0>        -0.1250
      2 C2         -2.4653    5.5359    5.2341 C.3       1 <0>        -0.1239
      3 C3         -1.8809    4.4526    6.1456 C.3       1 <0>        -0.0368
      4 C4         -1.5180    3.2511    5.3118 C.2       1 <0>         0.1766
      5 N1         -1.7900    2.0035    5.5686 N.2       1 <0>        -0.2937
      6 N2         -1.3064    1.2568    4.6378 N.2       1 <0>        -0.2907
      7 C5         -0.7002    1.9984    3.7486 C.2       1 <0>         0.1857
      8 N3         -0.8297    3.2832    4.1468 N.pl3     1 <0>        -0.4631
      9 C6         -0.3386    4.4770    3.4579 C.3       1 <0>         0.0992
     10 C7         -0.0714    5.5820    4.4837 C.3       1 <0>        -0.1419
     11 C8          0.0052    1.5124    2.5088 C.3       1 <0>         0.0377
     12 C9         -0.5575    2.2373    1.2846 C.3       1 <0>        -0.1075
     13 C10         0.1586    1.7439    0.0258 C.3       1 <0>        -0.0830
     14 H1         -0.2423    2.2604   -0.8464 H         1 <0>         0.0748
     15 C11         1.6565    2.0319    0.1452 C.3       1 <0>        -0.1101
     16 C12         2.2192    1.3069    1.3694 C.3       1 <0>        -0.0834
     17 H2          3.2864    1.5121    1.4544 H         1 <0>         0.0750
     18 C13         1.5031    1.8003    2.6282 C.3       1 <0>        -0.1033
     19 C14         2.0002   -0.1995    1.2153 C.3       1 <0>        -0.1105
     20 C15         0.5023   -0.4875    1.0959 C.3       1 <0>        -0.0869
     21 H3          0.3462   -1.5606    0.9862 H         1 <0>         0.0768
     22 C16        -0.0604    0.2375   -0.1282 C.3       1 <0>        -0.1107
     23 C17        -0.2139    0.0060    2.3547 C.3       1 <0>        -0.0894
     24 H4         -1.1326    7.2121    5.3995 H         1 <0>         0.0748
     25 H5         -1.6461    6.8420    3.7387 H         1 <0>         0.0700
     26 H6         -3.1611    6.1525    5.8031 H         1 <0>         0.0818
     27 H7         -2.9926    5.0661    4.4038 H         1 <0>         0.0643
     28 H8         -0.9886    4.8354    6.6410 H         1 <0>         0.0920
     29 H9         -2.6201    4.1684    6.8944 H         1 <0>         0.1004
     30 H10         0.5854    4.2387    2.9313 H         1 <0>         0.0985
     31 H11        -1.0872    4.8178    2.7427 H         1 <0>         0.0894
     32 H12         0.2274    5.1330    5.4309 H         1 <0>         0.0817
     33 H13         0.7282    6.2278    4.1210 H         1 <0>         0.0889
     34 H14        -0.4015    3.3105    1.3943 H         1 <0>         0.0623
     35 H15        -1.6247    2.0322    1.1995 H         1 <0>         0.0674
     36 H16         2.1667    1.6804   -0.7516 H         1 <0>         0.0674
     37 H17         1.8125    3.1051    0.2549 H         1 <0>         0.0611
     38 H18         1.9040    1.2838    3.5003 H         1 <0>         0.0692
     39 H19         1.6591    2.8735    2.7379 H         1 <0>         0.0605
     40 H20         2.4011   -0.7160    2.0875 H         1 <0>         0.0647
     41 H21         2.5104   -0.5510    0.3186 H         1 <0>         0.0657
     42 H22        -1.1276    0.0324   -0.2133 H         1 <0>         0.0639
     43 H23         0.4497   -0.1140   -1.0250 H         1 <0>         0.0657
     44 H24        -1.2810   -0.1992    2.2697 H         1 <0>         0.0705
     45 H25         0.1870   -0.5105    3.2269 H         1 <0>         0.0739
@<TRIPOS>BOND
     1    1   10 1
     2    1    2 1
     3    1   24 1
     4    1   25 1
     5    2    3 1
     6    2   26 1
     7    2   27 1
     8    3    4 1
     9    3   28 1
    10    3   29 1
    11    4    8 1
    12    4    5 2
    13    5    6 1
    14    6    7 2
    15    7    8 1
    16    7   11 1
    17    8    9 1
    18    9   10 1
    19    9   30 1
    20    9   31 1
    21   10   32 1
    22   10   33 1
    23   11   18 1
    24   11   23 1
    25   11   12 1
    26   12   13 1
    27   12   34 1
    28   12   35 1
    29   13   14 1
    30   13   22 1
    31   13   15 1
    32   15   16 1
    33   15   36 1
    34   15   37 1
    35   16   17 1
    36   16   18 1
    37   16   19 1
    38   18   38 1
    39   18   39 1
    40   19   20 1
    41   19   40 1
    42   19   41 1
    43   20   21 1
    44   20   22 1
    45   20   23 1
    46   22   42 1
    47   22   43 1
    48   23   44 1
    49   23   45 1
@<TRIPOS>MOLECULE
ZINC29056253
   29    31     0     0     0
SMALL
USER_CHARGES
3-(2-naphthyl)phenol
@<TRIPOS>ATOM
      1 C1         -1.2930   10.1733    0.0736 C.ar      1 <0>        -0.1145
      2 C2         -2.4978    9.4727    0.0801 C.ar      1 <0>        -0.1152
      3 C3         -2.5165    8.1120    0.0716 C.ar      1 <0>        -0.1056
      4 C4         -1.3043    7.3994    0.0557 C.ar      1 <0>        -0.0502
      5 C5         -1.2872    5.9960    0.0470 C.ar      1 <0>        -0.0920
      6 C6         -0.0758    5.3309    0.0319 C.ar      1 <0>        -0.0457
      7 C7          1.1321    6.0471    0.0305 C.ar      1 <0>        -0.1060
      8 C8          1.1370    7.4051    0.0333 C.ar      1 <0>        -0.1028
      9 C9         -0.0788    8.1122    0.0487 C.ar      1 <0>        -0.0506
     10 C10        -0.1005    9.5172    0.0582 C.ar      1 <0>        -0.1071
     11 C11        -0.0513    3.8476    0.0232 C.ar      1 <0>        -0.0058
     12 C12        -1.2457    3.1286    0.0308 C.ar      1 <0>        -0.1549
     13 C13        -1.2203    1.7487    0.0174 C.ar      1 <0>        -0.0738
     14 C14        -0.0126    1.0758    0.0080 C.ar      1 <0>        -0.1619
     15 C15         1.1810    1.7841    0.0004 C.ar      1 <0>         0.1597
     16 C16         1.1648    3.1693    0.0080 C.ar      1 <0>        -0.2070
     17 O1          2.3659    1.1185   -0.0141 O.3       1 <0>        -0.5099
     18 H1         -1.3057   11.2532    0.0812 H         1 <0>         0.1243
     19 H2         -3.4302   10.0177    0.0923 H         1 <0>         0.1247
     20 H3         -3.4576    7.5821    0.0768 H         1 <0>         0.1281
     21 H4         -2.2132    5.4403    0.0518 H         1 <0>         0.1325
     22 H5          2.0696    5.5109    0.0228 H         1 <0>         0.1254
     23 H6          2.0741    7.9419    0.0279 H         1 <0>         0.1298
     24 H7          0.8249   10.0740    0.0530 H         1 <0>         0.1279
     25 H8         -2.1907    3.6513    0.0426 H         1 <0>         0.1265
     26 H9         -2.1464    1.1930    0.0187 H         1 <0>         0.1317
     27 H10         0.0021   -0.0041    0.0020 H         1 <0>         0.1292
     28 H11         2.0929    3.7217    0.0017 H         1 <0>         0.1296
     29 H12         3.3119    1.6797   -0.0201 H         1 <0>         0.4337
@<TRIPOS>BOND
     1    1   10 ar
     2    1    2 ar
     3    1   18 1
     4    2    3 ar
     5    2   19 1
     6    3    4 ar
     7    3   20 1
     8    4    9 ar
     9    4    5 ar
    10    5    6 ar
    11    5   21 1
    12    6    7 ar
    13    6   11 1
    14    7    8 ar
    15    7   22 1
    16    8    9 ar
    17    8   23 1
    18    9   10 ar
    19   10   24 1
    20   11   16 ar
    21   11   12 ar
    22   12   13 ar
    23   12   25 1
    24   13   14 ar
    25   13   26 1
    26   14   15 ar
    27   14   27 1
    28   15   16 ar
    29   15   17 1
    30   16   28 1
    31   17   29 1
@<TRIPOS>MOLECULE
ZINC00339051
   29    31     0     0     0
SMALL
USER_CHARGES
1-(7-hydroxy-9H-fluoren-2-yl)ethanone
@<TRIPOS>ATOM
      1 C1          9.7252    5.4444    0.8484 C.3       1 <0>        -0.1924
      2 C2          8.6604    4.9447    1.7906 C.2       1 <0>         0.3951
      3 O1          8.8313    5.0120    2.9894 O.2       1 <0>        -0.4559
      4 C3          7.4152    4.3759    1.2567 C.ar      1 <0>        -0.1693
      5 C4          7.2146    4.2972   -0.1271 C.ar      1 <0>        -0.0704
      6 C5          6.0574    3.7695   -0.6217 C.ar      1 <0>        -0.1101
      7 C6          5.0667    3.3043    0.2506 C.ar      1 <0>        -0.0197
      8 C7          5.2688    3.3837    1.6287 C.ar      1 <0>        -0.1046
      9 C8          6.4237    3.9107    2.1297 C.ar      1 <0>        -0.0398
     10 C9          4.0442    2.8122    2.3011 C.3       1 <0>        -0.0448
     11 C10         3.1146    2.3946    1.1881 C.ar      1 <0>        -0.0659
     12 C11         3.7422    2.6960   -0.0191 C.ar      1 <0>        -0.0793
     13 C12         3.0917    2.4075   -1.2224 C.ar      1 <0>        -0.0705
     14 C13         1.8414    1.8297   -1.2087 C.ar      1 <0>        -0.1468
     15 C14         1.2222    1.5321   -0.0014 C.ar      1 <0>         0.1210
     16 C15         1.8619    1.8221    1.1970 C.ar      1 <0>        -0.1299
     17 O2         -0.0110    0.9628    0.0073 O.3       1 <0>        -0.4959
     18 H1          9.5661    6.4111    0.6482 H         1 <0>         0.0889
     19 H2         10.7048    5.3256    1.3114 H         1 <0>         0.0899
     20 H3          9.6891    4.8708   -0.0777 H         1 <0>         0.0871
     21 H4          7.9767    4.6548   -0.8037 H         1 <0>         0.1388
     22 H5          5.9058    3.7102   -1.6894 H         1 <0>         0.1311
     23 H6          6.5728    3.9692    3.1978 H         1 <0>         0.1369
     24 H7          4.3173    1.9478    2.9063 H         1 <0>         0.1059
     25 H8          3.5686    3.5710    2.9225 H         1 <0>         0.1061
     26 H9          3.5698    2.6374   -2.1631 H         1 <0>         0.1304
     27 H10         1.3407    1.6077   -2.1395 H         1 <0>         0.1355
     28 H11         1.3788    1.5945    2.1358 H         1 <0>         0.1342
     29 H12         0.0021   -0.0041    0.0020 H         1 <0>         0.3947
@<TRIPOS>BOND
     1    1    2 1
     2    1   18 1
     3    1   19 1
     4    1   20 1
     5    2    3 2
     6    2    4 1
     7    4    9 ar
     8    4    5 ar
     9    5    6 ar
    10    5   21 1
    11    6    7 ar
    12    6   22 1
    13    7   12 1
    14    7    8 ar
    15    8    9 ar
    16    8   10 1
    17    9   23 1
    18   10   11 1
    19   10   24 1
    20   10   25 1
    21   11   16 ar
    22   11   12 ar
    23   12   13 ar
    24   13   14 ar
    25   13   26 1
    26   14   15 ar
    27   14   27 1
    28   15   16 ar
    29   15   17 1
    30   16   28 1
    31   17   29 1
@<TRIPOS>MOLECULE
ZINC29123659
   28    29     0     0     0
SMALL
USER_CHARGES
1-[4-(4-hydroxyphenyl)phenyl]ethanone
@<TRIPOS>ATOM
      1 C1          1.2803    1.9799    0.0005 C.3       1 <0>        -0.2059
      2 C2         -0.0144    1.2087    0.0087 C.2       1 <0>         0.3943
      3 O1          0.0021   -0.0041    0.0020 O.2       1 <0>        -0.4602
      4 C3         -1.2967    1.9260    0.0187 C.ar      1 <0>        -0.1806
      5 C4         -1.3169    3.3261    0.0322 C.ar      1 <0>        -0.0663
      6 C5         -2.5101    3.9908    0.0351 C.ar      1 <0>        -0.1327
      7 C6         -3.7090    3.2753    0.0369 C.ar      1 <0>         0.0031
      8 C7         -3.6913    1.8793    0.0297 C.ar      1 <0>        -0.1312
      9 C8         -2.5005    1.2104    0.0205 C.ar      1 <0>        -0.0529
     10 C9         -5.0019    3.9986    0.0469 C.ar      1 <0>        -0.1055
     11 C10        -6.2014    3.2863    0.0433 C.ar      1 <0>        -0.0593
     12 C11        -7.4026    3.9623    0.0571 C.ar      1 <0>        -0.1626
     13 C12        -7.4197    5.3510    0.0647 C.ar      1 <0>         0.1674
     14 C13        -6.2273    6.0633    0.0629 C.ar      1 <0>        -0.2152
     15 C14        -5.0226    5.3934    0.0541 C.ar      1 <0>        -0.0604
     16 O2         -8.6051    6.0141    0.0734 O.3       1 <0>        -0.5080
     17 H1          1.0646    3.0585    0.0084 H         1 <0>         0.0843
     18 H2          1.8521    1.7269   -0.9045 H         1 <0>         0.0965
     19 H3          1.8692    1.7172    0.8917 H         1 <0>         0.0963
     20 H4         -0.3897    3.8800    0.0353 H         1 <0>         0.1368
     21 H5         -2.5262    5.0707    0.0406 H         1 <0>         0.1314
     22 H6         -4.6199    1.3279    0.0311 H         1 <0>         0.1318
     23 H7         -2.4872    0.1305    0.0149 H         1 <0>         0.1352
     24 H8         -6.1888    2.2064    0.0337 H         1 <0>         0.1338
     25 H9         -8.3316    3.4114    0.0581 H         1 <0>         0.1328
     26 H10        -6.2441    7.1431    0.0688 H         1 <0>         0.1308
     27 H11        -4.0958    5.9479    0.0523 H         1 <0>         0.1296
     28 H12        -8.6200    7.1140    0.0794 H         1 <0>         0.4366
@<TRIPOS>BOND
     1    1    2 1
     2    1   17 1
     3    1   18 1
     4    1   19 1
     5    2    3 2
     6    2    4 1
     7    4    9 ar
     8    4    5 ar
     9    5    6 ar
    10    5   20 1
    11    6    7 ar
    12    6   21 1
    13    7    8 ar
    14    7   10 1
    15    8    9 ar
    16    8   22 1
    17    9   23 1
    18   10   15 ar
    19   10   11 ar
    20   11   12 ar
    21   11   24 1
    22   12   13 ar
    23   12   25 1
    24   13   14 ar
    25   13   16 1
    26   14   15 ar
    27   14   26 1
    28   15   27 1
    29   16   28 1
@<TRIPOS>MOLECULE
ZINC05934541
   28    30     0     0     0
SMALL
USER_CHARGES

@<TRIPOS>ATOM
      1 C1         -0.0167    1.3795    0.0096 C.ar      1 <0>        -0.0923
      2 C2          1.1683    2.0940    0.0021 C.ar      1 <0>        -0.1232
      3 C3          2.3774    1.4304   -0.0129 C.ar      1 <0>        -0.0789
      4 C4          2.4038    0.0341   -0.0206 C.ar      1 <0>        -0.0759
      5 C5          1.2040   -0.6806   -0.0130 C.ar      1 <0>        -0.0795
      6 C6          0.0021   -0.0041    0.0020 C.ar      1 <0>        -0.1209
      7 C7          3.6945   -0.6833   -0.0372 C.2       1 <0>         0.2119
      8 C8          3.6864   -2.0428   -0.0500 C.2       1 <0>        -0.3154
      9 C9          4.9135   -2.7479   -0.0665 C.2       1 <0>         0.4230
     10 O1          4.9439   -3.9675   -0.0787 O.2       1 <0>        -0.4683
     11 C10         6.1539   -1.9500   -0.0690 C.ar      1 <0>        -0.2334
     12 C11         7.4083   -2.5603   -0.0853 C.ar      1 <0>        -0.0124
     13 C12         8.5367   -1.7906   -0.0876 C.ar      1 <0>        -0.1723
     14 C13         8.4412   -0.4007   -0.0732 C.ar      1 <0>         0.1743
     15 C14         7.2031    0.2197   -0.0569 C.ar      1 <0>        -0.1715
     16 C15         6.0480   -0.5488   -0.0549 C.ar      1 <0>         0.1661
     17 O2          4.8301    0.0320   -0.0447 O.3       1 <0>        -0.2194
     18 O3          9.5711    0.3517   -0.0747 O.3       1 <0>        -0.4905
     19 H1         -0.9606    1.9042    0.0260 H         1 <0>         0.1309
     20 H2          1.1464    3.1738    0.0078 H         1 <0>         0.1326
     21 H3          3.3015    1.9893   -0.0191 H         1 <0>         0.1348
     22 H4          1.2172   -1.7605   -0.0192 H         1 <0>         0.1363
     23 H5         -0.9265   -0.5555    0.0079 H         1 <0>         0.1348
     24 H6          2.7500   -2.5809   -0.0472 H         1 <0>         0.1633
     25 H7          7.4870   -3.6374   -0.0958 H         1 <0>         0.1487
     26 H8          9.5083   -2.2620   -0.1003 H         1 <0>         0.1440
     27 H9          7.1371    1.2976   -0.0454 H         1 <0>         0.1509
     28 H10         9.8916    0.5784   -0.9585 H         1 <0>         0.4023
@<TRIPOS>BOND
     1    1    6 ar
     2    1    2 ar
     3    1   19 1
     4    2    3 ar
     5    2   20 1
     6    3    4 ar
     7    3   21 1
     8    4    5 ar
     9    4    7 1
    10    5    6 ar
    11    5   22 1
    12    6   23 1
    13    7   17 1
    14    7    8 2
    15    8    9 1
    16    8   24 1
    17    9   10 2
    18    9   11 1
    19   11   16 ar
    20   11   12 ar
    21   12   13 ar
    22   12   25 1
    23   13   14 ar
    24   13   26 1
    25   14   15 ar
    26   14   18 1
    27   15   16 ar
    28   15   27 1
    29   16   17 1
    30   18   28 1
@<TRIPOS>MOLECULE
ZINC05934541
   27    29     0     0     0
SMALL
USER_CHARGES

@<TRIPOS>ATOM
      1 C1         -0.0167    1.3797    0.0096 C.ar      1 <0>        -0.1062
      2 C2          1.1682    2.0946    0.0022 C.ar      1 <0>        -0.1241
      3 C3          2.3774    1.4316   -0.0130 C.ar      1 <0>        -0.0838
      4 C4          2.4042    0.0345   -0.0208 C.ar      1 <0>        -0.0541
      5 C5          1.2037   -0.6807   -0.0131 C.ar      1 <0>        -0.0863
      6 C6          0.0021   -0.0041    0.0020 C.ar      1 <0>        -0.1233
      7 C7          3.6937   -0.6820   -0.0374 C.2       1 <0>         0.1780
      8 C8          3.6984   -2.0609   -0.0505 C.2       1 <0>        -0.2742
      9 C9          4.9130   -2.7505   -0.0664 C.2       1 <0>         0.3657
     10 C10         6.1125   -1.9994   -0.0685 C.2       1 <0>        -0.3233
     11 C11         7.3627   -2.6405   -0.0848 C.2       1 <0>         0.0150
     12 C12         8.5035   -1.9030   -0.0870 C.2       1 <0>        -0.2685
     13 C13         8.4409   -0.4969   -0.0730 C.2       1 <0>         0.3395
     14 O1          9.5670    0.2177   -0.0758 O.2       1 <0>        -0.6664
     15 C14         7.2041    0.1540   -0.0569 C.2       1 <0>        -0.3089
     16 C15         6.0387   -0.5887   -0.0545 C.2       1 <0>         0.1953
     17 O2          4.8359    0.0230   -0.0450 O.3       1 <0>        -0.2202
     18 O3          4.9420   -4.1010   -0.0790 O.3       1 <0>        -0.6063
     19 H1         -0.9606    1.9042    0.0260 H         1 <0>         0.1250
     20 H2          1.1460    3.1744    0.0078 H         1 <0>         0.1282
     21 H3          3.3014    1.9908   -0.0192 H         1 <0>         0.1358
     22 H4          1.2169   -1.7606   -0.0194 H         1 <0>         0.1353
     23 H5         -0.9266   -0.5554    0.0083 H         1 <0>         0.1294
     24 H6          2.7660   -2.6059   -0.0482 H         1 <0>         0.1462
     25 H7          7.4166   -3.7191   -0.0951 H         1 <0>         0.1211
     26 H8          9.4633   -2.3980   -0.0991 H         1 <0>         0.1128
     27 H9          7.1594    1.2330   -0.0459 H         1 <0>         0.1184
@<TRIPOS>BOND
     1    1    6 ar
     2    1    2 ar
     3    1   19 1
     4    2    3 ar
     5    2   20 1
     6    3    4 ar
     7    3   21 1
     8    4    5 ar
     9    4    7 1
    10    5    6 ar
    11    5   22 1
    12    6   23 1
    13    7   17 1
    14    7    8 2
    15    8    9 1
    16    8   24 1
    17    9   10 2
    18    9   18 1
    19   10   16 1
    20   10   11 1
    21   11   12 2
    22   11   25 1
    23   12   13 1
    24   12   26 1
    25   13   14 2
    26   13   15 1
    27   15   16 2
    28   15   27 1
    29   16   17 1
@<TRIPOS>MOLECULE
ZINC03871576
   30    32     0     0     0
SMALL
USER_CHARGES

@<TRIPOS>ATOM
      1 C1         -0.0169    1.3935    0.0097 C.ar      1 <0>        -0.0604
      2 C2          1.1676    2.0963    0.0022 C.ar      1 <0>        -0.1497
      3 C3          2.3803    1.4179   -0.0135 C.ar      1 <0>         0.1360
      4 C4          2.4038    0.0284   -0.0212 C.ar      1 <0>        -0.1474
      5 C5          1.2241   -0.6823   -0.0133 C.ar      1 <0>        -0.0612
      6 C6          0.0021   -0.0041    0.0020 C.ar      1 <0>        -0.0853
      7 C7         -1.2639   -0.7610    0.0105 C.2       1 <0>         0.2092
      8 C8         -1.2134   -2.1203    0.0083 C.2       1 <0>        -0.3116
      9 C9         -2.4177   -2.8631    0.0169 C.2       1 <0>         0.4226
     10 O1         -2.4099   -4.0836    0.0156 O.2       1 <0>        -0.4538
     11 C10        -3.6809   -2.1061    0.0279 C.ar      1 <0>        -0.2659
     12 C11        -4.9199   -2.7591    0.0374 C.ar      1 <0>         0.2192
     13 C12        -6.0832   -2.0121    0.0480 C.ar      1 <0>        -0.2049
     14 C13        -6.0212   -0.6227    0.0493 C.ar      1 <0>         0.1922
     15 C14        -4.7984    0.0300    0.0400 C.ar      1 <0>        -0.1830
     16 C15        -3.6212   -0.7020    0.0293 C.ar      1 <0>         0.1830
     17 O2         -2.4220   -0.0821    0.0257 O.3       1 <0>        -0.2182
     18 O3         -7.1695    0.1013    0.0593 O.3       1 <0>        -0.4872
     19 O4         -4.9782   -4.1150    0.0356 O.3       1 <0>        -0.4722
     20 O5          3.5455    2.1145   -0.0218 O.3       1 <0>        -0.4965
     21 H1         -0.9589    1.9215    0.0260 H         1 <0>         0.1404
     22 H2          1.1538    3.1762    0.0081 H         1 <0>         0.1393
     23 H3          3.3485   -0.4949   -0.0338 H         1 <0>         0.1414
     24 H4          1.2432   -1.7622   -0.0196 H         1 <0>         0.1415
     25 H5         -0.2608   -2.6290   -0.0002 H         1 <0>         0.1637
     26 H6         -7.0423   -2.5086    0.0550 H         1 <0>         0.1502
     27 H7         -4.7627    1.1094    0.0411 H         1 <0>         0.1534
     28 H8         -7.4952    0.3100    0.9456 H         1 <0>         0.4037
     29 H9         -4.9875   -4.5094    0.9185 H         1 <0>         0.4031
     30 H10         3.8920    2.3119    0.8591 H         1 <0>         0.3984
@<TRIPOS>BOND
     1    1    6 ar
     2    1    2 ar
     3    1   21 1
     4    2    3 ar
     5    2   22 1
     6    3    4 ar
     7    3   20 1
     8    4    5 ar
     9    4   23 1
    10    5    6 ar
    11    5   24 1
    12    6    7 1
    13    7   17 1
    14    7    8 2
    15    8    9 1
    16    8   25 1
    17    9   10 2
    18    9   11 1
    19   11   16 ar
    20   11   12 ar
    21   12   13 ar
    22   12   19 1
    23   13   14 ar
    24   13   26 1
    25   14   15 ar
    26   14   18 1
    27   15   16 ar
    28   15   27 1
    29   16   17 1
    30   18   28 1
    31   19   29 1
    32   20   30 1
@<TRIPOS>MOLECULE
ZINC03871576
   29    31     0     0     0
SMALL
USER_CHARGES

@<TRIPOS>ATOM
      1 C1         -0.0169    1.3945    0.0097 C.ar      1 <0>        -0.0666
      2 C2          1.1672    2.0969    0.0022 C.ar      1 <0>        -0.1480
      3 C3          2.3804    1.4183   -0.0135 C.ar      1 <0>         0.1175
      4 C4          2.4042    0.0284   -0.0212 C.ar      1 <0>        -0.1471
      5 C5          1.2251   -0.6825   -0.0138 C.ar      1 <0>        -0.0696
      6 C6          0.0021   -0.0041    0.0020 C.ar      1 <0>        -0.0607
      7 C7         -1.2623   -0.7603    0.0105 C.2       1 <0>         0.1733
      8 C8         -1.2238   -2.1392    0.0085 C.2       1 <0>        -0.2675
      9 C9         -2.4161   -2.8666    0.0170 C.2       1 <0>         0.3649
     10 C10        -3.6370   -2.1554    0.0275 C.2       1 <0>        -0.3407
     11 C11        -4.8707   -2.8387    0.0369 C.2       1 <0>         0.2653
     12 C12        -6.0384   -2.1317    0.0475 C.2       1 <0>        -0.3780
     13 C13        -6.0158   -0.7277    0.0485 C.2       1 <0>         0.3615
     14 O1         -7.1627   -0.0461    0.0589 O.2       1 <0>        -0.6669
     15 C14        -4.7977   -0.0391    0.0393 C.2       1 <0>        -0.3147
     16 C15        -3.6098   -0.7430    0.0291 C.2       1 <0>         0.2111
     17 O2         -2.4272   -0.0920    0.0257 O.3       1 <0>        -0.2196
     18 O3         -4.8969   -4.1953    0.0351 O.3       1 <0>        -0.4477
     19 O4         -2.4024   -4.2178    0.0147 O.3       1 <0>        -0.5784
     20 O5          3.5452    2.1149   -0.0218 O.3       1 <0>        -0.4988
     21 H1         -0.9589    1.9225    0.0260 H         1 <0>         0.1416
     22 H2          1.1536    3.1768    0.0081 H         1 <0>         0.1349
     23 H3          3.3490   -0.4946   -0.0334 H         1 <0>         0.1360
     24 H4          1.2446   -1.7623   -0.0201 H         1 <0>         0.1407
     25 H5         -0.2747   -2.6546   -0.0001 H         1 <0>         0.1464
     26 H6         -6.9835   -2.6543    0.0547 H         1 <0>         0.1160
     27 H7         -4.7867    1.0408    0.0398 H         1 <0>         0.1203
     28 H8         -5.7877   -4.5715    0.0420 H         1 <0>         0.3828
     29 H9          3.8917    2.3124    0.8591 H         1 <0>         0.3921
@<TRIPOS>BOND
     1    1    6 ar
     2    1    2 ar
     3    1   21 1
     4    2    3 ar
     5    2   22 1
     6    3    4 ar
     7    3   20 1
     8    4    5 ar
     9    4   23 1
    10    5    6 ar
    11    5   24 1
    12    6    7 1
    13    7   17 1
    14    7    8 2
    15    8    9 1
    16    8   25 1
    17    9   10 2
    18    9   19 1
    19   10   16 1
    20   10   11 1
    21   11   12 2
    22   11   18 1
    23   12   13 1
    24   12   26 1
    25   13   14 2
    26   13   15 1
    27   15   16 2
    28   15   27 1
    29   16   17 1
    30   18   28 1
    31   20   29 1
@<TRIPOS>MOLECULE
ZINC03960657
   59    64     0     0     0
SMALL
USER_CHARGES
3-[4-[3-(4-fluorophenyl)-1,2,4-oxadiazol-5-yl]-1-bicyclo[2.2.2]octyl]-4-methyl-5-[2-(trifluoromethyl)phenyl]-1,2,4-triazole
@<TRIPOS>ATOM
      1 C1         -1.2486   -2.8843   -0.5822 C.3       1 <0>         0.0506
      2 N1          0.1641   -3.1168   -0.2715 N.pl3     1 <0>        -0.4641
      3 C2          1.0963   -2.1799    0.0839 C.2       1 <0>         0.1910
      4 N2          2.2287   -2.8189    0.2768 N.2       1 <0>        -0.2545
      5 N3          2.0601   -4.0749    0.0612 N.2       1 <0>        -0.2732
      6 C3          0.8208   -4.3086   -0.2789 C.2       1 <0>         0.2007
      7 C4          0.2259   -5.6525   -0.6121 C.3       1 <0>         0.0306
      8 C5         -0.6802   -6.1074    0.5337 C.3       1 <0>        -0.1053
      9 C6         -1.2842   -7.4718    0.1954 C.3       1 <0>        -0.1013
     10 C7         -0.7807   -7.9266   -1.1759 C.3       1 <0>         0.0401
     11 C8          0.7450   -8.0370   -1.1482 C.3       1 <0>        -0.1156
     12 C9          1.3490   -6.6726   -0.8099 C.3       1 <0>        -0.0939
     13 C10        -1.1990   -6.9065   -2.2368 C.3       1 <0>        -0.1007
     14 C11        -0.5950   -5.5421   -1.8985 C.3       1 <0>        -0.1160
     15 C12        -1.3757   -9.2705   -1.5091 C.2       1 <0>         0.1977
     16 N4         -2.6502   -9.5513   -1.6191 N.2       1 <0>        -0.4693
     17 C13        -2.7070  -10.8669   -1.9268 C.2       1 <0>         0.2137
     18 N5         -1.4755  -11.3032   -1.9851 N.2       1 <0>        -0.3734
     19 O1         -0.7015  -10.3985   -1.7537 O.3       1 <0>         0.0891
     20 C14        -3.9364  -11.6656   -2.1560 C.ar      1 <0>        -0.0362
     21 C15        -5.1894  -11.0643   -2.0547 C.ar      1 <0>        -0.0450
     22 C16        -6.3296  -11.8094   -2.2737 C.ar      1 <0>        -0.1562
     23 C17        -6.2305  -13.1563   -2.5837 C.ar      1 <0>         0.1209
     24 C18        -4.9868  -13.7595   -2.6798 C.ar      1 <0>        -0.1547
     25 C19        -3.8413  -13.0206   -2.4675 C.ar      1 <0>        -0.0533
     26 F1         -7.3498  -13.8835   -2.7924 F         1 <0>        -0.1324
     27 C20         0.8708   -0.7250    0.2296 C.ar      1 <0>         0.0366
     28 C21        -0.3435   -0.1614   -0.1639 C.ar      1 <0>        -0.1268
     29 C22        -0.5474    1.1960   -0.0259 C.ar      1 <0>        -0.0828
     30 C23         0.4491    1.9981    0.5015 C.ar      1 <0>        -0.1080
     31 C24         1.6550    1.4455    0.8935 C.ar      1 <0>        -0.0678
     32 C25         1.8714    0.0891    0.7606 C.ar      1 <0>        -0.1485
     33 C26         3.1857   -0.5114    1.1887 C.3       1 <0>         0.5144
     34 F2          4.0195    0.4966    1.6844 F         1 <0>        -0.1834
     35 F3          2.9597   -1.4634    2.1886 F         1 <0>        -0.1667
     36 F4          3.7978   -1.1249    0.0904 F         1 <0>        -0.1568
     37 H1         -1.3438   -2.5573   -1.6176 H         1 <0>         0.0914
     38 H2         -1.8087   -3.8084   -0.4401 H         1 <0>         0.1044
     39 H3         -1.6442   -2.1141    0.0799 H         1 <0>         0.1000
     40 H4         -0.0954   -6.1861    1.4501 H         1 <0>         0.0808
     41 H5         -1.4803   -5.3807    0.6746 H         1 <0>         0.0695
     42 H6         -2.3712   -7.3931    0.1756 H         1 <0>         0.0835
     43 H7         -0.9862   -8.1985    0.9512 H         1 <0>         0.0772
     44 H8          1.1037   -8.3610   -2.1251 H         1 <0>         0.0808
     45 H9          1.0430   -8.7637   -0.3924 H         1 <0>         0.0818
     46 H10         1.9946   -6.3485   -1.6262 H         1 <0>         0.0797
     47 H11         1.9339   -6.7513    0.1066 H         1 <0>         0.0864
     48 H12        -0.8403   -7.2305   -3.2138 H         1 <0>         0.0765
     49 H13        -2.2860   -6.8278   -2.2566 H         1 <0>         0.0838
     50 H14        -1.3951   -4.8154   -1.7576 H         1 <0>         0.0749
     51 H15         0.0505   -5.2180   -2.7148 H         1 <0>         0.0783
     52 H16        -5.2676  -10.0156   -1.8087 H         1 <0>         0.1461
     53 H17        -7.3010  -11.3432   -2.1995 H         1 <0>         0.1454
     54 H18        -4.9140  -14.8097   -2.9209 H         1 <0>         0.1454
     55 H19        -2.8723  -13.4916   -2.5422 H         1 <0>         0.1417
     56 H20        -1.1221   -0.7865   -0.5754 H         1 <0>         0.1427
     57 H21        -1.4851    1.6341   -0.3343 H         1 <0>         0.1406
     58 H22         0.2846    3.0602    0.6076 H         1 <0>         0.1417
     59 H23         2.4289    2.0769    1.3045 H         1 <0>         0.1477
@<TRIPOS>BOND
     1    1    2 1
     2    1   37 1
     3    1   38 1
     4    1   39 1
     5    2    6 1
     6    2    3 1
     7    3    4 2
     8    3   27 1
     9    4    5 1
    10    5    6 2
    11    6    7 1
    12    7   12 1
    13    7   14 1
    14    7    8 1
    15    8    9 1
    16    8   40 1
    17    8   41 1
    18    9   10 1
    19    9   42 1
    20    9   43 1
    21   10   11 1
    22   10   13 1
    23   10   15 1
    24   11   12 1
    25   11   44 1
    26   11   45 1
    27   12   46 1
    28   12   47 1
    29   13   14 1
    30   13   48 1
    31   13   49 1
    32   14   50 1
    33   14   51 1
    34   15   19 1
    35   15   16 2
    36   16   17 1
    37   17   18 2
    38   17   20 1
    39   18   19 1
    40   20   25 ar
    41   20   21 ar
    42   21   22 ar
    43   21   52 1
    44   22   23 ar
    45   22   53 1
    46   23   24 ar
    47   23   26 1
    48   24   25 ar
    49   24   54 1
    50   25   55 1
    51   27   32 ar
    52   27   28 ar
    53   28   29 ar
    54   28   56 1
    55   29   30 ar
    56   29   57 1
    57   30   31 ar
    58   30   58 1
    59   31   32 ar
    60   31   59 1
    61   32   33 1
    62   33   34 1
    63   33   35 1
    64   33   36 1
@<TRIPOS>MOLECULE
ZINC04096682
   46    49     0     0     0
SMALL
USER_CHARGES
3-hydroxy-2-methoxy-13-methyl-7,8,9,11,12,14,15,16-octahydro-6H-cyclopenta[a]phenanthren-17-one
@<TRIPOS>ATOM
      1 C1         -4.4775   -0.2313    1.5516 C.3       1 <0>        -0.1453
      2 C2         -4.4298    1.1637    2.1783 C.3       1 <0>        -0.1254
      3 C3         -5.0461    2.1554    1.2152 C.3       1 <0>        -0.0972
      4 C4         -4.3037    2.0246   -0.1285 C.3       1 <0>        -0.1138
      5 C5         -2.8108    2.2535    0.0586 C.3       1 <0>        -0.0451
      6 H1         -2.6807    3.2736    0.4201 H         1 <0>         0.0802
      7 C6         -2.0597    2.1212   -1.2349 C.ar      1 <0>        -0.0367
      8 C7         -2.6841    2.5400   -2.4021 C.ar      1 <0>        -0.1964
      9 C8         -2.0334    2.4513   -3.6187 C.ar      1 <0>         0.1020
     10 C9         -0.7412    1.9365   -3.6703 C.ar      1 <0>         0.0746
     11 C10        -0.1250    1.5169   -2.5067 C.ar      1 <0>        -0.1085
     12 C11        -0.7820    1.6045   -1.2849 C.ar      1 <0>        -0.0954
     13 C12        -0.0477    1.1188   -0.0627 C.3       1 <0>        -0.0762
     14 C13        -0.7279    1.5970    1.2194 C.3       1 <0>        -0.1136
     15 C14        -2.2224    1.3010    1.1075 C.3       1 <0>        -0.0744
     16 H2         -2.3736    0.2673    0.7969 H         1 <0>         0.0888
     17 C15        -2.9479    1.5709    2.4102 C.3       1 <0>        -0.0770
     18 H3         -2.8601    2.6202    2.6918 H         1 <0>         0.0861
     19 C16        -2.5731    0.6573    3.5844 C.3       1 <0>        -0.1139
     20 C17        -3.8428    0.7171    4.4771 C.3       1 <0>        -0.1756
     21 C18        -5.0009    1.1049    3.5630 C.2       1 <0>         0.3812
     22 O1         -6.1437    1.3207    3.8884 O.2       1 <0>        -0.4374
     23 O2         -0.0881    1.8473   -4.8599 O.3       1 <0>        -0.4870
     24 O3         -2.6516    2.8646   -4.7573 O.3       1 <0>        -0.3079
     25 C19        -3.9771    3.3817   -4.6248 C.3       1 <0>         0.0247
     26 H4         -3.9408   -0.9343    2.1885 H         1 <0>         0.0637
     27 H5         -5.5152   -0.5498    1.4526 H         1 <0>         0.0597
     28 H6         -4.0105   -0.2034    0.5671 H         1 <0>         0.0815
     29 H7         -6.1032    1.9285    1.0771 H         1 <0>         0.0729
     30 H8         -4.9322    3.1675    1.6035 H         1 <0>         0.0677
     31 H9         -4.6953    2.7626   -0.8285 H         1 <0>         0.0668
     32 H10        -4.4660    1.0255   -0.5328 H         1 <0>         0.0723
     33 H11        -3.6868    2.9390   -2.3593 H         1 <0>         0.1338
     34 H12         0.8774    1.1170   -2.5470 H         1 <0>         0.1345
     35 H13        -0.0252    0.0290   -0.0696 H         1 <0>         0.0762
     36 H14         0.9744    1.4968   -0.0867 H         1 <0>         0.0753
     37 H15        -0.3124    1.0664    2.0761 H         1 <0>         0.0735
     38 H16        -0.5733    2.6692    1.3398 H         1 <0>         0.0668
     39 H17        -2.3901   -0.3605    3.2396 H         1 <0>         0.0792
     40 H18        -1.7064    1.0481    4.1175 H         1 <0>         0.0793
     41 H19        -3.9979   -0.1774    4.8964 H         1 <0>         0.0894
     42 H20        -3.7152    1.4670    5.2578 H         1 <0>         0.0973
     43 H21         0.4288    2.6330   -5.0846 H         1 <0>         0.3865
     44 H22        -4.3527    3.6742   -5.6054 H         1 <0>         0.1020
     45 H23        -4.6257    2.6148   -4.2013 H         1 <0>         0.0558
     46 H24        -3.9641    4.2506   -3.9668 H         1 <0>         0.0551
@<TRIPOS>BOND
     1    1    2 1
     2    1   26 1
     3    1   27 1
     4    1   28 1
     5    2   17 1
     6    2   21 1
     7    2    3 1
     8    3    4 1
     9    3   29 1
    10    3   30 1
    11    4    5 1
    12    4   31 1
    13    4   32 1
    14    5    6 1
    15    5   15 1
    16    5    7 1
    17    7   12 ar
    18    7    8 ar
    19    8    9 ar
    20    8   33 1
    21    9   10 ar
    22    9   24 1
    23   10   11 ar
    24   10   23 1
    25   11   12 ar
    26   11   34 1
    27   12   13 1
    28   13   14 1
    29   13   35 1
    30   13   36 1
    31   14   15 1
    32   14   37 1
    33   14   38 1
    34   15   16 1
    35   15   17 1
    36   17   18 1
    37   17   19 1
    38   19   20 1
    39   19   39 1
    40   19   40 1
    41   20   21 1
    42   20   41 1
    43   20   42 1
    44   21   22 2
    45   23   43 1
    46   24   25 1
    47   25   44 1
    48   25   45 1
    49   25   46 1
@<TRIPOS>MOLECULE
ZINC18825330
   30    32     0     0     0
SMALL
USER_CHARGES

@<TRIPOS>ATOM
      1 C1         -0.0168    1.3897    0.0097 C.ar      1 <0>        -0.0898
      2 C2          1.1691    2.0941    0.0021 C.ar      1 <0>        -0.1444
      3 C3          2.3804    1.4165   -0.0135 C.ar      1 <0>         0.1118
      4 C4          2.4026    0.0286   -0.0217 C.ar      1 <0>        -0.1437
      5 C5          1.2201   -0.6816   -0.0137 C.ar      1 <0>        -0.0707
      6 C6          0.0021   -0.0041    0.0020 C.ar      1 <0>        -0.0391
      7 C7         -1.2713   -0.7647    0.0106 C.2       1 <0>        -0.2383
      8 C8         -2.1308   -0.6985   -1.0391 C.2       1 <0>         0.1275
      9 O1         -3.2790   -1.3788   -1.0759 O.3       1 <0>        -0.2144
     10 C9         -3.8133   -1.9283    0.0323 C.ar      1 <0>         0.1753
     11 C10        -5.1371   -2.3448    0.0457 C.ar      1 <0>        -0.1819
     12 C11        -5.6741   -2.9171    1.1876 C.ar      1 <0>         0.1915
     13 C12        -4.9001   -3.0841    2.3313 C.ar      1 <0>        -0.2030
     14 C13        -3.5799   -2.6737    2.3405 C.ar      1 <0>         0.2179
     15 C14        -3.0336   -2.0875    1.1922 C.ar      1 <0>        -0.2616
     16 C15        -1.6367   -1.6192    1.1574 C.2       1 <0>         0.4330
     17 O2         -0.8325   -1.9156    2.0245 O.2       1 <0>        -0.4372
     18 O3         -2.8202   -2.8370    3.4529 O.3       1 <0>        -0.4757
     19 O4         -6.9707   -3.3190    1.1905 O.3       1 <0>        -0.4879
     20 O5          3.5472    2.1134   -0.0214 O.3       1 <0>        -0.4999
     21 H1         -0.9590    1.9174    0.0260 H         1 <0>         0.1287
     22 H2          1.1551    3.1740    0.0081 H         1 <0>         0.1326
     23 H3          3.3466   -0.4958   -0.0346 H         1 <0>         0.1325
     24 H4          1.2380   -1.7614   -0.0204 H         1 <0>         0.1278
     25 H5         -1.8749   -0.0692   -1.8787 H         1 <0>         0.2021
     26 H6         -5.7497   -2.2223   -0.8352 H         1 <0>         0.1539
     27 H7         -5.3310   -3.5346    3.2132 H         1 <0>         0.1504
     28 H8         -2.3502   -3.6814    3.4877 H         1 <0>         0.4050
     29 H9         -7.0993   -4.2345    0.9070 H         1 <0>         0.4041
     30 H10         3.8936    2.3103    0.8597 H         1 <0>         0.3934
@<TRIPOS>BOND
     1    1    6 ar
     2    1    2 ar
     3    1   21 1
     4    2    3 ar
     5    2   22 1
     6    3    4 ar
     7    3   20 1
     8    4    5 ar
     9    4   23 1
    10    5    6 ar
    11    5   24 1
    12    6    7 1
    13    7   16 1
    14    7    8 2
    15    8    9 1
    16    8   25 1
    17    9   10 1
    18   10   15 ar
    19   10   11 ar
    20   11   12 ar
    21   11   26 1
    22   12   13 ar
    23   12   19 1
    24   13   14 ar
    25   13   27 1
    26   14   15 ar
    27   14   18 1
    28   15   16 1
    29   16   17 2
    30   18   28 1
    31   19   29 1
    32   20   30 1
@<TRIPOS>MOLECULE
ZINC01703222
   30    32     0     0     0
SMALL
USER_CHARGES
3-[6-(3-hydroxyphenyl)-1,2,4,5-tetrazin-3-yl]phenol
@<TRIPOS>ATOM
      1 C1         -1.2203    1.7485    0.0174 C.ar      1 <0>        -0.1086
      2 C2         -1.2460    3.1285    0.0308 C.ar      1 <0>        -0.0735
      3 C3         -0.0514    3.8478    0.0232 C.ar      1 <0>        -0.0394
      4 C4          1.1655    3.1690    0.0079 C.ar      1 <0>        -0.0926
      5 C5          1.1814    1.7841    0.0004 C.ar      1 <0>         0.1006
      6 C6         -0.0126    1.0758    0.0080 C.ar      1 <0>        -0.1119
      7 O1          2.3661    1.1183   -0.0150 O.3       1 <0>        -0.4937
      8 C7         -0.0759    5.3297    0.0309 C.ar      1 <0>         0.2235
      9 N1          1.0657    6.0143    0.0287 N.ar      1 <0>        -0.1840
     10 N2          1.0443    7.3041    0.0299 N.ar      1 <0>        -0.1839
     11 C8         -0.1193    7.9504    0.0444 C.ar      1 <0>         0.2235
     12 N3         -1.2609    7.2658    0.0522 N.ar      1 <0>        -0.1830
     13 N4         -1.2395    5.9760    0.0455 N.ar      1 <0>        -0.1830
     14 C9         -0.1439    9.4324    0.0516 C.ar      1 <0>        -0.0394
     15 C10        -1.3616   10.1116    0.0664 C.ar      1 <0>        -0.0735
     16 C11        -1.3815   11.4917    0.0735 C.ar      1 <0>        -0.1086
     17 C12        -0.1968   12.2041    0.0660 C.ar      1 <0>        -0.1119
     18 C13         1.0199   11.5359    0.0517 C.ar      1 <0>         0.1007
     19 C14         1.0500   10.1512    0.0494 C.ar      1 <0>        -0.0927
     20 O2          2.1820   12.2406    0.0453 O.3       1 <0>        -0.4937
     21 H1         -2.1462    1.1926    0.0184 H         1 <0>         0.1403
     22 H2         -2.1911    3.6510    0.0426 H         1 <0>         0.1434
     23 H3          2.0936    3.7212    0.0024 H         1 <0>         0.1460
     24 H4          0.0021   -0.0041    0.0020 H         1 <0>         0.1379
     25 H5          2.7004    0.9307   -0.9028 H         1 <0>         0.3950
     26 H6         -2.2889    9.5580    0.0727 H         1 <0>         0.1434
     27 H7         -2.3253   12.0166    0.0854 H         1 <0>         0.1403
     28 H8         -0.2179   13.2839    0.0716 H         1 <0>         0.1379
     29 H9          1.9959    9.6300    0.0421 H         1 <0>         0.1461
     30 H10         2.5261   12.4398    0.9268 H         1 <0>         0.3949
@<TRIPOS>BOND
     1    1    6 ar
     2    1    2 ar
     3    1   21 1
     4    2    3 ar
     5    2   22 1
     6    3    4 ar
     7    3    8 1
     8    4    5 ar
     9    4   23 1
    10    5    6 ar
    11    5    7 1
    12    6   24 1
    13    7   25 1
    14    8   13 ar
    15    8    9 ar
    16    9   10 ar
    17   10   11 ar
    18   11   12 ar
    19   11   14 1
    20   12   13 ar
    21   14   19 ar
    22   14   15 ar
    23   15   16 ar
    24   15   26 1
    25   16   17 ar
    26   16   27 1
    27   17   18 ar
    28   17   28 1
    29   18   19 ar
    30   18   20 1
    31   19   29 1
    32   20   30 1
@<TRIPOS>MOLECULE
ZINC00695824
   49    50     0     0     0
SMALL
USER_CHARGES
2-[2,3-dibromo-6-ethoxy-4-(ureidoiminomethyl)phenoxy]-N-(p-tolyl)acetamide
@<TRIPOS>ATOM
      1 C1          5.9741   -4.9507   -0.1127 C.3       1 <0>        -0.1540
      2 C2          4.7470   -4.0373   -0.0879 C.3       1 <0>         0.0472
      3 O1          3.5605   -4.8337   -0.0742 O.3       1 <0>        -0.2929
      4 C3          2.3727   -4.1717   -0.0516 C.ar      1 <0>         0.1448
      5 C4          2.3521   -2.7894   -0.0485 C.ar      1 <0>        -0.1574
      6 C5          1.1306   -2.1117   -0.0208 C.ar      1 <0>         0.0241
      7 C6         -0.0655   -2.8349   -0.0065 C.ar      1 <0>        -0.0712
      8 C7         -0.0369   -4.2152   -0.0146 C.ar      1 <0>        -0.0545
      9 C8          1.1775   -4.8867   -0.0373 C.ar      1 <0>         0.1038
     10 O2          1.2005   -6.2461   -0.0461 O.3       1 <0>        -0.2807
     11 C9          1.1921   -6.8868   -1.3233 C.3       1 <0>         0.0464
     12 C10         1.2204   -8.3818   -1.1355 C.2       1 <0>         0.5185
     13 O3          1.2454   -8.8523   -0.0179 O.2       1 <0>        -0.4885
     14 N1          1.2180   -9.1961   -2.2095 N.am      1 <0>        -0.6714
     15 C11         1.3419  -10.5794   -2.0390 C.ar      1 <0>         0.1365
     16 C12         2.0335  -11.3367   -2.9753 C.ar      1 <0>        -0.1386
     17 C13         2.1589  -12.7011   -2.8011 C.ar      1 <0>        -0.1030
     18 C14         1.5865  -13.3147   -1.7020 C.ar      1 <0>        -0.0980
     19 C15         0.8928  -12.5642   -0.7706 C.ar      1 <0>        -0.1024
     20 C16         0.7687  -11.1986   -0.9361 C.ar      1 <0>        -0.1149
     21 C17         1.7196  -14.8046   -1.5186 C.3       1 <0>        -0.1151
     22 Br1        -1.6555   -5.1927    0.0047 Br        1 <0>         0.0092
     23 Br2        -1.7220   -1.9232    0.0231 Br        1 <0>         0.0153
     24 C18         1.1032   -0.6377   -0.0127 C.2       1 <0>         0.0905
     25 N2         -0.0322   -0.0100    0.0076 N.2       1 <0>        -0.2095
     26 N3         -0.0583    1.3907    0.0152 N.am      1 <0>        -0.5850
     27 C19        -1.2377    2.0427    0.0307 C.2       1 <0>         0.7364
     28 O4         -1.2603    3.2585    0.0374 O.2       1 <0>        -0.5783
     29 N4         -2.3922    1.3472    0.0389 N.am      1 <0>        -0.8494
     30 H1          6.8791   -4.3433   -0.1231 H         1 <0>         0.0833
     31 H2          5.9727   -5.5854    0.7735 H         1 <0>         0.0704
     32 H3          5.9448   -5.5744   -1.0062 H         1 <0>         0.0678
     33 H4          4.7484   -3.4027   -0.9741 H         1 <0>         0.0686
     34 H5          4.7762   -3.4137    0.8056 H         1 <0>         0.0699
     35 H6          3.2785   -2.2344   -0.0641 H         1 <0>         0.1569
     36 H7          0.2889   -6.6057   -1.8649 H         1 <0>         0.0906
     37 H8          2.0684   -6.5754   -1.8918 H         1 <0>         0.0937
     38 H9          1.1305   -8.8232   -3.1007 H         1 <0>         0.4118
     39 H10         2.4763  -10.8587   -3.8366 H         1 <0>         0.1258
     40 H11         2.7007  -13.2899   -3.5264 H         1 <0>         0.1266
     41 H12         0.4472  -13.0464    0.0869 H         1 <0>         0.1262
     42 H13         0.2267  -10.6130   -0.2083 H         1 <0>         0.1397
     43 H14         0.8837  -15.3067   -2.0058 H         1 <0>         0.0706
     44 H15         2.6556  -15.1432   -1.9628 H         1 <0>         0.0662
     45 H16         1.7156  -15.0415   -0.4547 H         1 <0>         0.0667
     46 H17         2.0283   -0.0804   -0.0238 H         1 <0>         0.1385
     47 H18         0.7725    1.8913    0.0053 H         1 <0>         0.4033
     48 H19        -2.3741    0.3774    0.0336 H         1 <0>         0.3995
     49 H20        -3.2410    1.8165    0.0500 H         1 <0>         0.4161
@<TRIPOS>BOND
     1    1    2 1
     2    1   30 1
     3    1   31 1
     4    1   32 1
     5    2    3 1
     6    2   33 1
     7    2   34 1
     8    3    4 1
     9    4    9 ar
    10    4    5 ar
    11    5    6 ar
    12    5   35 1
    13    6    7 ar
    14    6   24 1
    15    7    8 ar
    16    7   23 1
    17    8    9 ar
    18    8   22 1
    19    9   10 1
    20   10   11 1
    21   11   12 1
    22   11   36 1
    23   11   37 1
    24   12   13 2
    25   12   14 am
    26   14   15 1
    27   14   38 1
    28   15   20 ar
    29   15   16 ar
    30   16   17 ar
    31   16   39 1
    32   17   18 ar
    33   17   40 1
    34   18   19 ar
    35   18   21 1
    36   19   20 ar
    37   19   41 1
    38   20   42 1
    39   21   43 1
    40   21   44 1
    41   21   45 1
    42   24   25 2
    43   24   46 1
    44   25   26 1
    45   26   27 am
    46   26   47 1
    47   27   28 2
    48   27   29 am
    49   29   48 1
    50   29   49 1
@<TRIPOS>MOLECULE
ZINC45254284
   34    36     0     0     0
SMALL
USER_CHARGES

@<TRIPOS>ATOM
      1 C1         -0.0184    1.5028    0.0103 C.3       1 <0>        -0.1111
      2 C2          0.0021   -0.0041    0.0020 C.ar      1 <0>        -0.1037
      3 C3          0.0058   -0.6859   -1.1964 C.ar      1 <0>        -0.0925
      4 C4          0.0252   -2.0819   -1.2029 C.ar      1 <0>        -0.0123
      5 C5          0.0408   -2.7818    0.0056 C.ar      1 <0>        -0.0870
      6 C6          0.0369   -2.0924    1.1991 C.ar      1 <0>        -0.1351
      7 C7          0.0230   -0.7036    1.2010 C.ar      1 <0>         0.1103
      8 O1          0.0249   -0.0277    2.3799 O.3       1 <0>        -0.4939
      9 C8          0.0287   -2.8168   -2.4846 C.2       1 <0>        -0.1064
     10 C9          0.0408   -4.1709   -2.7029 C.2       1 <0>        -0.1451
     11 C10         0.0413   -4.6342   -3.9952 C.2       1 <0>        -0.1384
     12 C11         0.0297   -3.7277   -5.0241 C.2       1 <0>        -0.1146
     13 S1          0.0104   -2.1716   -4.1492 S.3       1 <0>         0.0844
     14 C12         0.0281   -3.9750   -6.4806 C.ar      1 <0>         0.0112
     15 C13         0.0336   -5.2834   -6.9694 C.ar      1 <0>        -0.1081
     16 C14         0.0321   -5.5105   -8.3301 C.ar      1 <0>        -0.0963
     17 C15         0.0256   -4.4461   -9.2132 C.ar      1 <0>        -0.1401
     18 C16         0.0201   -3.1421   -8.7368 C.ar      1 <0>         0.1131
     19 C17         0.0153   -2.9025   -7.3730 C.ar      1 <0>        -0.1356
     20 O2          0.0142   -2.1002   -9.6094 O.3       1 <0>        -0.4971
     21 H1          1.0042    1.8801    0.0026 H         1 <0>         0.0751
     22 H2         -0.5455    1.8639   -0.8728 H         1 <0>         0.0678
     23 H3         -0.5286    1.8543    0.9071 H         1 <0>         0.0704
     24 H4         -0.0067   -0.1409   -2.1287 H         1 <0>         0.1281
     25 H5          0.0554   -3.8617    0.0049 H         1 <0>         0.1319
     26 H6          0.0490   -2.6328    2.1341 H         1 <0>         0.1355
     27 H7         -0.8578    0.1559    2.7295 H         1 <0>         0.3911
     28 H8          0.0501   -4.8609   -1.8722 H         1 <0>         0.1386
     29 H9          0.0510   -5.6950   -4.1981 H         1 <0>         0.1388
     30 H10         0.0393   -6.1168   -6.2825 H         1 <0>         0.1306
     31 H11         0.0363   -6.5226   -8.7069 H         1 <0>         0.1343
     32 H12         0.0252   -4.6301  -10.2774 H         1 <0>         0.1329
     33 H13         0.0065   -1.8885   -7.0011 H         1 <0>         0.1299
     34 H14        -0.8709   -1.8028   -9.8609 H         1 <0>         0.3934
@<TRIPOS>BOND
     1    1    2 1
     2    1   21 1
     3    1   22 1
     4    1   23 1
     5    2    7 ar
     6    2    3 ar
     7    3    4 ar
     8    3   24 1
     9    4    5 ar
    10    4    9 1
    11    5    6 ar
    12    5   25 1
    13    6    7 ar
    14    6   26 1
    15    7    8 1
    16    8   27 1
    17    9   13 1
    18    9   10 2
    19   10   11 1
    20   10   28 1
    21   11   12 2
    22   11   29 1
    23   12   13 1
    24   12   14 1
    25   14   19 ar
    26   14   15 ar
    27   15   16 ar
    28   15   30 1
    29   16   17 ar
    30   16   31 1
    31   17   18 ar
    32   17   32 1
    33   18   19 ar
    34   18   20 1
    35   19   33 1
    36   20   34 1
@<TRIPOS>MOLECULE
ZINC00156701
   32    34     0     0     0
SMALL
USER_CHARGES

@<TRIPOS>ATOM
      1 C1         -0.0167    1.3784    0.0096 C.ar      1 <0>        -0.0844
      2 C2          1.1695    2.0865    0.0021 C.ar      1 <0>        -0.1442
      3 C3          2.3802    1.4093   -0.0131 C.ar      1 <0>         0.1167
      4 C4          2.3963    0.0221   -0.0206 C.ar      1 <0>        -0.1455
      5 C5          1.2074   -0.6814   -0.0130 C.ar      1 <0>        -0.0729
      6 C6          0.0021   -0.0041    0.0020 C.ar      1 <0>        -0.1034
      7 C7         -1.2934   -0.7740    0.0107 C.3       1 <0>         0.1470
      8 H1         -2.0861   -0.1570   -0.4124 H         1 <0>         0.0915
      9 C8         -1.6545   -1.1532    1.4543 C.3       1 <0>        -0.1930
     10 C9         -2.9435   -1.9533    1.3996 C.2       1 <0>         0.4032
     11 O1         -3.8237   -1.8020    2.2216 O.2       1 <0>        -0.4317
     12 C10        -3.0712   -2.9182    0.3020 C.ar      1 <0>        -0.2944
     13 C11        -4.0969   -3.8768    0.3066 C.ar      1 <0>         0.2227
     14 C12        -4.2019   -4.7673   -0.7467 C.ar      1 <0>        -0.2202
     15 C13        -3.2954   -4.7115   -1.7985 C.ar      1 <0>         0.1984
     16 C14        -2.2752   -3.7691   -1.8056 C.ar      1 <0>        -0.2010
     17 C15        -2.1504   -2.8702   -0.7610 C.ar      1 <0>         0.2145
     18 O2         -1.1470   -1.9614   -0.7679 O.3       1 <0>        -0.2972
     19 O3         -3.4079   -5.5870   -2.8289 O.3       1 <0>        -0.4900
     20 O4         -4.9779   -3.9296    1.3362 O.3       1 <0>        -0.4788
     21 O5          3.5484    2.1036   -0.0209 O.3       1 <0>        -0.4989
     22 H2         -0.9594    1.9052    0.0259 H         1 <0>         0.1316
     23 H3          1.1543    3.1664    0.0076 H         1 <0>         0.1345
     24 H4          3.3375   -0.5074   -0.0328 H         1 <0>         0.1334
     25 H5          1.2194   -1.7613   -0.0189 H         1 <0>         0.1340
     26 H6         -0.8595   -1.7595    1.8887 H         1 <0>         0.1164
     27 H7         -1.8021   -0.2518    2.0490 H         1 <0>         0.1158
     28 H8         -4.9890   -5.5069   -0.7515 H         1 <0>         0.1463
     29 H9         -1.5768   -3.7380   -2.6289 H         1 <0>         0.1490
     30 H10        -3.9680   -5.2733   -3.5521 H         1 <0>         0.4030
     31 H11        -5.7634   -3.3798    1.2103 H         1 <0>         0.4035
     32 H12         3.8951    2.3001    0.8601 H         1 <0>         0.3945
@<TRIPOS>BOND
     1    1    6 ar
     2    1    2 ar
     3    1   22 1
     4    2    3 ar
     5    2   23 1
     6    3    4 ar
     7    3   21 1
     8    4    5 ar
     9    4   24 1
    10    5    6 ar
    11    5   25 1
    12    6    7 1
    13    7    8 1
    14    7   18 1
    15    7    9 1
    16    9   10 1
    17    9   26 1
    18    9   27 1
    19   10   11 2
    20   10   12 1
    21   12   17 ar
    22   12   13 ar
    23   13   14 ar
    24   13   20 1
    25   14   15 ar
    26   14   28 1
    27   15   16 ar
    28   15   19 1
    29   16   17 ar
    30   16   29 1
    31   17   18 1
    32   19   30 1
    33   20   31 1
    34   21   32 1
