@<TRIPOS>MOLECULE
ZINC18847037
   33    35     0     0     0
SMALL
USER_CHARGES

@<TRIPOS>ATOM
      1 C1         -0.0173    1.4248    0.0099 C.3       1 <0>         0.0257
      2 O1          0.0021   -0.0041    0.0020 O.3       1 <0>        -0.3163
      3 C2          0.6259   -0.6184    1.0416 C.ar      1 <0>         0.1346
      4 C3          1.2017    0.1413    2.0505 C.ar      1 <0>        -0.2081
      5 C4          1.8351   -0.4792    3.1070 C.ar      1 <0>        -0.0652
      6 C5          1.8965   -1.8707    3.1609 C.ar      1 <0>        -0.0695
      7 C6          1.3173   -2.6308    2.1463 C.ar      1 <0>        -0.0470
      8 C7          0.6807   -2.0044    1.0951 C.ar      1 <0>        -0.1503
      9 C8          2.5773   -2.5411    4.2955 C.2       1 <0>        -0.2301
     10 C9          2.0898   -2.4416    5.5593 C.2       1 <0>         0.1222
     11 O2          2.6644   -3.0420    6.6041 O.3       1 <0>        -0.2153
     12 C10         3.9203   -3.5262    6.5411 C.ar      1 <0>         0.1758
     13 C11         4.6109   -3.8503    7.7004 C.ar      1 <0>        -0.1825
     14 C12         5.8988   -4.3556    7.6239 C.ar      1 <0>         0.1909
     15 C13         6.5160   -4.5473    6.3921 C.ar      1 <0>        -0.2036
     16 C14         5.8471   -4.2284    5.2249 C.ar      1 <0>         0.2177
     17 C15         4.5483   -3.7100    5.2959 C.ar      1 <0>        -0.2618
     18 C16         3.7998   -3.3401    4.0813 C.2       1 <0>         0.4315
     19 O3          4.1694   -3.6700    2.9673 O.2       1 <0>        -0.4364
     20 O4          6.4443   -4.4158    4.0209 O.3       1 <0>        -0.4758
     21 O5          6.5661   -4.6669    8.7643 O.3       1 <0>        -0.4882
     22 H1          1.0053    1.8021    0.0021 H         1 <0>         0.0568
     23 H2         -0.5445    1.7859   -0.8732 H         1 <0>         0.1019
     24 H3         -0.5275    1.7763    0.9067 H         1 <0>         0.0568
     25 H4          1.1541    1.2194    2.0079 H         1 <0>         0.1317
     26 H5          2.2833    0.1125    3.8915 H         1 <0>         0.1264
     27 H6          1.3632   -3.7091    2.1852 H         1 <0>         0.1304
     28 H7          0.2278   -2.5928    0.3108 H         1 <0>         0.1347
     29 H8          1.2005   -1.8518    5.7260 H         1 <0>         0.2010
     30 H9          4.1439   -3.7080    8.6637 H         1 <0>         0.1535
     31 H10         7.5190   -4.9453    6.3475 H         1 <0>         0.1500
     32 H11         6.2888   -5.2893    3.6365 H         1 <0>         0.4049
     33 H12         6.4352   -5.5781    9.0604 H         1 <0>         0.4038
@<TRIPOS>BOND
     1    1    2 1
     2    1   22 1
     3    1   23 1
     4    1   24 1
     5    2    3 1
     6    3    8 ar
     7    3    4 ar
     8    4    5 ar
     9    4   25 1
    10    5    6 ar
    11    5   26 1
    12    6    7 ar
    13    6    9 1
    14    7    8 ar
    15    7   27 1
    16    8   28 1
    17    9   18 1
    18    9   10 2
    19   10   11 1
    20   10   29 1
    21   11   12 1
    22   12   17 ar
    23   12   13 ar
    24   13   14 ar
    25   13   30 1
    26   14   15 ar
    27   14   21 1
    28   15   16 ar
    29   15   31 1
    30   16   17 ar
    31   16   20 1
    32   17   18 1
    33   18   19 2
    34   20   32 1
    35   21   33 1
@<TRIPOS>MOLECULE
ZINC03869768
   31    33     0     0     0
SMALL
USER_CHARGES

@<TRIPOS>ATOM
      1 C1          0.9745   -0.2752   -0.9649 C.ar      1 <0>        -0.0474
      2 C2          2.1550    0.4346   -0.9693 C.ar      1 <0>        -0.1488
      3 C3          2.3800    1.4188   -0.0145 C.ar      1 <0>         0.1280
      4 C4          1.4162    1.6917    0.9485 C.ar      1 <0>        -0.1504
      5 C5          0.2327    0.9869    0.9606 C.ar      1 <0>        -0.0665
      6 C6          0.0021   -0.0041    0.0020 C.ar      1 <0>        -0.0625
      7 C7         -1.2634   -0.7608    0.0105 C.2       1 <0>         0.1356
      8 C8         -1.2167   -2.1184   -0.0957 C.2       1 <0>        -0.0454
      9 C9         -2.4259   -2.8610   -0.0886 C.2       1 <0>         0.4007
     10 O1         -2.4232   -4.0781   -0.1814 O.2       1 <0>        -0.4492
     11 C10        -3.6832   -2.1065    0.0355 C.ar      1 <0>        -0.2689
     12 C11        -4.9234   -2.7585    0.0517 C.ar      1 <0>         0.2243
     13 C12        -6.0821   -2.0144    0.1703 C.ar      1 <0>        -0.2086
     14 C13        -6.0155   -0.6287    0.2722 C.ar      1 <0>         0.1994
     15 C14        -4.7926    0.0230    0.2564 C.ar      1 <0>        -0.1859
     16 C15        -3.6188   -0.7060    0.1392 C.ar      1 <0>         0.1873
     17 O2         -2.4200   -0.0864    0.1283 O.3       1 <0>        -0.1981
     18 O3         -7.1599    0.0925    0.3877 O.3       1 <0>        -0.4869
     19 O4         -4.9864   -4.1104   -0.0487 O.3       1 <0>        -0.4727
     20 O5         -0.0202   -2.7570   -0.2082 O.3       1 <0>        -0.4492
     21 O6          3.5454    2.1157   -0.0224 O.3       1 <0>        -0.4978
     22 H1          0.7987   -1.0369   -1.7101 H         1 <0>         0.1366
     23 H2          2.9071    0.2256   -1.7157 H         1 <0>         0.1375
     24 H3          1.5954    2.4572    1.6889 H         1 <0>         0.1366
     25 H4         -0.5157    1.1995    1.7097 H         1 <0>         0.1340
     26 H5         -7.0416   -2.5100    0.1835 H         1 <0>         0.1512
     27 H6         -4.7536    1.0994    0.3359 H         1 <0>         0.1553
     28 H7         -7.4448    0.2345    1.3008 H         1 <0>         0.4049
     29 H8         -4.9577   -4.5698    0.8018 H         1 <0>         0.4037
     30 H9         -0.0926   -3.7187   -0.2778 H         1 <0>         0.4073
     31 H10         3.5195    2.9194   -0.5594 H         1 <0>         0.3958
@<TRIPOS>BOND
     1    1    6 ar
     2    1    2 ar
     3    1   22 1
     4    2    3 ar
     5    2   23 1
     6    3    4 ar
     7    3   21 1
     8    4    5 ar
     9    4   24 1
    10    5    6 ar
    11    5   25 1
    12    6    7 1
    13    7   17 1
    14    7    8 2
    15    8    9 1
    16    8   20 1
    17    9   10 2
    18    9   11 1
    19   11   16 ar
    20   11   12 ar
    21   12   13 ar
    22   12   19 1
    23   13   14 ar
    24   13   26 1
    25   14   15 ar
    26   14   18 1
    27   15   16 ar
    28   15   27 1
    29   16   17 1
    30   18   28 1
    31   19   29 1
    32   20   30 1
    33   21   31 1
@<TRIPOS>MOLECULE
ZINC03869768
   30    32     0     0     0
SMALL
USER_CHARGES

@<TRIPOS>ATOM
      1 C1          0.1387    1.1253   -0.8121 C.ar      1 <0>        -0.0723
      2 C2          1.3222    1.8291   -0.8163 C.ar      1 <0>        -0.1492
      3 C3          2.3802    1.4188   -0.0136 C.ar      1 <0>         0.1107
      4 C4          2.2493    0.2973    0.7970 C.ar      1 <0>        -0.1487
      5 C5          1.0698   -0.4131    0.8081 C.ar      1 <0>        -0.0549
      6 C6          0.0021   -0.0041    0.0020 C.ar      1 <0>        -0.0373
      7 C7         -1.2618   -0.7600    0.0105 C.2       1 <0>         0.1024
      8 C8         -1.2272   -2.1382   -0.0967 C.2       1 <0>        -0.0073
      9 C9         -2.4246   -2.8649   -0.0894 C.2       1 <0>         0.3353
     10 C10        -3.6396   -2.1555    0.0286 C.2       1 <0>        -0.3335
     11 C11        -4.8747   -2.8371    0.0419 C.2       1 <0>         0.2665
     12 C12        -6.0380   -2.1324    0.1573 C.2       1 <0>        -0.3754
     13 C13        -6.0102   -0.7324    0.2627 C.2       1 <0>         0.3645
     14 O1         -7.1532   -0.0530    0.3751 O.2       1 <0>        -0.6613
     15 C14        -4.7917   -0.0455    0.2513 C.2       1 <0>        -0.3154
     16 C15        -3.6071   -0.7470    0.1346 C.2       1 <0>         0.2120
     17 O2         -2.4247   -0.0966    0.1278 O.3       1 <0>        -0.2026
     18 O3         -4.9062   -4.1898   -0.0602 O.3       1 <0>        -0.4482
     19 O4         -2.4171   -4.2129   -0.1933 O.3       1 <0>        -0.5752
     20 O5         -0.0356   -2.7853   -0.2091 O.3       1 <0>        -0.4646
     21 O6          3.5454    2.1154   -0.0218 O.3       1 <0>        -0.5000
     22 H1         -0.6842    1.4472   -1.4330 H         1 <0>         0.1347
     23 H2          1.4286    2.7011   -1.4445 H         1 <0>         0.1321
     24 H3          3.0741   -0.0177    1.4190 H         1 <0>         0.1323
     25 H4          0.9692   -1.2847    1.4377 H         1 <0>         0.1358
     26 H5         -6.9838   -2.6538    0.1671 H         1 <0>         0.1177
     27 H6         -4.7769    1.0313    0.3327 H         1 <0>         0.1225
     28 H7         -5.7973   -4.5650   -0.0417 H         1 <0>         0.3845
     29 H8         -0.1151   -3.7466   -0.2784 H         1 <0>         0.4051
     30 H9          3.5829    2.8269    0.6320 H         1 <0>         0.3897
@<TRIPOS>BOND
     1    1    6 ar
     2    1    2 ar
     3    1   22 1
     4    2    3 ar
     5    2   23 1
     6    3    4 ar
     7    3   21 1
     8    4    5 ar
     9    4   24 1
    10    5    6 ar
    11    5   25 1
    12    6    7 1
    13    7   17 1
    14    7    8 2
    15    8    9 1
    16    8   20 1
    17    9   10 2
    18    9   19 1
    19   10   16 1
    20   10   11 1
    21   11   12 2
    22   11   18 1
    23   12   13 1
    24   12   26 1
    25   13   14 2
    26   13   15 1
    27   15   16 2
    28   15   27 1
    29   16   17 1
    30   18   28 1
    31   20   29 1
    32   21   30 1
@<TRIPOS>MOLECULE
ZINC34169081
   84    88     0     0     0
SMALL
USER_CHARGES

@<TRIPOS>ATOM
      1 C1         -1.0579    1.5685    0.5011 C.3       1 <0>        -0.1475
      2 C2         -0.7226    0.1104    0.3212 C.2       1 <0>         0.4546
      3 O1         -0.7022   -0.6273    1.2779 O.2       1 <0>        -0.5129
      4 O2         -0.4465   -0.3689   -0.9018 O.3       1 <0>        -0.3444
      5 C3         -0.1362   -1.7651   -0.9989 C.3       1 <0>         0.1022
      6 H1          0.3337   -2.0784   -0.0599 H         1 <0>         0.0790
      7 C4         -1.4239   -2.5527   -1.1996 C.3       1 <0>        -0.1316
      8 C5         -1.1115   -4.0352   -1.3821 C.3       1 <0>        -0.1161
      9 C6         -0.2752   -4.2293   -2.6605 C.3       1 <0>        -0.0233
     10 C7          1.0160   -3.4306   -2.5118 C.3       1 <0>        -0.0605
     11 H2          1.5704   -3.9114   -1.6657 H         1 <0>         0.0620
     12 C8          0.8575   -1.9749   -2.1411 C.3       1 <0>        -0.0395
     13 C9          2.2252   -1.4597   -1.6239 C.3       1 <0>        -0.1504
     14 C10         0.4743   -1.0974   -3.3329 C.3       1 <0>        -0.1377
     15 C11         1.8942   -3.6408   -3.7444 C.3       1 <0>        -0.1125
     16 C12         2.3434   -5.1107   -3.7549 C.3       1 <0>        -0.1084
     17 C13         1.1410   -6.0402   -3.8125 C.3       1 <0>        -0.0235
     18 C14         0.0954   -5.7067   -2.7597 C.3       1 <0>        -0.1127
     19 H3          0.4997   -5.9795   -1.7601 H         1 <0>         0.0972
     20 C15        -1.1069   -6.5902   -2.9986 C.2       1 <0>         0.4023
     21 O3         -2.2535   -6.1981   -2.9053 O.2       1 <0>        -0.4590
     22 C16        -0.8375   -7.9956   -3.3316 C.2       1 <0>        -0.2642
     23 C17         0.3966   -8.4208   -3.6305 C.2       1 <0>         0.0093
     24 C18         1.5818   -7.5047   -3.6576 C.3       1 <0>        -0.0133
     25 C19         2.5849   -7.8659   -4.7445 C.3       1 <0>        -0.1049
     26 C20         2.7681   -9.3730   -4.9020 C.3       1 <0>        -0.1075
     27 C21         1.4337  -10.0580   -5.1742 C.3       1 <0>        -0.0468
     28 C22         0.5316   -9.8969   -3.9534 C.3       1 <0>        -0.0430
     29 H4         -0.4644  -10.2930   -4.1903 H         1 <0>         0.0890
     30 C23         1.1081  -10.6368   -2.7525 C.3       1 <0>        -0.0725
     31 C24         1.3197  -12.1187   -3.0592 C.3       1 <0>        -0.1303
     32 C25         2.2192  -12.2757   -4.2834 C.3       1 <0>        -0.0834
     33 C26         1.6426  -11.5391   -5.4850 C.3       1 <0>        -0.1002
     34 C27         2.0111  -12.7749   -1.8535 C.3       1 <0>        -0.1228
     35 C28        -0.0024  -12.8013   -3.2854 C.2       1 <0>         0.5073
     36 O4         -0.0734  -13.7587   -4.0370 O.co2     1 <0>        -0.6990
     37 O5         -1.0024  -12.3970   -2.7170 O.co2     1 <0>        -0.6978
     38 C29         0.7547   -9.4130   -6.3885 C.3       1 <0>        -0.1469
     39 C30         2.3007   -7.6330   -2.3083 C.3       1 <0>        -0.1541
     40 C31         0.5127   -5.9326   -5.2111 C.3       1 <0>        -0.1685
     41 C32        -1.1116   -3.7666   -3.8471 C.3       1 <0>        -0.1575
     42 H5         -0.1431    2.1316    0.6863 H         1 <0>         0.1025
     43 H6         -1.5396    1.9446   -0.4015 H         1 <0>         0.0932
     44 H7         -1.7336    1.6841    1.3486 H         1 <0>         0.1005
     45 H8         -2.0485   -2.4388   -0.3001 H         1 <0>         0.0607
     46 H9         -1.9884   -2.1593   -2.0385 H         1 <0>         0.0785
     47 H10        -0.5408   -4.3997   -0.5286 H         1 <0>         0.0590
     48 H11        -2.0386   -4.5976   -1.4709 H         1 <0>         0.0891
     49 H12         2.5171   -2.0279   -0.7407 H         1 <0>         0.0520
     50 H13         2.9784   -1.5849   -2.4018 H         1 <0>         0.0620
     51 H14         2.1417   -0.4040   -1.3655 H         1 <0>         0.0555
     52 H15         0.5887   -0.0476   -3.0629 H         1 <0>         0.0591
     53 H16         1.1234   -1.3282   -4.1776 H         1 <0>         0.0574
     54 H17        -0.5625   -1.2909   -3.6080 H         1 <0>         0.0606
     55 H18         1.3672   -3.4049   -4.6592 H         1 <0>         0.0717
     56 H19         2.7884   -3.0163   -3.6800 H         1 <0>         0.0637
     57 H20         2.9782   -5.2737   -4.6304 H         1 <0>         0.0692
     58 H21         2.9375   -5.2782   -2.8571 H         1 <0>         0.0686
     59 H22        -1.6530   -8.7068   -3.3348 H         1 <0>         0.1329
     60 H23         2.3596   -7.4271   -5.7078 H         1 <0>         0.0730
     61 H24         3.5678   -7.4491   -4.4442 H         1 <0>         0.0567
     62 H25         3.4442   -9.5622   -5.7445 H         1 <0>         0.0584
     63 H26         3.2220   -9.7871   -4.0017 H         1 <0>         0.0679
     64 H27         2.0740  -10.2084   -2.4753 H         1 <0>         0.0471
     65 H28         0.4280  -10.5404   -1.9023 H         1 <0>         0.0634
     66 H29         3.2130  -11.8825   -4.0555 H         1 <0>         0.0389
     67 H30         2.3163  -13.3391   -4.5230 H         1 <0>         0.0615
     68 H31         0.6917  -11.9825   -5.7814 H         1 <0>         0.0700
     69 H32         2.3362  -11.6264   -6.3277 H         1 <0>         0.0475
     70 H33         1.3823  -12.6649   -0.9699 H         1 <0>         0.0481
     71 H34         2.1692  -13.8339   -2.0573 H         1 <0>         0.0487
     72 H35         2.9720  -12.2912   -1.6780 H         1 <0>         0.0383
     73 H36         1.3976   -9.5177   -7.2624 H         1 <0>         0.0498
     74 H37        -0.1982   -9.9075   -6.5771 H         1 <0>         0.0537
     75 H38         0.5820   -8.3554   -6.1890 H         1 <0>         0.0571
     76 H39         1.5901   -7.4596   -1.5001 H         1 <0>         0.0562
     77 H40         2.7208   -8.6343   -2.2142 H         1 <0>         0.0692
     78 H41         3.1018   -6.8960   -2.2520 H         1 <0>         0.0646
     79 H42         1.1974   -6.3490   -5.9500 H         1 <0>         0.0668
     80 H43        -0.4253   -6.4874   -5.2317 H         1 <0>         0.0589
     81 H44         0.3205   -4.8852   -5.4435 H         1 <0>         0.0657
     82 H45        -1.5401   -2.7881   -3.6301 H         1 <0>         0.0602
     83 H46        -0.4796   -3.6983   -4.7325 H         1 <0>         0.0605
     84 H47        -1.9136   -4.4825   -4.0275 H         1 <0>         0.0713
@<TRIPOS>BOND
     1    1    2 1
     2    1   42 1
     3    1   43 1
     4    1   44 1
     5    2    3 2
     6    2    4 1
     7    4    5 1
     8    5    6 1
     9    5   12 1
    10    5    7 1
    11    7    8 1
    12    7   45 1
    13    7   46 1
    14    8    9 1
    15    8   47 1
    16    8   48 1
    17    9   18 1
    18    9   10 1
    19    9   41 1
    20   10   11 1
    21   10   12 1
    22   10   15 1
    23   12   13 1
    24   12   14 1
    25   13   49 1
    26   13   50 1
    27   13   51 1
    28   14   52 1
    29   14   53 1
    30   14   54 1
    31   15   16 1
    32   15   55 1
    33   15   56 1
    34   16   17 1
    35   16   57 1
    36   16   58 1
    37   17   24 1
    38   17   18 1
    39   17   40 1
    40   18   19 1
    41   18   20 1
    42   20   21 2
    43   20   22 1
    44   22   23 2
    45   22   59 1
    46   23   28 1
    47   23   24 1
    48   24   25 1
    49   24   39 1
    50   25   26 1
    51   25   60 1
    52   25   61 1
    53   26   27 1
    54   26   62 1
    55   26   63 1
    56   27   33 1
    57   27   28 1
    58   27   38 1
    59   28   29 1
    60   28   30 1
    61   30   31 1
    62   30   64 1
    63   30   65 1
    64   31   32 1
    65   31   34 1
    66   31   35 1
    67   32   33 1
    68   32   66 1
    69   32   67 1
    70   33   68 1
    71   33   69 1
    72   34   70 1
    73   34   71 1
    74   34   72 1
    75   35   36 2
    76   35   37 1
    77   38   73 1
    78   38   74 1
    79   38   75 1
    80   39   76 1
    81   39   77 1
    82   39   78 1
    83   40   79 1
    84   40   80 1
    85   40   81 1
    86   41   82 1
    87   41   83 1
    88   41   84 1
@<TRIPOS>MOLECULE
ZINC29056253
   29    31     0     0     0
SMALL
USER_CHARGES
3-(2-naphthyl)phenol
@<TRIPOS>ATOM
      1 C1         -1.2930   10.1733    0.0736 C.ar      1 <0>        -0.1145
      2 C2         -2.4978    9.4727    0.0801 C.ar      1 <0>        -0.1152
      3 C3         -2.5165    8.1120    0.0716 C.ar      1 <0>        -0.1056
      4 C4         -1.3043    7.3994    0.0557 C.ar      1 <0>        -0.0502
      5 C5         -1.2872    5.9960    0.0470 C.ar      1 <0>        -0.0920
      6 C6         -0.0758    5.3309    0.0319 C.ar      1 <0>        -0.0457
      7 C7          1.1321    6.0471    0.0305 C.ar      1 <0>        -0.1060
      8 C8          1.1370    7.4051    0.0333 C.ar      1 <0>        -0.1028
      9 C9         -0.0788    8.1122    0.0487 C.ar      1 <0>        -0.0506
     10 C10        -0.1005    9.5172    0.0582 C.ar      1 <0>        -0.1071
     11 C11        -0.0513    3.8476    0.0232 C.ar      1 <0>        -0.0058
     12 C12        -1.2457    3.1286    0.0308 C.ar      1 <0>        -0.1549
     13 C13        -1.2203    1.7487    0.0174 C.ar      1 <0>        -0.0738
     14 C14        -0.0126    1.0758    0.0080 C.ar      1 <0>        -0.1619
     15 C15         1.1810    1.7841    0.0004 C.ar      1 <0>         0.1597
     16 C16         1.1648    3.1693    0.0080 C.ar      1 <0>        -0.2070
     17 O1          2.3659    1.1185   -0.0141 O.3       1 <0>        -0.5099
     18 H1         -1.3057   11.2532    0.0812 H         1 <0>         0.1243
     19 H2         -3.4302   10.0177    0.0923 H         1 <0>         0.1247
     20 H3         -3.4576    7.5821    0.0768 H         1 <0>         0.1281
     21 H4         -2.2132    5.4403    0.0518 H         1 <0>         0.1325
     22 H5          2.0696    5.5109    0.0228 H         1 <0>         0.1254
     23 H6          2.0741    7.9419    0.0279 H         1 <0>         0.1298
     24 H7          0.8249   10.0740    0.0530 H         1 <0>         0.1279
     25 H8         -2.1907    3.6513    0.0426 H         1 <0>         0.1265
     26 H9         -2.1464    1.1930    0.0187 H         1 <0>         0.1317
     27 H10         0.0021   -0.0041    0.0020 H         1 <0>         0.1292
     28 H11         2.0929    3.7217    0.0017 H         1 <0>         0.1296
     29 H12         3.3119    1.6797   -0.0201 H         1 <0>         0.4337
@<TRIPOS>BOND
     1    1   10 ar
     2    1    2 ar
     3    1   18 1
     4    2    3 ar
     5    2   19 1
     6    3    4 ar
     7    3   20 1
     8    4    9 ar
     9    4    5 ar
    10    5    6 ar
    11    5   21 1
    12    6    7 ar
    13    6   11 1
    14    7    8 ar
    15    7   22 1
    16    8    9 ar
    17    8   23 1
    18    9   10 ar
    19   10   24 1
    20   11   16 ar
    21   11   12 ar
    22   12   13 ar
    23   12   25 1
    24   13   14 ar
    25   13   26 1
    26   14   15 ar
    27   14   27 1
    28   15   16 ar
    29   15   17 1
    30   16   28 1
    31   17   29 1
@<TRIPOS>MOLECULE
ZINC01703222
   30    32     0     0     0
SMALL
USER_CHARGES
3-[6-(3-hydroxyphenyl)-1,2,4,5-tetrazin-3-yl]phenol
@<TRIPOS>ATOM
      1 C1         -1.2203    1.7485    0.0174 C.ar      1 <0>        -0.1086
      2 C2         -1.2460    3.1285    0.0308 C.ar      1 <0>        -0.0735
      3 C3         -0.0514    3.8478    0.0232 C.ar      1 <0>        -0.0394
      4 C4          1.1655    3.1690    0.0079 C.ar      1 <0>        -0.0926
      5 C5          1.1814    1.7841    0.0004 C.ar      1 <0>         0.1006
      6 C6         -0.0126    1.0758    0.0080 C.ar      1 <0>        -0.1119
      7 O1          2.3661    1.1183   -0.0150 O.3       1 <0>        -0.4937
      8 C7         -0.0759    5.3297    0.0309 C.ar      1 <0>         0.2235
      9 N1          1.0657    6.0143    0.0287 N.ar      1 <0>        -0.1840
     10 N2          1.0443    7.3041    0.0299 N.ar      1 <0>        -0.1839
     11 C8         -0.1193    7.9504    0.0444 C.ar      1 <0>         0.2235
     12 N3         -1.2609    7.2658    0.0522 N.ar      1 <0>        -0.1830
     13 N4         -1.2395    5.9760    0.0455 N.ar      1 <0>        -0.1830
     14 C9         -0.1439    9.4324    0.0516 C.ar      1 <0>        -0.0394
     15 C10        -1.3616   10.1116    0.0664 C.ar      1 <0>        -0.0735
     16 C11        -1.3815   11.4917    0.0735 C.ar      1 <0>        -0.1086
     17 C12        -0.1968   12.2041    0.0660 C.ar      1 <0>        -0.1119
     18 C13         1.0199   11.5359    0.0517 C.ar      1 <0>         0.1007
     19 C14         1.0500   10.1512    0.0494 C.ar      1 <0>        -0.0927
     20 O2          2.1820   12.2406    0.0453 O.3       1 <0>        -0.4937
     21 H1         -2.1462    1.1926    0.0184 H         1 <0>         0.1403
     22 H2         -2.1911    3.6510    0.0426 H         1 <0>         0.1434
     23 H3          2.0936    3.7212    0.0024 H         1 <0>         0.1460
     24 H4          0.0021   -0.0041    0.0020 H         1 <0>         0.1379
     25 H5          2.7004    0.9307   -0.9028 H         1 <0>         0.3950
     26 H6         -2.2889    9.5580    0.0727 H         1 <0>         0.1434
     27 H7         -2.3253   12.0166    0.0854 H         1 <0>         0.1403
     28 H8         -0.2179   13.2839    0.0716 H         1 <0>         0.1379
     29 H9          1.9959    9.6300    0.0421 H         1 <0>         0.1461
     30 H10         2.5261   12.4398    0.9268 H         1 <0>         0.3949
@<TRIPOS>BOND
     1    1    6 ar
     2    1    2 ar
     3    1   21 1
     4    2    3 ar
     5    2   22 1
     6    3    4 ar
     7    3    8 1
     8    4    5 ar
     9    4   23 1
    10    5    6 ar
    11    5    7 1
    12    6   24 1
    13    7   25 1
    14    8   13 ar
    15    8    9 ar
    16    9   10 ar
    17   10   11 ar
    18   11   12 ar
    19   11   14 1
    20   12   13 ar
    21   14   19 ar
    22   14   15 ar
    23   15   16 ar
    24   15   26 1
    25   16   17 ar
    26   16   27 1
    27   17   18 ar
    28   17   28 1
    29   18   19 ar
    30   18   20 1
    31   19   29 1
    32   20   30 1
@<TRIPOS>MOLECULE
ZINC03869685
   32    34     0     0     0
SMALL
USER_CHARGES

@<TRIPOS>ATOM
      1 C1          0.9741   -0.2755   -0.9644 C.ar      1 <0>        -0.0748
      2 C2          2.1569    0.4329   -0.9701 C.ar      1 <0>        -0.1346
      3 C3          2.3856    1.4156   -0.0177 C.ar      1 <0>         0.1032
      4 C4          1.4203    1.6918    0.9495 C.ar      1 <0>         0.0788
      5 C5          0.2328    0.9863    0.9617 C.ar      1 <0>        -0.0762
      6 C6          0.0021   -0.0041    0.0020 C.ar      1 <0>        -0.0447
      7 C7         -1.2637   -0.7605    0.0100 C.2       1 <0>         0.1350
      8 C8         -2.4363   -0.0759    0.1235 C.2       1 <0>        -0.0429
      9 C9         -3.6628   -0.7894    0.1327 C.2       1 <0>         0.4011
     10 O1         -4.7327   -0.2102    0.2323 O.2       1 <0>        -0.4484
     11 C10        -3.5946   -2.2549    0.0170 C.ar      1 <0>        -0.2690
     12 C11        -4.7561   -3.0387    0.0170 C.ar      1 <0>         0.2244
     13 C12        -4.6504   -4.4123   -0.0941 C.ar      1 <0>        -0.2081
     14 C13        -3.3994   -5.0103   -0.2044 C.ar      1 <0>         0.2000
     15 C14        -2.2463   -4.2416   -0.2047 C.ar      1 <0>        -0.1854
     16 C15        -2.3316   -2.8618   -0.0952 C.ar      1 <0>         0.1876
     17 O2         -1.2182   -2.0992   -0.1003 O.3       1 <0>        -0.1970
     18 O3         -3.3070   -6.3605   -0.3125 O.3       1 <0>        -0.4866
     19 O4         -5.9758   -2.4535    0.1257 O.3       1 <0>        -0.4726
     20 O5         -2.4312    1.2810    0.2275 O.3       1 <0>        -0.4502
     21 O6          1.6480    2.6557    1.8815 O.3       1 <0>        -0.4836
     22 O7          3.5534    2.1101   -0.0273 O.3       1 <0>        -0.4861
     23 H1          0.7971   -1.0371   -1.7094 H         1 <0>         0.1379
     24 H2          2.9075    0.2221   -1.7176 H         1 <0>         0.1421
     25 H3         -0.5155    1.1988    1.7108 H         1 <0>         0.1429
     26 H4         -5.5413   -5.0229   -0.0948 H         1 <0>         0.1515
     27 H5         -1.2805   -4.7174   -0.2903 H         1 <0>         0.1559
     28 H6         -3.3257   -6.6843   -1.2235 H         1 <0>         0.4050
     29 H7         -6.3751   -2.2160   -0.7224 H         1 <0>         0.4036
     30 H8         -3.3120    1.6729    0.3033 H         1 <0>         0.4079
     31 H9          1.3508    3.5370    1.6166 H         1 <0>         0.3905
     32 H10         3.5287    2.9137   -0.5647 H         1 <0>         0.3924
@<TRIPOS>BOND
     1    1    6 ar
     2    1    2 ar
     3    1   23 1
     4    2    3 ar
     5    2   24 1
     6    3    4 ar
     7    3   22 1
     8    4    5 ar
     9    4   21 1
    10    5    6 ar
    11    5   25 1
    12    6    7 1
    13    7   17 1
    14    7    8 2
    15    8    9 1
    16    8   20 1
    17    9   10 2
    18    9   11 1
    19   11   16 ar
    20   11   12 ar
    21   12   13 ar
    22   12   19 1
    23   13   14 ar
    24   13   26 1
    25   14   15 ar
    26   14   18 1
    27   15   16 ar
    28   15   27 1
    29   16   17 1
    30   18   28 1
    31   19   29 1
    32   20   30 1
    33   21   31 1
    34   22   32 1
@<TRIPOS>MOLECULE
ZINC03869685
   31    33     0     0     0
SMALL
USER_CHARGES

@<TRIPOS>ATOM
      1 C1          0.1390    1.1246   -0.8120 C.ar      1 <0>        -0.0626
      2 C2          1.3229    1.8301   -0.8179 C.ar      1 <0>        -0.1333
      3 C3          2.3812    1.4233   -0.0172 C.ar      1 <0>         0.0878
      4 C4          2.2522    0.2984    0.7970 C.ar      1 <0>         0.0757
      5 C5          1.0694   -0.4139    0.8086 C.ar      1 <0>        -0.0997
      6 C6          0.0021   -0.0041    0.0020 C.ar      1 <0>        -0.0194
      7 C7         -1.2620   -0.7597    0.0100 C.2       1 <0>         0.1007
      8 C8         -2.4587   -0.0763    0.1245 C.2       1 <0>        -0.0038
      9 C9         -3.6655   -0.7872    0.1324 C.2       1 <0>         0.3349
     10 C10        -3.6167   -2.1939    0.0219 C.2       1 <0>        -0.3331
     11 C11        -4.8018   -2.9593    0.0240 C.2       1 <0>         0.2664
     12 C12        -4.7326   -4.3182   -0.0844 C.2       1 <0>        -0.3749
     13 C13        -3.4871   -4.9570   -0.1979 C.2       1 <0>         0.3648
     14 O1         -3.4307   -6.2860   -0.3033 O.2       1 <0>        -0.6598
     15 C14        -2.3054   -4.2086   -0.2016 C.2       1 <0>        -0.3143
     16 C15        -2.3616   -2.8325   -0.0921 C.2       1 <0>         0.2118
     17 O2         -1.2290   -2.0988   -0.0996 O.3       1 <0>        -0.2018
     18 O3         -6.0073   -2.3463    0.1339 O.3       1 <0>        -0.4482
     19 O4         -4.8484   -0.1420    0.2437 O.3       1 <0>        -0.5747
     20 O5         -2.4638    1.2803    0.2294 O.3       1 <0>        -0.4649
     21 O6          3.2919   -0.0973    1.5794 O.3       1 <0>        -0.4856
     22 O7          3.5458    2.1225   -0.0269 O.3       1 <0>        -0.4881
     23 H1         -0.6843    1.4460   -1.4327 H         1 <0>         0.1397
     24 H2          1.4276    2.7014   -1.4473 H         1 <0>         0.1381
     25 H3          0.9685   -1.2854    1.4384 H         1 <0>         0.1410
     26 H4         -5.6395   -4.9047   -0.0825 H         1 <0>         0.1180
     27 H5         -1.3506   -4.7057   -0.2895 H         1 <0>         0.1230
     28 H6         -6.7597   -2.9537    0.1258 H         1 <0>         0.3847
     29 H7         -3.3475    1.6656    0.3047 H         1 <0>         0.4058
     30 H8          3.2925    0.2977    2.4620 H         1 <0>         0.3855
     31 H9          3.5825    2.8346    0.6263 H         1 <0>         0.3863
@<TRIPOS>BOND
     1    1    6 ar
     2    1    2 ar
     3    1   23 1
     4    2    3 ar
     5    2   24 1
     6    3    4 ar
     7    3   22 1
     8    4    5 ar
     9    4   21 1
    10    5    6 ar
    11    5   25 1
    12    6    7 1
    13    7   17 1
    14    7    8 2
    15    8    9 1
    16    8   20 1
    17    9   10 2
    18    9   19 1
    19   10   16 1
    20   10   11 1
    21   11   12 2
    22   11   18 1
    23   12   13 1
    24   12   26 1
    25   13   14 2
    26   13   15 1
    27   15   16 2
    28   15   27 1
    29   16   17 1
    30   18   28 1
    31   20   29 1
    32   21   30 1
    33   22   31 1
@<TRIPOS>MOLECULE
ZINC45254284
   34    36     0     0     0
SMALL
USER_CHARGES

@<TRIPOS>ATOM
      1 C1         -0.0184    1.5028    0.0103 C.3       1 <0>        -0.1111
      2 C2          0.0021   -0.0041    0.0020 C.ar      1 <0>        -0.1037
      3 C3          0.0058   -0.6859   -1.1964 C.ar      1 <0>        -0.0925
      4 C4          0.0252   -2.0819   -1.2029 C.ar      1 <0>        -0.0123
      5 C5          0.0408   -2.7818    0.0056 C.ar      1 <0>        -0.0870
      6 C6          0.0369   -2.0924    1.1991 C.ar      1 <0>        -0.1351
      7 C7          0.0230   -0.7036    1.2010 C.ar      1 <0>         0.1103
      8 O1          0.0249   -0.0277    2.3799 O.3       1 <0>        -0.4939
      9 C8          0.0287   -2.8168   -2.4846 C.2       1 <0>        -0.1064
     10 C9          0.0408   -4.1709   -2.7029 C.2       1 <0>        -0.1451
     11 C10         0.0413   -4.6342   -3.9952 C.2       1 <0>        -0.1384
     12 C11         0.0297   -3.7277   -5.0241 C.2       1 <0>        -0.1146
     13 S1          0.0104   -2.1716   -4.1492 S.3       1 <0>         0.0844
     14 C12         0.0281   -3.9750   -6.4806 C.ar      1 <0>         0.0112
     15 C13         0.0336   -5.2834   -6.9694 C.ar      1 <0>        -0.1081
     16 C14         0.0321   -5.5105   -8.3301 C.ar      1 <0>        -0.0963
     17 C15         0.0256   -4.4461   -9.2132 C.ar      1 <0>        -0.1401
     18 C16         0.0201   -3.1421   -8.7368 C.ar      1 <0>         0.1131
     19 C17         0.0153   -2.9025   -7.3730 C.ar      1 <0>        -0.1356
     20 O2          0.0142   -2.1002   -9.6094 O.3       1 <0>        -0.4971
     21 H1          1.0042    1.8801    0.0026 H         1 <0>         0.0751
     22 H2         -0.5455    1.8639   -0.8728 H         1 <0>         0.0678
     23 H3         -0.5286    1.8543    0.9071 H         1 <0>         0.0704
     24 H4         -0.0067   -0.1409   -2.1287 H         1 <0>         0.1281
     25 H5          0.0554   -3.8617    0.0049 H         1 <0>         0.1319
     26 H6          0.0490   -2.6328    2.1341 H         1 <0>         0.1355
     27 H7         -0.8578    0.1559    2.7295 H         1 <0>         0.3911
     28 H8          0.0501   -4.8609   -1.8722 H         1 <0>         0.1386
     29 H9          0.0510   -5.6950   -4.1981 H         1 <0>         0.1388
     30 H10         0.0393   -6.1168   -6.2825 H         1 <0>         0.1306
     31 H11         0.0363   -6.5226   -8.7069 H         1 <0>         0.1343
     32 H12         0.0252   -4.6301  -10.2774 H         1 <0>         0.1329
     33 H13         0.0065   -1.8885   -7.0011 H         1 <0>         0.1299
     34 H14        -0.8709   -1.8028   -9.8609 H         1 <0>         0.3934
@<TRIPOS>BOND
     1    1    2 1
     2    1   21 1
     3    1   22 1
     4    1   23 1
     5    2    7 ar
     6    2    3 ar
     7    3    4 ar
     8    3   24 1
     9    4    5 ar
    10    4    9 1
    11    5    6 ar
    12    5   25 1
    13    6    7 ar
    14    6   26 1
    15    7    8 1
    16    8   27 1
    17    9   13 1
    18    9   10 2
    19   10   11 1
    20   10   28 1
    21   11   12 2
    22   11   29 1
    23   12   13 1
    24   12   14 1
    25   14   19 ar
    26   14   15 ar
    27   15   16 ar
    28   15   30 1
    29   16   17 ar
    30   16   31 1
    31   17   18 ar
    32   17   32 1
    33   18   19 ar
    34   18   20 1
    35   19   33 1
    36   20   34 1
