@<TRIPOS>MOLECULE
ZINC43203373
   40    42     0     0     0
SMALL
USER_CHARGES

@<TRIPOS>ATOM
      1 C1         -0.0187    1.5258    0.0104 C.3       1 <0>        -0.1604
      2 C2          0.0021   -0.0041    0.0020 C.3       1 <0>        -0.0579
      3 C3          0.7421   -0.5109    1.2415 C.3       1 <0>        -0.1516
      4 C4         -1.4333   -0.5336    0.0129 C.3       1 <0>        -0.0942
      5 C5         -2.2902    0.2000    1.0385 C.2       1 <0>         0.5497
      6 O1         -2.0722    0.1813    2.2342 O.2       1 <0>        -0.4597
      7 N1         -3.2856    0.8524    0.4937 N.2       1 <0>        -0.6911
      8 C6         -3.5328    0.8808   -0.8029 C.2       1 <0>         0.4794
      9 S1         -2.3361   -0.0613   -1.5194 S.3       1 <0>        -0.1085
     10 N2         -4.5489    1.5379   -1.4322 N.pl3     1 <0>        -0.6359
     11 C7         -5.5110    2.3190   -0.6508 C.3       1 <0>         0.1407
     12 H1         -5.6883    1.8457    0.3150 H         1 <0>         0.1051
     13 C8         -4.9999    3.7649   -0.4566 C.3       1 <0>        -0.1289
     14 C9         -6.0773    4.6593   -1.1426 C.3       1 <0>        -0.1022
     15 H2         -5.7580    5.6650   -1.4159 H         1 <0>         0.1021
     16 C10        -7.3164    4.5700   -0.2003 C.3       1 <0>        -0.1251
     17 C11        -7.8379    3.1255   -0.3762 C.3       1 <0>        -0.1169
     18 C12        -6.8501    2.4732   -1.4345 C.3       1 <0>        -0.1121
     19 H3         -7.2065    1.5809   -1.9491 H         1 <0>         0.1084
     20 C13        -6.5186    3.7263   -2.3251 C.3       1 <0>        -0.1267
     21 C14        -1.4643   -2.0469    0.2363 C.3       1 <0>        -0.1220
     22 H4          1.0039    1.9031    0.0027 H         1 <0>         0.0694
     23 H5         -0.5459    1.8868   -0.8726 H         1 <0>         0.0593
     24 H6         -0.5289    1.8773    0.9072 H         1 <0>         0.0585
     25 H7          0.5123   -0.3556   -0.8948 H         1 <0>         0.0877
     26 H8          0.7568   -1.6008    1.2356 H         1 <0>         0.0630
     27 H9          1.7647   -0.1336    1.2338 H         1 <0>         0.0644
     28 H10         0.2319   -0.1594    2.1383 H         1 <0>         0.0731
     29 H11        -4.6346    1.4880   -2.3971 H         1 <0>         0.4233
     30 H12        -4.9279    4.0031    0.6046 H         1 <0>         0.0790
     31 H13        -4.0329    3.8946   -0.9425 H         1 <0>         0.0699
     32 H14        -7.0203    4.7437    0.8343 H         1 <0>         0.0690
     33 H15        -8.0775    5.2885   -0.5043 H         1 <0>         0.0673
     34 H16        -7.7982    2.5891    0.5719 H         1 <0>         0.0704
     35 H17        -8.8555    3.1339   -0.7668 H         1 <0>         0.0723
     36 H18        -7.4013    4.1073   -2.8388 H         1 <0>         0.0777
     37 H19        -5.7007    3.5303   -3.0183 H         1 <0>         0.0689
     38 H20        -1.0001   -2.2824    1.1940 H         1 <0>         0.0904
     39 H21        -2.4980   -2.3927    0.2388 H         1 <0>         0.0670
     40 H22        -0.9169   -2.5438   -0.5647 H         1 <0>         0.0769
@<TRIPOS>BOND
     1    1    2 1
     2    1   22 1
     3    1   23 1
     4    1   24 1
     5    2    3 1
     6    2    4 1
     7    2   25 1
     8    3   26 1
     9    3   27 1
    10    3   28 1
    11    4    9 1
    12    4    5 1
    13    4   21 1
    14    5    6 2
    15    5    7 1
    16    7    8 2
    17    8    9 1
    18    8   10 1
    19   10   11 1
    20   10   29 1
    21   11   12 1
    22   11   18 1
    23   11   13 1
    24   13   14 1
    25   13   30 1
    26   13   31 1
    27   14   15 1
    28   14   20 1
    29   14   16 1
    30   16   17 1
    31   16   32 1
    32   16   33 1
    33   17   18 1
    34   17   34 1
    35   17   35 1
    36   18   19 1
    37   18   20 1
    38   20   36 1
    39   20   37 1
    40   21   38 1
    41   21   39 1
    42   21   40 1
@<TRIPOS>MOLECULE
ZINC43203373
   41    43     0     0     0
SMALL
USER_CHARGES

@<TRIPOS>ATOM
      1 C1         -0.0187    1.5258    0.0104 C.3       1 <0>        -0.1595
      2 C2          0.0021   -0.0041    0.0020 C.3       1 <0>        -0.0720
      3 C3          0.7421   -0.5109    1.2415 C.3       1 <0>        -0.1743
      4 C4         -1.4333   -0.5336    0.0129 C.3       1 <0>        -0.0725
      5 C5         -1.4686   -2.0438    0.2191 C.2       1 <0>         0.5284
      6 O1         -0.9784   -2.8406   -0.5571 O.2       1 <0>        -0.3912
      7 N1         -2.0829   -2.3906    1.3217 N.am      1 <0>        -0.6429
      8 C6         -2.6185   -1.5353    2.1730 C.cat     1 <0>         0.4275
      9 S1         -2.3332   -0.0067    1.5289 S.3       1 <0>         0.1702
     10 N2         -3.2696   -1.8299    3.3347 N.pl3     1 <0>        -0.5780
     11 C7         -3.4313   -3.2254    3.7503 C.3       1 <0>         0.0931
     12 H1         -3.5604   -3.8679    2.8793 H         1 <0>         0.1099
     13 C8         -2.2123   -3.6845    4.5826 C.3       1 <0>        -0.1417
     14 C9         -2.8048   -4.0604    5.9751 C.3       1 <0>        -0.0958
     15 H2         -2.0965   -4.0856    6.8032 H         1 <0>         0.1149
     16 C10        -3.6005   -5.3766    5.7183 C.3       1 <0>        -0.1310
     17 C11        -4.8223   -4.9373    4.8794 C.3       1 <0>        -0.1184
     18 C12        -4.6474   -3.3676    4.7157 C.3       1 <0>        -0.1059
     19 H3         -5.5395   -2.8030    4.4447 H         1 <0>         0.1204
     20 C13        -3.9673   -3.0119    6.0883 C.3       1 <0>        -0.1303
     21 C14        -2.1853   -0.1234   -1.2549 C.3       1 <0>        -0.1389
     22 H4          1.0039    1.9031    0.0027 H         1 <0>         0.0871
     23 H5         -0.5459    1.8868   -0.8726 H         1 <0>         0.0756
     24 H6         -0.5289    1.8773    0.9072 H         1 <0>         0.0637
     25 H7          0.5123   -0.3556   -0.8948 H         1 <0>         0.1223
     26 H8          0.2319   -0.1594    2.1383 H         1 <0>         0.0653
     27 H9          0.7568   -1.6008    1.2356 H         1 <0>         0.0547
     28 H10         1.7647   -0.1336    1.2338 H         1 <0>         0.0920
     29 H11        -3.6255   -1.1154    3.8858 H         1 <0>         0.4516
     30 H12        -1.7434   -4.5540    4.1219 H         1 <0>         0.0918
     31 H13        -1.4927   -2.8719    4.6827 H         1 <0>         0.0814
     32 H14        -2.9908   -6.0862    5.1590 H         1 <0>         0.0731
     33 H15        -3.9252   -5.8145    6.6622 H         1 <0>         0.0787
     34 H16        -4.8133   -5.4310    3.9077 H         1 <0>         0.0726
     35 H17        -5.7477   -5.1593    5.4108 H         1 <0>         0.0853
     36 H18        -4.6227   -3.2180    6.9345 H         1 <0>         0.0923
     37 H19        -3.5939   -1.9880    6.1063 H         1 <0>         0.0729
     38 H20        -1.6728   -0.5273   -2.1280 H         1 <0>         0.1102
     39 H21        -3.2019   -0.5148   -1.2170 H         1 <0>         0.0827
     40 H22        -2.2169    0.9640   -1.3228 H         1 <0>         0.1059
     41 H23        -2.1485   -3.3364    1.5266 H         1 <0>         0.4285
@<TRIPOS>BOND
     1    1    2 1
     2    1   22 1
     3    1   23 1
     4    1   24 1
     5    2    3 1
     6    2    4 1
     7    2   25 1
     8    3   26 1
     9    3   27 1
    10    3   28 1
    11    4    9 1
    12    4    5 1
    13    4   21 1
    14    5    6 2
    15    5    7 am
    16    7    8 2
    17    7   41 1
    18    8    9 1
    19    8   10 1
    20   10   11 1
    21   10   29 1
    22   11   12 1
    23   11   18 1
    24   11   13 1
    25   13   14 1
    26   13   30 1
    27   13   31 1
    28   14   15 1
    29   14   20 1
    30   14   16 1
    31   16   17 1
    32   16   32 1
    33   16   33 1
    34   17   18 1
    35   17   34 1
    36   17   35 1
    37   18   19 1
    38   18   20 1
    39   20   36 1
    40   20   37 1
    41   21   38 1
    42   21   39 1
    43   21   40 1
@<TRIPOS>MOLECULE
ZINC16320090
   53    57     0     0     0
SMALL
USER_CHARGES
[(5R,7S)-3-phenyl-1-adamantyl]-(1-piperidyl)methanone
@<TRIPOS>ATOM
      1 C1          0.2891    8.1487    5.9164 C.ar      1 <0>        -0.1248
      2 C2         -0.9890    7.9362    6.3981 C.ar      1 <0>        -0.1171
      3 C3         -1.9134    7.2551    5.6283 C.ar      1 <0>        -0.1142
      4 C4         -1.5597    6.7870    4.3767 C.ar      1 <0>        -0.0686
      5 C5         -0.2800    6.9950    3.8971 C.ar      1 <0>        -0.1225
      6 C6          0.6431    7.6798    4.6651 C.ar      1 <0>        -0.1171
      7 C7         -2.5674    6.0445    3.5374 C.3       1 <0>        -0.0086
      8 C8         -3.0285    4.7912    4.2841 C.3       1 <0>        -0.1012
      9 C9         -4.0516    4.0374    3.4321 C.3       1 <0>        -0.0835
     10 H1         -4.3831    3.1364    3.9690 H         1 <0>         0.0778
     11 C10        -5.2556    4.9419    3.1618 C.3       1 <0>        -0.1113
     12 C11        -4.7946    6.1952    2.4151 C.3       1 <0>        -0.0863
     13 H2         -5.6603    6.8454    2.2207 H         1 <0>         0.0773
     14 C12        -3.7715    6.9490    3.2672 C.3       1 <0>        -0.1005
     15 C13        -4.1525    5.7902    1.0867 C.3       1 <0>        -0.0881
     16 C14        -2.9485    4.8857    1.3570 C.3       1 <0>        -0.0666
     17 C15        -3.4096    3.6324    2.1036 C.3       1 <0>        -0.1180
     18 C16        -1.9254    5.6395    2.2090 C.3       1 <0>        -0.1128
     19 C17        -2.3161    4.4868    0.0485 C.2       1 <0>         0.5258
     20 O1         -2.7599    4.9162   -0.9953 O.2       1 <0>        -0.5374
     21 N1         -1.2574    3.6528    0.0383 N.am      1 <0>        -0.6086
     22 C18        -0.7026    3.1630   -1.2309 C.3       1 <0>         0.1071
     23 C19        -0.6446    1.6328   -1.1858 C.3       1 <0>        -0.1348
     24 C20         0.1375    1.1923    0.0537 C.3       1 <0>        -0.1212
     25 C21        -0.5790    1.6858    1.3128 C.3       1 <0>        -0.1387
     26 C22        -0.6359    3.2166    1.2962 C.3       1 <0>         0.0764
     27 H3          1.0111    8.6815    6.5176 H         1 <0>         0.1200
     28 H4         -1.2656    8.3025    7.3757 H         1 <0>         0.1209
     29 H5         -2.9120    7.0890    6.0047 H         1 <0>         0.1205
     30 H6         -0.0024    6.6254    2.9210 H         1 <0>         0.1227
     31 H7          1.6416    7.8462    4.2887 H         1 <0>         0.1204
     32 H8         -2.1629    4.1409    4.4784 H         1 <0>         0.0651
     33 H9         -3.4901    5.0824    5.2392 H         1 <0>         0.0697
     34 H10        -5.9912    4.3999    2.5492 H         1 <0>         0.0648
     35 H11        -5.7172    5.2331    4.1168 H         1 <0>         0.0657
     36 H12        -4.2331    7.2401    4.2223 H         1 <0>         0.0676
     37 H13        -3.4401    7.8502    2.7305 H         1 <0>         0.0656
     38 H14        -4.8880    5.2483    0.4741 H         1 <0>         0.0701
     39 H15        -3.8210    6.6913    0.5499 H         1 <0>         0.0705
     40 H16        -2.5440    2.9821    2.2979 H         1 <0>         0.0824
     41 H17        -4.1452    3.0905    1.4910 H         1 <0>         0.0693
     42 H18        -1.5939    6.5406    1.6722 H         1 <0>         0.0727
     43 H19        -1.0597    4.9892    2.4033 H         1 <0>         0.0841
     44 H20        -1.3462    3.4875   -2.0619 H         1 <0>         0.0925
     45 H21         0.3095    3.5706   -1.3703 H         1 <0>         0.0664
     46 H22        -1.6665    1.2284   -1.1392 H         1 <0>         0.0666
     47 H23        -0.1428    1.2581   -2.0901 H         1 <0>         0.0761
     48 H24         0.2019    0.0944    0.0756 H         1 <0>         0.0670
     49 H25         1.1510    1.6184    0.0184 H         1 <0>         0.0651
     50 H26        -1.6010    1.2797    1.3361 H         1 <0>         0.0693
     51 H27        -0.0297    1.3475    2.2037 H         1 <0>         0.0771
     52 H28         0.3818    3.6285    1.3645 H         1 <0>         0.0691
     53 H29        -1.2350    3.5769    2.1455 H         1 <0>         0.1159
@<TRIPOS>BOND
     1    1    6 ar
     2    1    2 ar
     3    1   27 1
     4    2    3 ar
     5    2   28 1
     6    3    4 ar
     7    3   29 1
     8    4    5 ar
     9    4    7 1
    10    5    6 ar
    11    5   30 1
    12    6   31 1
    13    7   14 1
    14    7   18 1
    15    7    8 1
    16    8    9 1
    17    8   32 1
    18    8   33 1
    19    9   10 1
    20    9   17 1
    21    9   11 1
    22   11   12 1
    23   11   34 1
    24   11   35 1
    25   12   13 1
    26   12   14 1
    27   12   15 1
    28   14   36 1
    29   14   37 1
    30   15   16 1
    31   15   38 1
    32   15   39 1
    33   16   17 1
    34   16   18 1
    35   16   19 1
    36   17   40 1
    37   17   41 1
    38   18   42 1
    39   18   43 1
    40   19   20 2
    41   19   21 am
    42   21   26 1
    43   21   22 1
    44   22   23 1
    45   22   44 1
    46   22   45 1
    47   23   24 1
    48   23   46 1
    49   23   47 1
    50   24   25 1
    51   24   48 1
    52   24   49 1
    53   25   26 1
    54   25   50 1
    55   25   51 1
    56   26   52 1
    57   26   53 1
@<TRIPOS>MOLECULE
ZINC01335394
   41    43     0     0     0
SMALL
USER_CHARGES

@<TRIPOS>ATOM
      1 C1          7.3362    1.5021   -0.1151 C.ar      1 <0>        -0.0962
      2 C2          6.3412    1.8527    0.7801 C.ar      1 <0>        -0.1230
      3 C3          5.1563    1.1467    0.8104 C.ar      1 <0>        -0.0665
      4 C4          4.9625    0.0766   -0.0645 C.ar      1 <0>        -0.1315
      5 C5          5.9704   -0.2718   -0.9651 C.ar      1 <0>        -0.0923
      6 C6          7.1505    0.4424   -0.9851 C.ar      1 <0>        -0.1255
      7 C7          3.6955   -0.6847   -0.0372 C.2       1 <0>         0.5627
      8 O1          2.6371   -0.0992    0.0836 O.2       1 <0>        -0.5297
      9 N1          3.7139   -2.0279   -0.1463 N.am      1 <0>        -0.6093
     10 C8          2.4609   -2.7873   -0.2555 C.3       1 <0>         0.1121
     11 C9          2.4451   -3.8709    0.8273 C.3       1 <0>        -0.1222
     12 C10         3.7098   -4.7244    0.7077 C.3       1 <0>        -0.1319
     13 C11         4.9433   -3.8444    0.9229 C.3       1 <0>        -0.1245
     14 C12         4.9876   -2.7601   -0.1645 C.3       1 <0>         0.1000
     15 C13         3.6815   -5.8126    1.7497 C.2       1 <0>         0.4033
     16 O2          3.0376   -5.6621    2.7664 O.2       1 <0>        -0.4417
     17 C14         4.4344   -7.0568    1.5339 C.ar      1 <0>        -0.1831
     18 C15         5.1830   -7.2313    0.3646 C.ar      1 <0>        -0.0438
     19 C16         5.8862   -8.3995    0.1685 C.ar      1 <0>        -0.1661
     20 C17         5.8530   -9.4018    1.1270 C.ar      1 <0>         0.1332
     21 C18         5.1129   -9.2351    2.2883 C.ar      1 <0>        -0.1654
     22 C19         4.4102   -8.0693    2.4996 C.ar      1 <0>        -0.0309
     23 F1          6.5441  -10.5454    0.9282 F         1 <0>        -0.1313
     24 H1          8.2601    2.0608   -0.1378 H         1 <0>         0.1284
     25 H2          6.4925    2.6806    1.4569 H         1 <0>         0.1309
     26 H3          4.3805    1.4211    1.5099 H         1 <0>         0.1312
     27 H4          5.8268   -1.0990   -1.6445 H         1 <0>         0.1303
     28 H5          7.9312    0.1738   -1.6814 H         1 <0>         0.1303
     29 H6          1.6135   -2.1166   -0.1136 H         1 <0>         0.0994
     30 H7          2.4003   -3.2529   -1.2392 H         1 <0>         0.0726
     31 H8          2.4143   -3.4020    1.8108 H         1 <0>         0.0800
     32 H9          1.5664   -4.5025    0.6971 H         1 <0>         0.0816
     33 H10         3.7526   -5.1732   -0.2847 H         1 <0>         0.1021
     34 H11         4.8890   -3.3758    1.9055 H         1 <0>         0.0773
     35 H12         5.8426   -4.4572    0.8607 H         1 <0>         0.0853
     36 H13         5.1288   -3.2234   -1.1409 H         1 <0>         0.0766
     37 H14         5.8079   -2.0713    0.0376 H         1 <0>         0.1013
     38 H15         5.2091   -6.4520   -0.3827 H         1 <0>         0.1434
     39 H16         6.4643   -8.5354   -0.7335 H         1 <0>         0.1444
     40 H17         5.0912  -10.0194    3.0306 H         1 <0>         0.1441
     41 H18         3.8380   -7.9390    3.4062 H         1 <0>         0.1447
@<TRIPOS>BOND
     1    1    6 ar
     2    1    2 ar
     3    1   24 1
     4    2    3 ar
     5    2   25 1
     6    3    4 ar
     7    3   26 1
     8    4    5 ar
     9    4    7 1
    10    5    6 ar
    11    5   27 1
    12    6   28 1
    13    7    8 2
    14    7    9 am
    15    9   14 1
    16    9   10 1
    17   10   11 1
    18   10   29 1
    19   10   30 1
    20   11   12 1
    21   11   31 1
    22   11   32 1
    23   12   13 1
    24   12   15 1
    25   12   33 1
    26   13   14 1
    27   13   34 1
    28   13   35 1
    29   14   36 1
    30   14   37 1
    31   15   16 2
    32   15   17 1
    33   17   22 ar
    34   17   18 ar
    35   18   19 ar
    36   18   38 1
    37   19   20 ar
    38   19   39 1
    39   20   21 ar
    40   20   23 1
    41   21   22 ar
    42   21   40 1
    43   22   41 1
@<TRIPOS>MOLECULE
ZINC01336315
   41    43     0     0     0
SMALL
USER_CHARGES

@<TRIPOS>ATOM
      1 C1          4.0456   -4.4034   -1.1378 C.ar      1 <0>        -0.1335
      2 C2          4.9684   -4.2113   -0.1236 C.ar      1 <0>        -0.0682
      3 C3          4.6863   -3.3548    0.9237 C.ar      1 <0>        -0.1567
      4 C4          3.4780   -2.6827    0.9646 C.ar      1 <0>         0.1455
      5 C5          2.5428   -2.8727   -0.0573 C.ar      1 <0>        -0.1659
      6 C6          2.8371   -3.7407   -1.1111 C.ar      1 <0>        -0.0619
      7 C7          1.2498   -2.1599   -0.0220 C.2       1 <0>         0.5650
      8 O1          1.2258   -0.9498    0.0918 O.2       1 <0>        -0.5188
      9 N1          0.0965   -2.8509   -0.1160 N.am      1 <0>        -0.6076
     10 C8         -1.1905   -2.1493   -0.2165 C.3       1 <0>         0.1125
     11 C9         -2.1248   -2.6739    0.8784 C.3       1 <0>        -0.1228
     12 C10        -2.2288   -4.1967    0.7682 C.3       1 <0>        -0.1316
     13 C11        -0.8464   -4.8204    0.9734 C.3       1 <0>        -0.1247
     14 C12         0.1029   -4.3201   -0.1261 C.3       1 <0>         0.1056
     15 C13        -3.1739   -4.7130    1.8225 C.2       1 <0>         0.4031
     16 O2         -3.3572   -4.0749    2.8374 O.2       1 <0>        -0.4410
     17 C14        -3.8737   -5.9900    1.6205 C.ar      1 <0>        -0.1830
     18 C15        -3.6601   -6.7315    0.4531 C.ar      1 <0>        -0.0439
     19 C16        -4.3190   -7.9272    0.2701 C.ar      1 <0>        -0.1661
     20 C17        -5.1930   -8.3965    1.2398 C.ar      1 <0>         0.1331
     21 C18        -5.4093   -7.6664    2.3993 C.ar      1 <0>        -0.1653
     22 C19        -4.7520   -6.4722    2.5975 C.ar      1 <0>        -0.0309
     23 F1         -5.8368   -9.5696    1.0538 F         1 <0>        -0.1313
     24 F2          3.2023   -1.8458    1.9887 F         1 <0>        -0.1242
     25 H1          4.2753   -5.0713   -1.9549 H         1 <0>         0.1383
     26 H2          5.9132   -4.7337   -0.1508 H         1 <0>         0.1397
     27 H3          5.4105   -3.2102    1.7119 H         1 <0>         0.1440
     28 H4          2.1194   -3.8923   -1.9038 H         1 <0>         0.1382
     29 H5         -1.0347   -1.0790   -0.0820 H         1 <0>         0.0998
     30 H6         -1.6331   -2.3362   -1.1949 H         1 <0>         0.0742
     31 H7         -1.7252   -2.4063    1.8566 H         1 <0>         0.0804
     32 H8         -3.1136   -2.2318    0.7554 H         1 <0>         0.0825
     33 H9         -2.6051   -4.4646   -0.2191 H         1 <0>         0.1027
     34 H10        -0.4588   -4.5326    1.9507 H         1 <0>         0.0772
     35 H11        -0.9252   -5.9061    0.9180 H         1 <0>         0.0862
     36 H12        -0.2364   -4.6804   -1.0973 H         1 <0>         0.0784
     37 H13         1.1123   -4.6825    0.0681 H         1 <0>         0.0943
     38 H14        -2.9805   -6.3669   -0.3029 H         1 <0>         0.1434
     39 H15        -4.1551   -8.5005   -0.6304 H         1 <0>         0.1444
     40 H16        -6.0910   -8.0374    3.1503 H         1 <0>         0.1441
     41 H17        -4.9178   -5.9069    3.5027 H         1 <0>         0.1448
@<TRIPOS>BOND
     1    1    6 ar
     2    1    2 ar
     3    1   25 1
     4    2    3 ar
     5    2   26 1
     6    3    4 ar
     7    3   27 1
     8    4    5 ar
     9    4   24 1
    10    5    6 ar
    11    5    7 1
    12    6   28 1
    13    7    8 2
    14    7    9 am
    15    9   14 1
    16    9   10 1
    17   10   11 1
    18   10   29 1
    19   10   30 1
    20   11   12 1
    21   11   31 1
    22   11   32 1
    23   12   13 1
    24   12   15 1
    25   12   33 1
    26   13   14 1
    27   13   34 1
    28   13   35 1
    29   14   36 1
    30   14   37 1
    31   15   16 2
    32   15   17 1
    33   17   22 ar
    34   17   18 ar
    35   18   19 ar
    36   18   38 1
    37   19   20 ar
    38   19   39 1
    39   20   21 ar
    40   20   23 1
    41   21   22 ar
    42   21   40 1
    43   22   41 1
@<TRIPOS>MOLECULE
ZINC01336299
   44    46     0     0     0
SMALL
USER_CHARGES
[4-(4-fluorobenzoyl)-1-piperidyl]-(p-tolyl)methanone
@<TRIPOS>ATOM
      1 C1        -11.8143   -0.8705   -1.6473 C.3       1 <0>        -0.1215
      2 C2        -10.7375   -0.1649   -0.8639 C.ar      1 <0>        -0.0596
      3 C3        -11.0002    0.2831    0.4186 C.ar      1 <0>        -0.1263
      4 C4        -10.0189    0.9298    1.1412 C.ar      1 <0>        -0.0585
      5 C5         -8.7587    1.1313    0.5759 C.ar      1 <0>        -0.1403
      6 C6         -8.5018    0.6812   -0.7200 C.ar      1 <0>        -0.0892
      7 C7         -9.4904    0.0317   -1.4300 C.ar      1 <0>        -0.1287
      8 C8         -7.7025    1.8240    1.3443 C.2       1 <0>         0.5641
      9 O1         -7.9951    2.7326    2.0968 O.2       1 <0>        -0.5323
     10 N1         -6.4152    1.4479    1.2105 N.am      1 <0>        -0.6094
     11 C9         -6.0584    0.2745    0.4014 C.3       1 <0>         0.0930
     12 C10        -5.2077   -0.6721    1.2539 C.3       1 <0>        -0.1254
     13 C11        -4.0070    0.0931    1.8151 C.3       1 <0>        -0.1228
     14 C12        -4.4996    1.2352    2.7068 C.3       1 <0>        -0.1249
     15 C13        -5.3420    2.2037    1.8706 C.3       1 <0>         0.1136
     16 C14        -3.1494   -0.8434    2.6266 C.2       1 <0>         0.4026
     17 O2         -3.6391   -1.8331    3.1279 O.2       1 <0>        -0.4418
     18 C15        -1.7192   -0.5572    2.8104 C.ar      1 <0>        -0.1839
     19 C16        -0.9200   -1.4248    3.5634 C.ar      1 <0>        -0.0305
     20 C17         0.4205   -1.1536    3.7274 C.ar      1 <0>        -0.1656
     21 C18         0.9776   -0.0209    3.1521 C.ar      1 <0>         0.1337
     22 C19         0.1899    0.8460    2.4089 C.ar      1 <0>        -0.1660
     23 C20        -1.1520    0.5868    2.2376 C.ar      1 <0>        -0.0432
     24 F1          2.2932    0.2389    3.3160 F         1 <0>        -0.1312
     25 H1        -12.3886   -0.1389   -2.2156 H         1 <0>         0.0759
     26 H2        -11.3567   -1.5845   -2.3320 H         1 <0>         0.0703
     27 H3        -12.4763   -1.3983   -0.9609 H         1 <0>         0.0703
     28 H4        -11.9757    0.1265    0.8548 H         1 <0>         0.1305
     29 H5        -10.2252    1.2790    2.1421 H         1 <0>         0.1324
     30 H6         -7.5302    0.8379   -1.1647 H         1 <0>         0.1338
     31 H7         -9.2918   -0.3204   -2.4315 H         1 <0>         0.1300
     32 H8         -5.4880    0.5924   -0.4714 H         1 <0>         0.0750
     33 H9         -6.9655   -0.2379    0.0809 H         1 <0>         0.1053
     34 H10        -4.8560   -1.4997    0.6378 H         1 <0>         0.0825
     35 H11        -5.8086   -1.0600    2.0765 H         1 <0>         0.0811
     36 H12        -3.4687    0.4685    1.0606 H         1 <0>         0.0928
     37 H13        -5.1073    0.8291    3.5155 H         1 <0>         0.0773
     38 H14        -3.6439    1.7653    3.1249 H         1 <0>         0.0852
     39 H15        -4.7132    2.6788    1.1176 H         1 <0>         0.0739
     40 H16        -5.7765    2.9641    2.5196 H         1 <0>         0.1010
     41 H17        -1.3524   -2.3074    4.0112 H         1 <0>         0.1449
     42 H18         1.0392   -1.8245    4.3049 H         1 <0>         0.1442
     43 H19         0.6297    1.7263    1.9640 H         1 <0>         0.1445
     44 H20        -1.7642    1.2625    1.6588 H         1 <0>         0.1432
@<TRIPOS>BOND
     1    1    2 1
     2    1   25 1
     3    1   26 1
     4    1   27 1
     5    2    7 ar
     6    2    3 ar
     7    3    4 ar
     8    3   28 1
     9    4    5 ar
    10    4   29 1
    11    5    6 ar
    12    5    8 1
    13    6    7 ar
    14    6   30 1
    15    7   31 1
    16    8    9 2
    17    8   10 am
    18   10   15 1
    19   10   11 1
    20   11   12 1
    21   11   32 1
    22   11   33 1
    23   12   13 1
    24   12   34 1
    25   12   35 1
    26   13   14 1
    27   13   16 1
    28   13   36 1
    29   14   15 1
    30   14   37 1
    31   14   38 1
    32   15   39 1
    33   15   40 1
    34   16   17 2
    35   16   18 1
    36   18   23 ar
    37   18   19 ar
    38   19   20 ar
    39   19   41 1
    40   20   21 ar
    41   20   42 1
    42   21   22 ar
    43   21   24 1
    44   22   23 ar
    45   22   43 1
    46   23   44 1
@<TRIPOS>MOLECULE
ZINC01336781
   44    46     0     0     0
SMALL
USER_CHARGES
[4-(4-fluorobenzoyl)-1-piperidyl]-(o-tolyl)methanone
@<TRIPOS>ATOM
      1 C1          0.5859    1.1371   -2.1710 C.3       1 <0>        -0.1182
      2 C2          0.2513    2.0459   -1.0163 C.ar      1 <0>        -0.0358
      3 C3         -0.9563    2.7128   -0.9888 C.ar      1 <0>        -0.1233
      4 C4         -1.2669    3.5437    0.0728 C.ar      1 <0>        -0.0946
      5 C5         -0.3658    3.7201    1.1081 C.ar      1 <0>        -0.1294
      6 C6          0.8471    3.0633    1.0902 C.ar      1 <0>        -0.0893
      7 C7          1.1646    2.2193    0.0245 C.ar      1 <0>        -0.1315
      8 C8          2.4629    1.5126   -0.0014 C.2       1 <0>         0.5661
      9 O1          2.4943    0.3031   -0.1182 O.2       1 <0>        -0.5263
     10 N1          3.6117    2.2094    0.1044 N.am      1 <0>        -0.6083
     11 C9          3.5887    3.6606    0.3330 C.3       1 <0>         0.1011
     12 C10         4.4342    4.3466   -0.7384 C.3       1 <0>        -0.1256
     13 C11         5.8365    3.7337   -0.7484 C.3       1 <0>        -0.1224
     14 C12         5.7416    2.2440   -1.0860 C.3       1 <0>        -0.1242
     15 C13         4.9109    1.5333   -0.0128 C.3       1 <0>         0.1121
     16 C14         6.6812    4.4303   -1.7839 C.2       1 <0>         0.4024
     17 O2          6.7122    4.0128   -2.9220 O.2       1 <0>        -0.4410
     18 C15         7.4678    5.6161   -1.4143 C.ar      1 <0>        -0.1838
     19 C16         7.4299    6.1039   -0.1032 C.ar      1 <0>        -0.0433
     20 C17         8.1734    7.2122    0.2378 C.ar      1 <0>        -0.1661
     21 C18         8.9500    7.8510   -0.7178 C.ar      1 <0>         0.1336
     22 C19         8.9879    7.3758   -2.0205 C.ar      1 <0>        -0.1655
     23 C20         8.2533    6.2653   -2.3734 C.ar      1 <0>        -0.0305
     24 F1          9.6721    8.9412   -0.3784 F         1 <0>        -0.1312
     25 H1          0.3271    0.1104   -1.9121 H         1 <0>         0.0817
     26 H2          0.0198    1.4437   -3.0506 H         1 <0>         0.0693
     27 H3          1.6527    1.1998   -2.3854 H         1 <0>         0.0655
     28 H4         -1.6622    2.5827   -1.7957 H         1 <0>         0.1301
     29 H5         -2.2152    4.0603    0.0916 H         1 <0>         0.1282
     30 H6         -0.6125    4.3736    1.9317 H         1 <0>         0.1296
     31 H7          1.5496    3.2021    1.8986 H         1 <0>         0.1281
     32 H8          2.5625    4.0234    0.2745 H         1 <0>         0.0999
     33 H9          4.0012    3.8820    1.3173 H         1 <0>         0.0760
     34 H10         4.5045    5.4124   -0.5210 H         1 <0>         0.0857
     35 H11         3.9678    4.2037   -1.7132 H         1 <0>         0.0776
     36 H12         6.2551    3.8446    0.1530 H         1 <0>         0.0920
     37 H13         6.7424    1.8133   -1.1158 H         1 <0>         0.0821
     38 H14         5.2629    2.1209   -2.0574 H         1 <0>         0.0806
     39 H15         5.4334    1.5777    0.9427 H         1 <0>         0.0724
     40 H16         4.7568    0.4923   -0.2970 H         1 <0>         0.0995
     41 H17         6.8222    5.6100    0.6407 H         1 <0>         0.1432
     42 H18         8.1482    7.5872    1.2503 H         1 <0>         0.1445
     43 H19         9.5945    7.8777   -2.7597 H         1 <0>         0.1443
     44 H20         8.2831    5.8967   -3.3881 H         1 <0>         0.1449
@<TRIPOS>BOND
     1    1    2 1
     2    1   25 1
     3    1   26 1
     4    1   27 1
     5    2    7 ar
     6    2    3 ar
     7    3    4 ar
     8    3   28 1
     9    4    5 ar
    10    4   29 1
    11    5    6 ar
    12    5   30 1
    13    6    7 ar
    14    6   31 1
    15    7    8 1
    16    8    9 2
    17    8   10 am
    18   10   15 1
    19   10   11 1
    20   11   12 1
    21   11   32 1
    22   11   33 1
    23   12   13 1
    24   12   34 1
    25   12   35 1
    26   13   14 1
    27   13   16 1
    28   13   36 1
    29   14   15 1
    30   14   37 1
    31   14   38 1
    32   15   39 1
    33   15   40 1
    34   16   17 2
    35   16   18 1
    36   18   23 ar
    37   18   19 ar
    38   19   20 ar
    39   19   41 1
    40   20   21 ar
    41   20   42 1
    42   21   22 ar
    43   21   24 1
    44   22   23 ar
    45   22   43 1
    46   23   44 1
@<TRIPOS>MOLECULE
ZINC01336325
   41    43     0     0     0
SMALL
USER_CHARGES
[1-(4-chlorobenzoyl)-4-piperidyl]-(4-fluorophenyl)-methanone
@<TRIPOS>ATOM
      1 C1          7.4512    5.7754    1.2070 C.ar      1 <0>        -0.0434
      2 C2          8.8180    5.9078    1.0989 C.ar      1 <0>        -0.1661
      3 C3          9.5701    6.2905    2.1999 C.ar      1 <0>         0.1338
      4 C4          8.9515    6.5480    3.4146 C.ar      1 <0>        -0.1655
      5 C5          7.5848    6.4245    3.5348 C.ar      1 <0>        -0.0304
      6 C6          6.8203    6.0388    2.4280 C.ar      1 <0>        -0.1841
      7 C7          5.3612    5.9050    2.5490 C.2       1 <0>         0.4023
      8 O1          4.8177    6.1291    3.6097 O.2       1 <0>        -0.4408
      9 C8          4.5410    5.4894    1.3550 C.3       1 <0>        -0.1226
     10 C9          3.1452    6.1089    1.4548 C.3       1 <0>        -0.1248
     11 C10         2.3257    5.7124    0.2227 C.3       1 <0>         0.1123
     12 N1          2.3289    4.2480    0.1039 N.am      1 <0>        -0.6067
     13 C11         3.6177    3.5426    0.0960 C.3       1 <0>         0.0975
     14 C12         4.4229    3.9639    1.3240 C.3       1 <0>        -0.1263
     15 C13         1.1713    3.5642    0.0095 C.2       1 <0>         0.5636
     16 O2          0.1147    4.1626   -0.0471 O.2       1 <0>        -0.5250
     17 C14         1.1865    2.0868   -0.0251 C.ar      1 <0>        -0.1234
     18 C15         0.3661    1.3571    0.8373 C.ar      1 <0>        -0.0564
     19 C16         0.3843   -0.0212    0.8001 C.ar      1 <0>        -0.1110
     20 C17         1.2146   -0.6818   -0.0902 C.ar      1 <0>        -0.0164
     21 C18         2.0308    0.0367   -0.9482 C.ar      1 <0>        -0.1136
     22 C19         2.0213    1.4153   -0.9203 C.ar      1 <0>        -0.0809
     23 Cl1         1.2329   -2.4173   -0.1304 Cl        1 <0>        -0.0589
     24 F1         10.9110    6.4126    2.0889 F         1 <0>        -0.1310
     25 H1          6.8673    5.4730    0.3502 H         1 <0>         0.1432
     26 H2          9.3058    5.7088    0.1561 H         1 <0>         0.1445
     27 H3          9.5427    6.8456    4.2680 H         1 <0>         0.1443
     28 H4          7.1045    6.6245    4.4812 H         1 <0>         0.1450
     29 H5          4.9869    5.8061    0.5178 H         1 <0>         0.0924
     30 H6          3.2314    7.1945    1.5004 H         1 <0>         0.0828
     31 H7          2.6489    5.7448    2.3543 H         1 <0>         0.0812
     32 H8          2.7712    6.1524   -0.6695 H         1 <0>         0.0740
     33 H9          1.3014    6.0677    0.3353 H         1 <0>         0.1003
     34 H10         3.4456    2.4667    0.1251 H         1 <0>         0.1008
     35 H11         4.1707    3.8020   -0.8067 H         1 <0>         0.0783
     36 H12         5.4186    3.5228    1.2765 H         1 <0>         0.0866
     37 H13         3.9147    3.6199    2.2248 H         1 <0>         0.0783
     38 H14        -0.2848    1.8712    1.5291 H         1 <0>         0.1409
     39 H15        -0.2499   -0.5868    1.4667 H         1 <0>         0.1427
     40 H16         2.6761   -0.4839   -1.6403 H         1 <0>         0.1422
     41 H17         2.6586    1.9745   -1.5893 H         1 <0>         0.1402
@<TRIPOS>BOND
     1    1    6 ar
     2    1    2 ar
     3    1   25 1
     4    2    3 ar
     5    2   26 1
     6    3    4 ar
     7    3   24 1
     8    4    5 ar
     9    4   27 1
    10    5    6 ar
    11    5   28 1
    12    6    7 1
    13    7    8 2
    14    7    9 1
    15    9   14 1
    16    9   10 1
    17    9   29 1
    18   10   11 1
    19   10   30 1
    20   10   31 1
    21   11   12 1
    22   11   32 1
    23   11   33 1
    24   12   13 1
    25   12   15 am
    26   13   14 1
    27   13   34 1
    28   13   35 1
    29   14   36 1
    30   14   37 1
    31   15   16 2
    32   15   17 1
    33   17   22 ar
    34   17   18 ar
    35   18   19 ar
    36   18   38 1
    37   19   20 ar
    38   19   39 1
    39   20   21 ar
    40   20   23 1
    41   21   22 ar
    42   21   40 1
    43   22   41 1
@<TRIPOS>MOLECULE
ZINC01337060
   41    43     0     0     0
SMALL
USER_CHARGES
[1-(3,4-difluorobenzoyl)-4-piperidyl]-(4-fluorophenyl)-methanone
@<TRIPOS>ATOM
      1 C1         -0.9238   -1.4284    3.5686 C.ar      1 <0>        -0.0303
      2 C2          0.4168   -1.1582    3.7331 C.ar      1 <0>        -0.1656
      3 C3          0.9749   -0.0258    3.1582 C.ar      1 <0>         0.1341
      4 C4          0.1882    0.8415    2.4145 C.ar      1 <0>        -0.1661
      5 C5         -1.1538    0.5830    2.2422 C.ar      1 <0>        -0.0433
      6 C6         -1.7219   -0.5606    2.8147 C.ar      1 <0>        -0.1845
      7 C7         -3.1522   -0.8460    2.6299 C.2       1 <0>         0.4026
      8 O1         -3.6429   -1.8353    3.1313 O.2       1 <0>        -0.4414
      9 C8         -4.0086    0.0907    1.8174 C.3       1 <0>        -0.1231
     10 C9         -4.5012    1.2334    2.7083 C.3       1 <0>        -0.1259
     11 C10        -5.3424    2.2020    1.8711 C.3       1 <0>         0.1140
     12 N1         -6.4156    1.4466    1.2105 N.am      1 <0>        -0.6067
     13 C11        -6.0589    0.2727    0.4021 C.3       1 <0>         0.0906
     14 C12        -5.2094   -0.6741    1.2557 C.3       1 <0>        -0.1262
     15 C13        -7.7028    1.8235    1.3432 C.2       1 <0>         0.5658
     16 O2         -7.9954    2.7328    2.0952 O.2       1 <0>        -0.5230
     17 C14        -8.7580    1.1317    0.5750 C.ar      1 <0>        -0.1149
     18 C15        -8.4999    0.6820   -0.7217 C.ar      1 <0>        -0.0751
     19 C16        -9.4856    0.0318   -1.4330 C.ar      1 <0>        -0.1305
     20 C17       -10.7359   -0.1661   -0.8685 C.ar      1 <0>         0.0940
     21 C18       -11.0009    0.2835    0.4180 C.ar      1 <0>         0.0666
     22 C19       -10.0185    0.9303    1.1409 C.ar      1 <0>        -0.0703
     23 F1        -12.2213    0.0874    0.9634 F         1 <0>        -0.1207
     24 F2        -11.6999   -0.7990   -1.5724 F         1 <0>        -0.1203
     25 F3          2.2906    0.2333    3.3229 F         1 <0>        -0.1310
     26 H1         -1.3571   -2.3103    4.0167 H         1 <0>         0.1449
     27 H2          1.0349   -1.8296    4.3106 H         1 <0>         0.1443
     28 H3          0.6288    1.7216    1.9698 H         1 <0>         0.1446
     29 H4         -1.7651    1.2589    1.6627 H         1 <0>         0.1432
     30 H5         -3.4697    0.4652    1.0629 H         1 <0>         0.0936
     31 H6         -5.1097    0.8280    3.5167 H         1 <0>         0.0782
     32 H7         -3.6455    1.7632    3.1268 H         1 <0>         0.0867
     33 H8         -4.7128    2.6764    1.1184 H         1 <0>         0.0768
     34 H9         -5.7769    2.9629    2.5194 H         1 <0>         0.1026
     35 H10        -5.4877    0.5898   -0.4704 H         1 <0>         0.0796
     36 H11        -6.9660   -0.2393    0.0812 H         1 <0>         0.1031
     37 H12        -4.8577   -1.5021    0.6402 H         1 <0>         0.0844
     38 H13        -5.8111   -1.0613    2.0779 H         1 <0>         0.0823
     39 H14        -7.5277    0.8393   -1.1649 H         1 <0>         0.1530
     40 H15        -9.2845   -0.3202   -2.4340 H         1 <0>         0.1564
     41 H16       -10.2246    1.2800    2.1417 H         1 <0>         0.1573
@<TRIPOS>BOND
     1    1    6 ar
     2    1    2 ar
     3    1   26 1
     4    2    3 ar
     5    2   27 1
     6    3    4 ar
     7    3   25 1
     8    4    5 ar
     9    4   28 1
    10    5    6 ar
    11    5   29 1
    12    6    7 1
    13    7    8 2
    14    7    9 1
    15    9   14 1
    16    9   10 1
    17    9   30 1
    18   10   11 1
    19   10   31 1
    20   10   32 1
    21   11   12 1
    22   11   33 1
    23   11   34 1
    24   12   13 1
    25   12   15 am
    26   13   14 1
    27   13   35 1
    28   13   36 1
    29   14   37 1
    30   14   38 1
    31   15   16 2
    32   15   17 1
    33   17   22 ar
    34   17   18 ar
    35   18   19 ar
    36   18   39 1
    37   19   20 ar
    38   19   40 1
    39   20   21 ar
    40   20   24 1
    41   21   22 ar
    42   21   23 1
    43   22   41 1
@<TRIPOS>MOLECULE
ZINC01024890
   41    43     0     0     0
SMALL
USER_CHARGES

@<TRIPOS>ATOM
      1 C1         -0.0167    1.3821    0.0096 C.ar      1 <0>        -0.0752
      2 C2          1.1937    2.0586    0.0017 C.ar      1 <0>        -0.1882
      3 C3          2.3701    1.3338   -0.0134 C.ar      1 <0>         0.1003
      4 N1          2.3500    0.0151   -0.0207 N.ar      1 <0>        -0.4803
      5 C4          1.2181   -0.6611   -0.0136 C.ar      1 <0>         0.1414
      6 C5          0.0021   -0.0041    0.0020 C.ar      1 <0>        -0.1721
      7 C6          1.2505   -2.1677   -0.0230 C.3       1 <0>        -0.0660
      8 C7          2.0769   -2.6526   -1.2158 C.3       1 <0>        -0.0608
      9 C8          2.1094   -4.1592   -1.2252 C.ar      1 <0>        -0.0504
     10 C9          3.1091   -4.8328   -0.5472 C.ar      1 <0>        -0.2179
     11 C10         3.1428   -6.2151   -0.5537 C.ar      1 <0>        -0.0666
     12 C11         2.1772   -6.9278   -1.2374 C.ar      1 <0>        -0.2662
     13 C12         1.1716   -6.2545   -1.9189 C.ar      1 <0>         0.2812
     14 C13         1.1377   -4.8657   -1.9061 C.ar      1 <0>        -0.1755
     15 N2          0.1937   -6.9722   -2.6113 N.2       1 <0>        -1.0785
     16 S1          0.2323   -8.6277   -2.6202 S.o2      1 <0>         2.5952
     17 O1          1.4032   -9.0028   -3.3327 O.2       1 <0>        -1.0269
     18 O2         -0.0141   -9.0469   -1.2850 O.2       1 <0>        -1.0106
     19 C14        -1.1391   -9.1757   -3.5813 C.ar      1 <0>        -0.6022
     20 C15        -0.9255   -9.8570   -4.7648 C.ar      1 <0>        -0.0110
     21 C16        -2.0021  -10.2872   -5.5193 C.ar      1 <0>        -0.0589
     22 C17        -3.2931  -10.0353   -5.0893 C.ar      1 <0>        -0.0631
     23 C18        -3.5066   -9.3542   -3.9062 C.ar      1 <0>        -0.1268
     24 C19        -2.4296   -8.9289   -3.1485 C.ar      1 <0>         0.0614
     25 Cl1        -2.6980   -8.0794   -1.6585 Cl        1 <0>        -0.0213
     26 Cl2        -1.7338  -11.1424   -7.0060 Cl        1 <0>        -0.0660
     27 H1         -0.9518    1.9222    0.0259 H         1 <0>         0.1310
     28 H2          1.2167    3.1384    0.0069 H         1 <0>         0.1302
     29 H3          3.3170    1.8532   -0.0197 H         1 <0>         0.1526
     30 H4         -0.9217   -0.5635    0.0082 H         1 <0>         0.1354
     31 H5          1.7018   -2.5272    0.9018 H         1 <0>         0.0848
     32 H6          0.2340   -2.5525   -0.1048 H         1 <0>         0.0824
     33 H7          1.6257   -2.2931   -2.1406 H         1 <0>         0.0620
     34 H8          3.0934   -2.2678   -1.1340 H         1 <0>         0.0744
     35 H9          3.8653   -4.2779   -0.0119 H         1 <0>         0.1009
     36 H10         3.9253   -6.7380   -0.0238 H         1 <0>         0.1001
     37 H11         2.2044   -8.0075   -1.2423 H         1 <0>         0.0939
     38 H12         0.3548   -4.3391   -2.4316 H         1 <0>         0.1098
     39 H13         0.0821  -10.0533   -5.1006 H         1 <0>         0.1564
     40 H14        -4.1336  -10.3708   -5.6786 H         1 <0>         0.1443
     41 H15        -4.5142   -9.1573   -3.5708 H         1 <0>         0.1468
@<TRIPOS>BOND
     1    1    6 ar
     2    1    2 ar
     3    1   27 1
     4    2    3 ar
     5    2   28 1
     6    3    4 ar
     7    3   29 1
     8    4    5 ar
     9    5    6 ar
    10    5    7 1
    11    6   30 1
    12    7    8 1
    13    7   31 1
    14    7   32 1
    15    8    9 1
    16    8   33 1
    17    8   34 1
    18    9   14 ar
    19    9   10 ar
    20   10   11 ar
    21   10   35 1
    22   11   12 ar
    23   11   36 1
    24   12   13 ar
    25   12   37 1
    26   13   14 ar
    27   13   15 1
    28   14   38 1
    29   15   16 1
    30   16   17 2
    31   16   18 2
    32   16   19 1
    33   19   24 ar
    34   19   20 ar
    35   20   21 ar
    36   20   39 1
    37   21   22 ar
    38   21   26 1
    39   22   23 ar
    40   22   40 1
    41   23   24 ar
    42   23   41 1
    43   24   25 1
@<TRIPOS>MOLECULE
ZINC01024890
   42    44     0     0     0
SMALL
USER_CHARGES

@<TRIPOS>ATOM
      1 C1         -1.1598    1.1333    0.6091 C.ar      1 <0>        -0.0726
      2 C2         -0.0359    1.9310    0.7621 C.ar      1 <0>        -0.1791
      3 C3          1.2101    1.3359    0.8145 C.ar      1 <0>         0.1027
      4 N1          1.3369    0.0265    0.7205 N.ar      1 <0>        -0.4819
      5 C4          0.2907   -0.7626    0.5744 C.ar      1 <0>         0.1295
      6 C5         -0.9871   -0.2389    0.5142 C.ar      1 <0>        -0.1706
      7 C6          0.4905   -2.2528    0.4713 C.3       1 <0>        -0.0648
      8 C7          1.4688   -2.5588   -0.6645 C.3       1 <0>        -0.0727
      9 C8          1.6686   -4.0489   -0.7676 C.ar      1 <0>        -0.0553
     10 C9          2.6721   -4.6633   -0.0406 C.ar      1 <0>        -0.1224
     11 C10         2.8591   -6.0301   -0.1325 C.ar      1 <0>        -0.0831
     12 C11         2.0434   -6.7868   -0.9511 C.ar      1 <0>        -0.1691
     13 C12         1.0345   -6.1732   -1.6822 C.ar      1 <0>         0.1600
     14 C13         0.8460   -4.8002   -1.5834 C.ar      1 <0>        -0.1252
     15 N2          0.2079   -6.9353   -2.5108 N.pl3     1 <0>        -1.0509
     16 S1         -0.4370   -8.3563   -1.9563 S.o2      1 <0>         2.6896
     17 O1         -0.9622   -8.0868   -0.6637 O.2       1 <0>        -0.9318
     18 O2         -1.2354   -8.8782   -3.0095 O.2       1 <0>        -0.9284
     19 C14         0.8995   -9.4824   -1.7320 C.ar      1 <0>        -0.6672
     20 C15         1.2000   -9.9556   -0.4686 C.ar      1 <0>        -0.0009
     21 C16         2.2492  -10.8396   -0.2925 C.ar      1 <0>        -0.0528
     22 C17         2.9981  -11.2503   -1.3812 C.ar      1 <0>        -0.0399
     23 C18         2.6978  -10.7772   -2.6443 C.ar      1 <0>        -0.1120
     24 C19         1.6446   -9.8973   -2.8212 C.ar      1 <0>         0.0553
     25 Cl1         1.2627   -9.3086   -4.4091 Cl        1 <0>        -0.0289
     26 Cl2         2.6269  -11.4335    1.2945 Cl        1 <0>        -0.0408
     27 H1         -2.1467    1.5704    0.5693 H         1 <0>         0.1346
     28 H2         -0.1332    3.0039    0.8389 H         1 <0>         0.1348
     29 H3          2.0904    1.9502    0.9335 H         1 <0>         0.1563
     30 H4         -1.8401   -0.8905    0.3948 H         1 <0>         0.1349
     31 H5          0.8942   -2.6310    1.4104 H         1 <0>         0.0870
     32 H6         -0.4658   -2.7342    0.2667 H         1 <0>         0.0823
     33 H7          1.0651   -2.1805   -1.6036 H         1 <0>         0.0728
     34 H8          2.4251   -2.0773   -0.4599 H         1 <0>         0.0883
     35 H9          3.3112   -4.0739    0.6002 H         1 <0>         0.1294
     36 H10         3.6440   -6.5066    0.4360 H         1 <0>         0.1300
     37 H11         2.1903   -7.8544   -1.0227 H         1 <0>         0.1242
     38 H12         0.0598   -4.3205   -2.1474 H         1 <0>         0.1310
     39 H13         0.6157   -9.6348    0.3812 H         1 <0>         0.1658
     40 H14         3.8176  -11.9402   -1.2437 H         1 <0>         0.1557
     41 H15         3.2825  -11.0974   -3.4940 H         1 <0>         0.1568
     42 H16         0.0115   -6.6323   -3.4111 H         1 <0>         0.4295
@<TRIPOS>BOND
     1    1    6 ar
     2    1    2 ar
     3    1   27 1
     4    2    3 ar
     5    2   28 1
     6    3    4 ar
     7    3   29 1
     8    4    5 ar
     9    5    6 ar
    10    5    7 1
    11    6   30 1
    12    7    8 1
    13    7   31 1
    14    7   32 1
    15    8    9 1
    16    8   33 1
    17    8   34 1
    18    9   14 ar
    19    9   10 ar
    20   10   11 ar
    21   10   35 1
    22   11   12 ar
    23   11   36 1
    24   12   13 ar
    25   12   37 1
    26   13   14 ar
    27   13   15 1
    28   14   38 1
    29   15   16 1
    30   15   42 1
    31   16   17 2
    32   16   18 2
    33   16   19 1
    34   19   24 ar
    35   19   20 ar
    36   20   21 ar
    37   20   39 1
    38   21   22 ar
    39   21   26 1
    40   22   23 ar
    41   22   40 1
    42   23   24 ar
    43   23   41 1
    44   24   25 1
@<TRIPOS>MOLECULE
ZINC00904743
   51    55     0     0     0
SMALL
USER_CHARGES

@<TRIPOS>ATOM
      1 C1         -0.3237    0.5487   -0.9185 C.ar      1 <0>        -0.0926
      2 C2          0.7347    1.4381   -0.8688 C.ar      1 <0>        -0.1230
      3 C3          2.0179    0.9767   -0.6574 C.ar      1 <0>        -0.0711
      4 C4          2.2465   -0.3891   -0.4932 C.ar      1 <0>        -0.0668
      5 C5          1.1754   -1.2807   -0.5438 C.ar      1 <0>        -0.0726
      6 C6         -0.1032   -0.8073   -0.7564 C.ar      1 <0>        -0.1201
      7 C7          3.6218   -0.8910   -0.2663 C.ar      1 <0>         0.2309
      8 C8          3.8821   -1.8556    0.7278 C.ar      1 <0>         0.0625
      9 N1          5.1291   -2.2806    0.9008 N.ar      1 <0>        -0.1596
     10 N2          6.0830   -1.8179    0.1713 N.ar      1 <0>        -0.2934
     11 C9          5.8608   -0.9086   -0.7712 C.ar      1 <0>         0.2163
     12 N3          4.6386   -0.4451   -1.0004 N.ar      1 <0>        -0.4412
     13 S1          7.2091   -0.3135   -1.7369 S.3       1 <0>         0.1155
     14 C10         8.6444   -1.2132   -1.0881 C.3       1 <0>        -0.1647
     15 C11         9.8821   -0.7920   -1.8377 C.2       1 <0>         0.5480
     16 O1          9.8036    0.0338   -2.7225 O.2       1 <0>        -0.4981
     17 N4         11.0762   -1.3331   -1.5249 N.am      1 <0>        -0.5456
     18 C12        12.3458   -1.0003   -2.1765 C.3       1 <0>         0.1081
     19 C13        13.4000   -1.8713   -1.4740 C.3       1 <0>        -0.0879
     20 C14        12.6200   -2.6567   -0.4439 C.ar      1 <0>        -0.1295
     21 C15        11.2860   -2.2898   -0.5269 C.ar      1 <0>         0.1338
     22 C16        10.3648   -2.8834    0.3377 C.ar      1 <0>        -0.1587
     23 C17        10.7810   -3.8177    1.2623 C.ar      1 <0>        -0.0827
     24 C18        12.1147   -4.1737    1.3400 C.ar      1 <0>        -0.1365
     25 C19        13.0317   -3.5965    0.4810 C.ar      1 <0>        -0.0732
     26 C20         2.7826   -2.3869    1.5670 C.ar      1 <0>        -0.0484
     27 C21         1.8364   -1.5197    2.1121 C.ar      1 <0>        -0.0817
     28 C22         0.8144   -2.0205    2.8925 C.ar      1 <0>        -0.1179
     29 C23         0.7279   -3.3797    3.1349 C.ar      1 <0>        -0.0996
     30 C24         1.6637   -4.2449    2.5968 C.ar      1 <0>        -0.1208
     31 C25         2.6868   -3.7566    1.8101 C.ar      1 <0>        -0.0801
     32 H1         -1.3268    0.9150   -1.0801 H         1 <0>         0.1291
     33 H2          0.5564    2.4957   -0.9961 H         1 <0>         0.1314
     34 H3          2.8435    1.6719   -0.6195 H         1 <0>         0.1294
     35 H4          1.3464   -2.3396   -0.4177 H         1 <0>         0.1268
     36 H5         -0.9335   -1.4969   -0.7962 H         1 <0>         0.1310
     37 H6          8.7666   -0.9870   -0.0289 H         1 <0>         0.1351
     38 H7          8.4895   -2.2846   -1.2154 H         1 <0>         0.1350
     39 H8         12.3010   -1.2434   -3.2382 H         1 <0>         0.0883
     40 H9         12.5758    0.0563   -2.0392 H         1 <0>         0.0880
     41 H10        13.8731   -2.5455   -2.1879 H         1 <0>         0.0952
     42 H11        14.1481   -1.2449   -0.9881 H         1 <0>         0.0952
     43 H12         9.3216   -2.6094    0.2823 H         1 <0>         0.1364
     44 H13        10.0628   -4.2727    1.9283 H         1 <0>         0.1326
     45 H14        12.4383   -4.9056    2.0653 H         1 <0>         0.1301
     46 H15        14.0741   -3.8727    0.5410 H         1 <0>         0.1287
     47 H16         1.9034   -0.4583    1.9242 H         1 <0>         0.1245
     48 H17         0.0810   -1.3499    3.3153 H         1 <0>         0.1291
     49 H18        -0.0733   -3.7670    3.7469 H         1 <0>         0.1275
     50 H19         1.5909   -5.3051    2.7895 H         1 <0>         0.1296
     51 H20         3.4142   -4.4334    1.3869 H         1 <0>         0.1274
@<TRIPOS>BOND
     1    1    6 ar
     2    1    2 ar
     3    1   32 1
     4    2    3 ar
     5    2   33 1
     6    3    4 ar
     7    3   34 1
     8    4    5 ar
     9    4    7 1
    10    5    6 ar
    11    5   35 1
    12    6   36 1
    13    7   12 ar
    14    7    8 ar
    15    8    9 ar
    16    8   26 1
    17    9   10 ar
    18   10   11 ar
    19   11   12 ar
    20   11   13 1
    21   13   14 1
    22   14   15 1
    23   14   37 1
    24   14   38 1
    25   15   16 2
    26   15   17 am
    27   17   21 1
    28   17   18 1
    29   18   19 1
    30   18   39 1
    31   18   40 1
    32   19   20 1
    33   19   41 1
    34   19   42 1
    35   20   25 ar
    36   20   21 ar
    37   21   22 ar
    38   22   23 ar
    39   22   43 1
    40   23   24 ar
    41   23   44 1
    42   24   25 ar
    43   24   45 1
    44   25   46 1
    45   26   31 ar
    46   26   27 ar
    47   27   28 ar
    48   27   47 1
    49   28   29 ar
    50   28   48 1
    51   29   30 ar
    52   29   49 1
    53   30   31 ar
    54   30   50 1
    55   31   51 1
@<TRIPOS>MOLECULE
ZINC03978827
   80    84     0     0     0
SMALL
USER_CHARGES

@<TRIPOS>ATOM
      1 C1         -2.2499    1.7395    1.5965 C.3       1 <0>        -0.1448
      2 C2         -2.3630    0.2147    1.6179 C.3       1 <0>        -0.0886
      3 H1         -2.1511   -0.1868    0.6297 H         1 <0>         0.0647
      4 C3         -3.7754   -0.1882    2.0495 C.3       1 <0>        -0.1142
      5 C4         -3.8831   -1.7109    2.0243 C.3       1 <0>        -0.0863
      6 C5         -2.8712   -2.3453    2.9771 C.3       1 <0>        -0.1168
      7 C6         -3.2034   -1.9924    4.4220 C.3       1 <0>        -0.0858
      8 C7         -2.2907   -2.7490    5.3888 C.3       1 <0>        -0.0975
      9 C8         -0.8207   -2.4481    5.1311 C.3       1 <0>         0.0200
     10 C9         -0.4927   -2.4623    3.6663 C.2       1 <0>        -0.0271
     11 C10         0.6115   -2.9748    3.1888 C.2       1 <0>        -0.1945
     12 C11         1.6871   -3.6146    4.0173 C.3       1 <0>        -0.0682
     13 C12         1.5217   -3.2085    5.4824 C.3       1 <0>        -0.0549
     14 H2          1.7443   -2.1224    5.5395 H         1 <0>         0.0556
     15 C13         0.0772   -3.4243    5.9096 C.3       1 <0>        -0.0252
     16 C14        -0.1263   -3.2338    7.4071 C.3       1 <0>        -0.1101
     17 C15         0.9033   -4.0493    8.2060 C.3       1 <0>        -0.1119
     18 C16         2.2898   -3.5411    7.8160 C.3       1 <0>        -0.0569
     19 H3          2.2178   -2.4232    7.8479 H         1 <0>         0.0555
     20 C17         2.5695   -3.8926    6.3613 C.3       1 <0>        -0.0335
     21 C18         3.9485   -3.3245    5.9787 C.3       1 <0>        -0.1101
     22 C19         5.0165   -3.9216    6.8907 C.3       1 <0>        -0.1478
     23 C20         4.7602   -3.5214    8.3374 C.3       1 <0>         0.1195
     24 H4          4.8674   -2.4352    8.4331 H         1 <0>         0.0460
     25 C21         3.3625   -3.9218    8.8099 C.3       1 <0>        -0.0368
     26 C22         3.3394   -5.4064    9.1716 C.3       1 <0>        -0.1352
     27 C23         3.1067   -3.1345   10.1199 C.3       1 <0>        -0.1462
     28 O1          5.7353   -4.1464    9.1809 O.3       1 <0>        -0.5663
     29 C24         2.6012   -5.3981    6.1216 C.3       1 <0>        -0.1547
     30 C25        -0.3721   -4.8467    5.5369 C.3       1 <0>        -0.1382
     31 C26        -1.4543   -1.8772    2.6495 C.3       1 <0>        -0.0155
     32 H5         -1.1832   -2.2584    1.6510 H         1 <0>         0.0546
     33 C27        -1.3629   -0.3562    2.6314 C.3       1 <0>        -0.0770
     34 H6         -1.6059    0.0562    3.6092 H         1 <0>         0.0715
     35 C28         0.0468    0.0829    2.2258 C.3       1 <0>        -0.1463
     36 C29        -0.5399   -1.0348    5.6568 C.3       1 <0>        -0.1536
     37 C30        -2.9445   -3.8442    2.7896 C.2       1 <0>         0.4993
     38 O2         -3.7239   -4.3202    1.9818 O.co2     1 <0>        -0.7070
     39 O3         -2.2243   -4.5767    3.4463 O.co2     1 <0>        -0.6696
     40 H7         -1.2399    2.0248    1.3019 H         1 <0>         0.0532
     41 H8         -2.9654    2.1470    0.8823 H         1 <0>         0.0474
     42 H9         -2.4636    2.1337    2.5900 H         1 <0>         0.0494
     43 H10        -3.9698    0.1803    3.0558 H         1 <0>         0.0549
     44 H11        -4.5022    0.2419    1.3592 H         1 <0>         0.0487
     45 H12        -4.8906   -2.0096    2.3196 H         1 <0>         0.0523
     46 H13        -3.6916   -2.0691    1.0098 H         1 <0>         0.0574
     47 H14        -3.1028   -0.9193    4.5760 H         1 <0>         0.0430
     48 H15        -4.2426   -2.2738    4.6258 H         1 <0>         0.0414
     49 H16        -2.5347   -2.4030    6.4107 H         1 <0>         0.0259
     50 H17        -2.5341   -3.8025    5.3536 H         1 <0>         0.0990
     51 H18         0.7546   -2.9368    2.1160 H         1 <0>         0.0852
     52 H19         1.6485   -4.6899    3.8782 H         1 <0>         0.0722
     53 H20         2.6596   -3.2560    3.6562 H         1 <0>         0.0490
     54 H21        -0.0128   -2.1972    7.7151 H         1 <0>         0.0590
     55 H22        -1.1267   -3.5776    7.6859 H         1 <0>         0.0595
     56 H23         0.7201   -3.8720    9.2680 H         1 <0>         0.0543
     57 H24         0.7855   -5.1037    8.0015 H         1 <0>         0.0688
     58 H25         4.1631   -3.5839    4.9433 H         1 <0>         0.0672
     59 H26         3.9302   -2.2417    6.0898 H         1 <0>         0.0588
     60 H27         5.0618   -5.0017    6.7929 H         1 <0>         0.0755
     61 H28         5.9952   -3.5229    6.5845 H         1 <0>         0.0520
     62 H29         3.6150   -5.9975    8.2982 H         1 <0>         0.0582
     63 H30         4.0494   -5.5953    9.9768 H         1 <0>         0.0579
     64 H31         2.3375   -5.6854    9.4977 H         1 <0>         0.0518
     65 H32         2.1229   -3.3919   10.5123 H         1 <0>         0.0557
     66 H33         3.8698   -3.3932   10.8541 H         1 <0>         0.0571
     67 H34         3.1476   -2.0648    9.9148 H         1 <0>         0.0475
     68 H35         6.6482   -3.9040    8.9733 H         1 <0>         0.3709
     69 H36         2.6560   -5.5945    5.0508 H         1 <0>         0.0577
     70 H37         3.4740   -5.8262    6.6146 H         1 <0>         0.0548
     71 H38         1.6963   -5.8499    6.5280 H         1 <0>         0.0675
     72 H39        -0.1640   -5.0289    4.4826 H         1 <0>         0.0772
     73 H40         0.1712   -5.5703    6.1448 H         1 <0>         0.0333
     74 H41        -1.4418   -4.9494    5.7192 H         1 <0>         0.0634
     75 H42         0.1016    1.1715    2.2228 H         1 <0>         0.0481
     76 H43         0.7702   -0.3153    2.9372 H         1 <0>         0.0561
     77 H44         0.2722   -0.2949    1.2285 H         1 <0>         0.0471
     78 H45        -0.6486   -1.0223    6.7413 H         1 <0>         0.0530
     79 H46         0.4759   -0.7431    5.3901 H         1 <0>         0.0476
     80 H47        -1.2475   -0.3347    5.2127 H         1 <0>         0.0547
@<TRIPOS>BOND
     1    1    2 1
     2    1   40 1
     3    1   41 1
     4    1   42 1
     5    2    3 1
     6    2   33 1
     7    2    4 1
     8    4    5 1
     9    4   43 1
    10    4   44 1
    11    5    6 1
    12    5   45 1
    13    5   46 1
    14    6   31 1
    15    6    7 1
    16    6   37 1
    17    7    8 1
    18    7   47 1
    19    7   48 1
    20    8    9 1
    21    8   49 1
    22    8   50 1
    23    9   15 1
    24    9   10 1
    25    9   36 1
    26   10   11 2
    27   10   31 1
    28   11   12 1
    29   11   51 1
    30   12   13 1
    31   12   52 1
    32   12   53 1
    33   13   14 1
    34   13   20 1
    35   13   15 1
    36   15   16 1
    37   15   30 1
    38   16   17 1
    39   16   54 1
    40   16   55 1
    41   17   18 1
    42   17   56 1
    43   17   57 1
    44   18   19 1
    45   18   25 1
    46   18   20 1
    47   20   21 1
    48   20   29 1
    49   21   22 1
    50   21   58 1
    51   21   59 1
    52   22   23 1
    53   22   60 1
    54   22   61 1
    55   23   24 1
    56   23   25 1
    57   23   28 1
    58   25   26 1
    59   25   27 1
    60   26   62 1
    61   26   63 1
    62   26   64 1
    63   27   65 1
    64   27   66 1
    65   27   67 1
    66   28   68 1
    67   29   69 1
    68   29   70 1
    69   29   71 1
    70   30   72 1
    71   30   73 1
    72   30   74 1
    73   31   32 1
    74   31   33 1
    75   33   34 1
    76   33   35 1
    77   35   75 1
    78   35   76 1
    79   35   77 1
    80   36   78 1
    81   36   79 1
    82   36   80 1
    83   37   38 2
    84   37   39 1
@<TRIPOS>MOLECULE
ZINC00129876
   44    47     0     0     0
SMALL
USER_CHARGES

@<TRIPOS>ATOM
      1 C1         -0.0167    1.3792    0.0096 C.ar      1 <0>        -0.1197
      2 C2          1.1683    2.0931    0.0021 C.ar      1 <0>        -0.1184
      3 C3          2.3774    1.4286   -0.0134 C.ar      1 <0>        -0.1078
      4 C4          2.4032    0.0335   -0.0212 C.ar      1 <0>        -0.0567
      5 C5          1.2045   -0.6806   -0.0131 C.ar      1 <0>        -0.1074
      6 C6          0.0021   -0.0041    0.0020 C.ar      1 <0>        -0.1186
      7 C7          3.6950   -0.6848   -0.0384 C.2       1 <0>        -0.0698
      8 C8          4.4762   -0.5636    1.0075 C.2       1 <0>        -0.1580
      9 C9          5.8226   -1.2236    1.1167 C.3       1 <0>         0.1570
     10 N1          5.9735   -2.1951    0.0239 N.pl3     1 <0>        -0.9997
     11 C10         5.5285   -1.7789   -1.3172 C.3       1 <0>         0.1198
     12 C11         4.0215   -1.5084   -1.2486 C.3       1 <0>        -0.0979
     13 S1          6.6185   -3.6970    0.2898 S.o2      1 <0>         2.6922
     14 O1          7.1343   -4.1440   -0.9565 O.2       1 <0>        -0.9520
     15 O2          7.4255   -3.5921    1.4547 O.2       1 <0>        -0.9494
     16 C12         5.2836   -4.7726    0.6972 C.ar      1 <0>        -0.6712
     17 C13         4.9017   -4.9184    2.0297 C.ar      1 <0>        -0.0436
     18 C14         3.8752   -5.7413    2.3784 C.ar      1 <0>        -0.1161
     19 C15         3.1877   -6.4557    1.3824 C.ar      1 <0>        -0.0118
     20 C16         2.1224   -7.3143    1.7038 C.ar      1 <0>        -0.1192
     21 C17         1.4795   -7.9897    0.7126 C.ar      1 <0>        -0.0934
     22 C18         1.8612   -7.8436   -0.6199 C.ar      1 <0>        -0.1213
     23 C19         2.8879   -7.0212   -0.9685 C.ar      1 <0>        -0.0908
     24 C20         3.5757   -6.3070    0.0275 C.ar      1 <0>        -0.0785
     25 C21         4.6373   -5.4441   -0.2945 C.ar      1 <0>         0.0174
     26 H1         -0.9604    1.9041    0.0260 H         1 <0>         0.1219
     27 H2          1.1469    3.1729    0.0082 H         1 <0>         0.1235
     28 H3          3.3018    1.9870   -0.0200 H         1 <0>         0.1233
     29 H4          1.2178   -1.7605   -0.0194 H         1 <0>         0.1200
     30 H5         -0.9265   -0.5556    0.0079 H         1 <0>         0.1225
     31 H6          4.1348    0.0423    1.8338 H         1 <0>         0.1215
     32 H7          6.6054   -0.4686    1.0436 H         1 <0>         0.0899
     33 H8          5.8996   -1.7380    2.0746 H         1 <0>         0.0981
     34 H9          6.0560   -0.8731   -1.6160 H         1 <0>         0.0855
     35 H10         5.7264   -2.5752   -2.0348 H         1 <0>         0.0989
     36 H11         3.4839   -2.4551   -1.1963 H         1 <0>         0.0794
     37 H12         3.7123   -0.9706   -2.1449 H         1 <0>         0.0876
     38 H13         5.4284   -4.3706    2.7970 H         1 <0>         0.1381
     39 H14         3.5908   -5.8449    3.4151 H         1 <0>         0.1361
     40 H15         1.8159   -7.4376    2.7320 H         1 <0>         0.1326
     41 H16         0.6615   -8.6492    0.9623 H         1 <0>         0.1287
     42 H17         1.3345   -8.3915   -1.3872 H         1 <0>         0.1291
     43 H18         3.1729   -6.9181   -2.0051 H         1 <0>         0.1335
     44 H19         4.9412   -5.3177   -1.3231 H         1 <0>         0.1446
@<TRIPOS>BOND
     1    1    6 ar
     2    1    2 ar
     3    1   26 1
     4    2    3 ar
     5    2   27 1
     6    3    4 ar
     7    3   28 1
     8    4    5 ar
     9    4    7 1
    10    5    6 ar
    11    5   29 1
    12    6   30 1
    13    7   12 1
    14    7    8 2
    15    8    9 1
    16    8   31 1
    17    9   10 1
    18    9   32 1
    19    9   33 1
    20   10   11 1
    21   10   13 1
    22   11   12 1
    23   11   34 1
    24   11   35 1
    25   12   36 1
    26   12   37 1
    27   13   14 2
    28   13   15 2
    29   13   16 1
    30   16   25 ar
    31   16   17 ar
    32   17   18 ar
    33   17   38 1
    34   18   19 ar
    35   18   39 1
    36   19   24 ar
    37   19   20 ar
    38   20   21 ar
    39   20   40 1
    40   21   22 ar
    41   21   41 1
    42   22   23 ar
    43   22   42 1
    44   23   24 ar
    45   23   43 1
    46   24   25 ar
    47   25   44 1
@<TRIPOS>MOLECULE
ZINC20223985
   47    50     0     0     0
SMALL
USER_CHARGES

@<TRIPOS>ATOM
      1 C1          0.3003    1.6939   -0.0279 C.ar      1 <0>        -0.0932
      2 C2          1.5424    2.3249   -0.0673 C.ar      1 <0>        -0.1211
      3 C3          2.6954    1.6020   -0.0819 C.ar      1 <0>        -0.0906
      4 C4          2.6363    0.1981   -0.0565 C.ar      1 <0>        -0.0782
      5 C5          3.8052   -0.5821   -0.0700 C.ar      1 <0>         0.0183
      6 C6          3.7092   -1.9394   -0.0441 C.ar      1 <0>        -0.6722
      7 C7          2.4671   -2.5703   -0.0044 C.ar      1 <0>        -0.0445
      8 C8          1.3141   -1.8474    0.0097 C.ar      1 <0>        -0.1156
      9 C9          1.3733   -0.4435   -0.0160 C.ar      1 <0>        -0.0119
     10 C10         0.2044    0.3366   -0.0025 C.ar      1 <0>        -0.1194
     11 S1          5.1772   -2.9136   -0.0617 S.o2      1 <0>         2.6879
     12 O1          4.8146   -4.1852   -0.5822 O.2       1 <0>        -0.9496
     13 O2          6.1908   -2.1104   -0.6506 O.2       1 <0>        -0.9522
     14 N1          5.6224   -3.1569    1.5147 N.pl3     1 <0>        -0.9918
     15 C11         6.5175   -2.2097    2.1938 C.3       1 <0>         0.1037
     16 C12         5.8311   -1.7188    3.4745 C.3       1 <0>         0.1338
     17 N2          5.3376   -2.8856    4.2195 N.pl3     1 <0>        -0.6583
     18 C13         4.4425   -3.8328    3.5404 C.3       1 <0>         0.1337
     19 C14         5.1244   -4.3206    2.2614 C.3       1 <0>         0.1042
     20 C15         5.7114   -3.0898    5.5433 C.ar      1 <0>         0.4236
     21 C16         4.9390   -2.5519    6.5694 C.ar      1 <0>        -0.0930
     22 C17         5.3228   -2.7637    7.8820 C.ar      1 <0>        -0.0127
     23 C18         6.4697   -3.5085    8.1250 C.ar      1 <0>        -0.2343
     24 C19         7.1875   -4.0118    7.0592 C.ar      1 <0>         0.1720
     25 N3          6.7953   -3.7985    5.8171 N.ar      1 <0>        -0.4714
     26 C20         6.9258   -3.7640    9.5384 C.3       1 <0>         0.5193
     27 F1          6.3437   -4.9456   10.0099 F         1 <0>        -0.1703
     28 F2          8.3191   -3.8882    9.5635 F         1 <0>        -0.1702
     29 F3          6.5381   -2.6954   10.3539 F         1 <0>        -0.1724
     30 Cl1         3.5146   -1.6280    6.2072 Cl        1 <0>        -0.0266
     31 H1         -0.5994    2.2911   -0.0128 H         1 <0>         0.1286
     32 H2          1.5907    3.4036   -0.0868 H         1 <0>         0.1290
     33 H3          3.6509    2.1046   -0.1132 H         1 <0>         0.1336
     34 H4          4.7746   -0.1069   -0.1010 H         1 <0>         0.1444
     35 H5          2.4188   -3.6490    0.0151 H         1 <0>         0.1383
     36 H6          0.3587   -2.3499    0.0402 H         1 <0>         0.1360
     37 H7         -0.7650   -0.1386    0.0282 H         1 <0>         0.1324
     38 H8          7.4528   -2.7083    2.4481 H         1 <0>         0.0850
     39 H9          6.7184   -1.3621    1.5385 H         1 <0>         0.0992
     40 H10         6.5473   -1.1703    4.0863 H         1 <0>         0.0833
     41 H11         4.9947   -1.0697    3.2155 H         1 <0>         0.0687
     42 H12         4.2416   -4.6804    4.1957 H         1 <0>         0.0837
     43 H13         3.5072   -3.3342    3.2861 H         1 <0>         0.0692
     44 H14         4.4055   -4.8668    1.6508 H         1 <0>         0.1003
     45 H15         5.9583   -4.9730    2.5207 H         1 <0>         0.0842
     46 H16         4.7439   -2.3586    8.6988 H         1 <0>         0.1600
     47 H17         8.0799   -4.5915    7.2441 H         1 <0>         0.1771
@<TRIPOS>BOND
     1    1   10 ar
     2    1    2 ar
     3    1   31 1
     4    2    3 ar
     5    2   32 1
     6    3    4 ar
     7    3   33 1
     8    4    9 ar
     9    4    5 ar
    10    5    6 ar
    11    5   34 1
    12    6    7 ar
    13    6   11 1
    14    7    8 ar
    15    7   35 1
    16    8    9 ar
    17    8   36 1
    18    9   10 ar
    19   10   37 1
    20   11   12 2
    21   11   13 2
    22   11   14 1
    23   14   19 1
    24   14   15 1
    25   15   16 1
    26   15   38 1
    27   15   39 1
    28   16   17 1
    29   16   40 1
    30   16   41 1
    31   17   18 1
    32   17   20 1
    33   18   19 1
    34   18   42 1
    35   18   43 1
    36   19   44 1
    37   19   45 1
    38   20   25 ar
    39   20   21 ar
    40   21   22 ar
    41   21   30 1
    42   22   23 ar
    43   22   46 1
    44   23   24 ar
    45   23   26 1
    46   24   25 ar
    47   24   47 1
    48   26   27 1
    49   26   28 1
    50   26   29 1
@<TRIPOS>MOLECULE
ZINC12370063
   53    57     0     0     0
SMALL
USER_CHARGES
4-(4-benzyloxyphenyl)-3-[(2-chloro-6-fluoro-phenyl)methylsulfanyl]-5-(2-furyl)-1,2,4-triazole
@<TRIPOS>ATOM
      1 C1        -11.0076   -1.0693   -0.6079 C.ar      1 <0>        -0.1070
      2 C2        -10.6622    0.1357   -1.1907 C.ar      1 <0>        -0.1225
      3 C3         -9.3303    0.4659   -1.3579 C.ar      1 <0>        -0.0943
      4 C4         -8.3439   -0.4090   -0.9428 C.ar      1 <0>        -0.1011
      5 C5         -8.6894   -1.6165   -0.3652 C.ar      1 <0>        -0.0945
      6 C6        -10.0212   -1.9442   -0.1928 C.ar      1 <0>        -0.1227
      7 C7         -6.8919   -0.0492   -1.1255 C.3       1 <0>         0.0998
      8 O1         -6.4252    0.6492    0.0305 O.3       1 <0>        -0.3013
      9 C8         -5.1255    1.0483    0.0276 C.ar      1 <0>         0.1555
     10 C9         -4.6074    1.7313    1.1184 C.ar      1 <0>        -0.1374
     11 C10        -3.2874    2.1364    1.1161 C.ar      1 <0>        -0.0531
     12 C11        -2.4788    1.8606    0.0219 C.ar      1 <0>         0.0573
     13 C12        -2.9994    1.1826   -1.0720 C.ar      1 <0>        -0.0389
     14 C13        -4.3180    0.7729   -1.0663 C.ar      1 <0>        -0.1972
     15 N1         -1.1375    2.2720    0.0191 N.pl3     1 <0>        -0.4063
     16 C14        -0.0179    1.4665    0.0101 C.2       1 <0>         0.2673
     17 N2          1.0287    2.2636    0.0044 N.2       1 <0>        -0.2457
     18 N3          0.6468    3.4903    0.0146 N.2       1 <0>        -0.2781
     19 C15        -0.6656    3.5570    0.0275 C.2       1 <0>         0.1692
     20 S1         -1.6371    5.0268    0.0447 S.3       1 <0>         0.0376
     21 C16        -0.3234    6.2720    0.0396 C.3       1 <0>        -0.0738
     22 C17        -0.9362    7.6487    0.0530 C.ar      1 <0>        -0.1145
     23 C18        -1.2068    8.2748    1.2579 C.ar      1 <0>         0.1339
     24 C19        -1.7698    9.5396    1.2688 C.ar      1 <0>        -0.1485
     25 C20        -2.0613   10.1766    0.0772 C.ar      1 <0>        -0.0663
     26 C21        -1.7908    9.5519   -1.1255 C.ar      1 <0>        -0.1195
     27 C22        -1.2233    8.2898   -1.1383 C.ar      1 <0>         0.0066
     28 Cl1        -0.8777    7.5087   -2.6496 Cl        1 <0>        -0.0407
     29 F1         -0.9221    7.6517    2.4223 F         1 <0>        -0.1222
     30 C23         0.0021   -0.0041    0.0020 C.2       1 <0>         0.0359
     31 C24         1.0823   -0.7913    0.2682 C.2       1 <0>        -0.1320
     32 C25         0.6500   -2.1263    0.1491 C.2       1 <0>        -0.2118
     33 C26        -0.6548   -2.0913   -0.1875 C.2       1 <0>        -0.0145
     34 O2         -1.0432   -0.8083   -0.2756 O.3       1 <0>        -0.1664
     35 H1        -12.0482   -1.3269   -0.4767 H         1 <0>         0.1257
     36 H2        -11.4328    0.8193   -1.5150 H         1 <0>         0.1267
     37 H3         -9.0604    1.4073   -1.8132 H         1 <0>         0.1247
     38 H4         -7.9187   -2.3020   -0.0449 H         1 <0>         0.1244
     39 H5        -10.2911   -2.8855    0.2628 H         1 <0>         0.1266
     40 H6         -6.7831    0.5876   -2.0033 H         1 <0>         0.0753
     41 H7         -6.3066   -0.9586   -1.2615 H         1 <0>         0.0751
     42 H8         -5.2365    1.9458    1.9696 H         1 <0>         0.1458
     43 H9         -2.8842    2.6681    1.9653 H         1 <0>         0.1392
     44 H10        -2.3720    0.9720   -1.9255 H         1 <0>         0.1316
     45 H11        -4.7220    0.2418   -1.9155 H         1 <0>         0.1410
     46 H12         0.3019    6.1440    0.9232 H         1 <0>         0.1165
     47 H13         0.2855    6.1540   -0.8567 H         1 <0>         0.1198
     48 H14        -1.9814   10.0284    2.2083 H         1 <0>         0.1480
     49 H15        -2.5005   11.1633    0.0861 H         1 <0>         0.1482
     50 H16        -2.0187   10.0506   -2.0559 H         1 <0>         0.1462
     51 H17         2.0769   -0.4563    0.5230 H         1 <0>         0.1623
     52 H18         1.2513   -3.0112    0.2965 H         1 <0>         0.1593
     53 H19        -1.2839   -2.9523   -0.3582 H         1 <0>         0.2110
@<TRIPOS>BOND
     1    1    6 ar
     2    1    2 ar
     3    1   35 1
     4    2    3 ar
     5    2   36 1
     6    3    4 ar
     7    3   37 1
     8    4    5 ar
     9    4    7 1
    10    5    6 ar
    11    5   38 1
    12    6   39 1
    13    7    8 1
    14    7   40 1
    15    7   41 1
    16    8    9 1
    17    9   14 ar
    18    9   10 ar
    19   10   11 ar
    20   10   42 1
    21   11   12 ar
    22   11   43 1
    23   12   13 ar
    24   12   15 1
    25   13   14 ar
    26   13   44 1
    27   14   45 1
    28   15   19 1
    29   15   16 1
    30   16   17 2
    31   16   30 1
    32   17   18 1
    33   18   19 2
    34   19   20 1
    35   20   21 1
    36   21   22 1
    37   21   46 1
    38   21   47 1
    39   22   27 ar
    40   22   23 ar
    41   23   24 ar
    42   23   29 1
    43   24   25 ar
    44   24   48 1
    45   25   26 ar
    46   25   49 1
    47   26   27 ar
    48   26   50 1
    49   27   28 1
    50   30   34 1
    51   30   31 2
    52   31   32 1
    53   31   51 1
    54   32   33 2
    55   32   52 1
    56   33   34 1
    57   33   53 1
@<TRIPOS>MOLECULE
ZINC01038770
   35    37     0     0     0
SMALL
USER_CHARGES
2-(2,4-dichlorophenyl)sulfonyl-3-(2,3-dihydrobenzofuran-5-yl)prop-2-enenitrile
@<TRIPOS>ATOM
      1 C1         -1.1244    1.9620   -0.7480 C.ar      1 <0>        -0.0396
      2 C2          0.0766    1.2942   -0.7947 C.ar      1 <0>        -0.1431
      3 C3          1.1901    1.7928   -0.1173 C.ar      1 <0>         0.1478
      4 C4          1.0698    2.9760    0.6065 C.ar      1 <0>        -0.1840
      5 C5         -0.1256    3.6479    0.6677 C.ar      1 <0>        -0.0189
      6 C6         -1.2432    3.1449   -0.0100 C.ar      1 <0>        -0.1546
      7 C7         -2.5287    3.8564    0.0492 C.2       1 <0>         0.1493
      8 C8         -3.6858    3.1679   -0.0424 C.2       1 <0>        -0.6484
      9 C9         -3.6683    1.7360   -0.0504 C.1       1 <0>         0.2679
     10 N1         -3.6544    0.6001   -0.0567 N.1       1 <0>        -0.3933
     11 S1         -5.2181    4.0308   -0.1523 S.o2      1 <0>         2.5909
     12 O1         -6.0854    3.4421    0.8071 O.2       1 <0>        -0.9147
     13 O2         -4.9049    5.4169   -0.1469 O.2       1 <0>        -0.9065
     14 C10        -5.9037    3.6756   -1.7361 C.ar      1 <0>        -0.6595
     15 C11        -7.0866    2.9669   -1.8339 C.ar      1 <0>         0.0077
     16 C12        -7.6252    2.6883   -3.0758 C.ar      1 <0>        -0.1231
     17 C13        -6.9806    3.1187   -4.2221 C.ar      1 <0>         0.0295
     18 C14        -5.7971    3.8278   -4.1249 C.ar      1 <0>        -0.1202
     19 C15        -5.2611    4.1110   -2.8812 C.ar      1 <0>         0.0648
     20 Cl1        -3.7792    5.0066   -2.7579 Cl        1 <0>        -0.0265
     21 Cl2        -7.6570    2.7682   -5.7820 Cl        1 <0>        -0.0345
     22 C16         2.4304    3.2664    1.2108 C.3       1 <0>        -0.1105
     23 C17         3.3493    2.3265    0.3952 C.3       1 <0>         0.0487
     24 O3          2.4499    1.2870   -0.0254 O.3       1 <0>        -0.2970
     25 H1         -1.9794    1.5705   -1.2792 H         1 <0>         0.1384
     26 H2          0.1599    0.3798   -1.3632 H         1 <0>         0.1386
     27 H3         -0.2042    4.5620    1.2375 H         1 <0>         0.1419
     28 H4         -2.5469    4.9299    0.1659 H         1 <0>         0.1749
     29 H5         -7.5902    2.6311   -0.9395 H         1 <0>         0.1676
     30 H6         -8.5495    2.1349   -3.1516 H         1 <0>         0.1561
     31 H7         -5.2938    4.1642   -5.0193 H         1 <0>         0.1583
     32 H8          2.7086    4.3096    1.0611 H         1 <0>         0.0989
     33 H9          2.4497    3.0077    2.2695 H         1 <0>         0.0964
     34 H10         3.7672    2.8474   -0.4663 H         1 <0>         0.0838
     35 H11         4.1418    1.9204    1.0238 H         1 <0>         0.1132
@<TRIPOS>BOND
     1    1    6 ar
     2    1    2 ar
     3    1   25 1
     4    2    3 ar
     5    2   26 1
     6    3   24 1
     7    3    4 ar
     8    4    5 ar
     9    4   22 1
    10    5    6 ar
    11    5   27 1
    12    6    7 1
    13    7    8 2
    14    7   28 1
    15    8    9 1
    16    8   11 1
    17    9   10 3
    18   11   12 2
    19   11   13 2
    20   11   14 1
    21   14   19 ar
    22   14   15 ar
    23   15   16 ar
    24   15   29 1
    25   16   17 ar
    26   16   30 1
    27   17   18 ar
    28   17   21 1
    29   18   19 ar
    30   18   31 1
    31   19   20 1
    32   22   23 1
    33   22   32 1
    34   22   33 1
    35   23   24 1
    36   23   34 1
    37   23   35 1
@<TRIPOS>MOLECULE
ZINC59592628
   51    54     0     0     0
SMALL
USER_CHARGES

@<TRIPOS>ATOM
      1 C1         -0.0246    0.9274   -0.3584 C.ar      1 <0>        -0.0927
      2 C2          1.1511    1.6738   -0.4130 C.ar      1 <0>        -0.1208
      3 C3          2.3688    1.0676   -0.3683 C.ar      1 <0>        -0.0903
      4 C4          2.4453   -0.3319   -0.2651 C.ar      1 <0>        -0.0776
      5 C5          3.6843   -0.9935   -0.2158 C.ar      1 <0>         0.0181
      6 C6          3.7196   -2.3503   -0.1153 C.ar      1 <0>        -0.6731
      7 C7          2.5438   -3.0966   -0.0603 C.ar      1 <0>        -0.0438
      8 C8          1.3262   -2.4903   -0.1055 C.ar      1 <0>        -0.1166
      9 C9          1.2498   -1.0909   -0.2091 C.ar      1 <0>        -0.0114
     10 C10         0.0108   -0.4293   -0.2584 C.ar      1 <0>        -0.1195
     11 S1          5.2751   -3.1757   -0.0543 S.o2      1 <0>         2.6812
     12 O1          5.0485   -4.5030   -0.5083 O.2       1 <0>        -0.9511
     13 O2          6.2185   -2.3103   -0.6709 O.2       1 <0>        -0.9542
     14 N1          5.7075   -3.2882    1.5403 N.pl3     1 <0>        -0.9870
     15 C11         6.4957   -2.1942    2.1410 C.3       1 <0>         0.1207
     16 C12         5.9933   -1.8544    3.5543 C.3       1 <0>        -0.1285
     17 C13         4.4816   -1.9023    3.5814 C.3       1 <0>         0.0666
     18 N2          4.0525   -3.2403    3.9850 N.3       1 <0>        -0.5468
     19 C14         3.9209   -4.1960    2.9506 C.3       1 <0>         0.0490
     20 C15         5.2928   -4.4539    2.2941 C.3       1 <0>         0.1136
     21 C16         2.8336   -3.1781    4.8025 C.3       1 <0>         0.0977
     22 C17         3.1844   -2.7148    6.1929 C.ar      1 <0>        -0.1039
     23 C18         3.0299   -1.3831    6.5390 C.ar      1 <0>         0.1137
     24 C19         3.3526   -0.9588    7.8167 C.ar      1 <0>        -0.1497
     25 C20         3.8287   -1.8644    8.7461 C.ar      1 <0>        -0.0776
     26 C21         3.9829   -3.1937    8.4007 C.ar      1 <0>        -0.1214
     27 C22         3.6555   -3.6206    7.1257 C.ar      1 <0>         0.0112
     28 Cl1         3.8428   -5.2919    6.6951 Cl        1 <0>        -0.0470
     29 F1          2.5650   -0.4982    5.6302 F         1 <0>        -0.1315
     30 H1         -0.9781    1.4337   -0.3915 H         1 <0>         0.1287
     31 H2          1.0951    2.7495   -0.4924 H         1 <0>         0.1292
     32 H3          3.2715    1.6588   -0.4124 H         1 <0>         0.1333
     33 H4          4.6035   -0.4282   -0.2577 H         1 <0>         0.1436
     34 H5          2.5998   -4.1723    0.0190 H         1 <0>         0.1382
     35 H6          0.4235   -3.0816   -0.0623 H         1 <0>         0.1353
     36 H7         -0.9085   -0.9947   -0.2167 H         1 <0>         0.1321
     37 H8          7.5413   -2.4968    2.1971 H         1 <0>         0.0763
     38 H9          6.4149   -1.3085    1.5109 H         1 <0>         0.0816
     39 H10         6.3921   -2.5783    4.2650 H         1 <0>         0.0855
     40 H11         6.3296   -0.8545    3.8283 H         1 <0>         0.0790
     41 H12         4.1064   -1.1686    4.2948 H         1 <0>         0.0750
     42 H13         4.0920   -1.6788    2.5882 H         1 <0>         0.0429
     43 H14         3.5361   -5.1276    3.3655 H         1 <0>         0.0907
     44 H15         3.2256   -3.8222    2.1990 H         1 <0>         0.0303
     45 H16         5.2142   -5.3101    1.6241 H         1 <0>         0.1002
     46 H17         6.0301   -4.6664    3.0683 H         1 <0>         0.0992
     47 H18         2.1299   -2.4776    4.3528 H         1 <0>         0.0538
     48 H19         2.3791   -4.1675    4.8530 H         1 <0>         0.0926
     49 H20         3.2327    0.0799    8.0871 H         1 <0>         0.1412
     50 H21         4.0807   -1.5330    9.7426 H         1 <0>         0.1429
     51 H22         4.3553   -3.9004    9.1275 H         1 <0>         0.1407
@<TRIPOS>BOND
     1    1   10 ar
     2    1    2 ar
     3    1   30 1
     4    2    3 ar
     5    2   31 1
     6    3    4 ar
     7    3   32 1
     8    4    9 ar
     9    4    5 ar
    10    5    6 ar
    11    5   33 1
    12    6    7 ar
    13    6   11 1
    14    7    8 ar
    15    7   34 1
    16    8    9 ar
    17    8   35 1
    18    9   10 ar
    19   10   36 1
    20   11   12 2
    21   11   13 2
    22   11   14 1
    23   14   20 1
    24   14   15 1
    25   15   16 1
    26   15   37 1
    27   15   38 1
    28   16   17 1
    29   16   39 1
    30   16   40 1
    31   17   18 1
    32   17   41 1
    33   17   42 1
    34   18   19 1
    35   18   21 1
    36   19   20 1
    37   19   43 1
    38   19   44 1
    39   20   45 1
    40   20   46 1
    41   21   22 1
    42   21   47 1
    43   21   48 1
    44   22   27 ar
    45   22   23 ar
    46   23   24 ar
    47   23   29 1
    48   24   25 ar
    49   24   49 1
    50   25   26 ar
    51   25   50 1
    52   26   27 ar
    53   26   51 1
    54   27   28 1
@<TRIPOS>MOLECULE
ZINC01048809
   45    47     0     0     0
SMALL
USER_CHARGES

@<TRIPOS>ATOM
      1 C1         -0.0525    1.6058   -0.2147 C.3       1 <0>         0.0794
      2 N1         -0.0265    0.1431   -0.1369 N.pl3     1 <0>        -0.9937
      3 C2         -0.0106   -0.5208    1.1689 C.3       1 <0>         0.1645
      4 C3         -1.4221   -0.6631    1.6773 C.ar      1 <0>        -0.1199
      5 C4         -1.9841    0.3390    2.4460 C.ar      1 <0>        -0.1028
      6 C5         -3.2789    0.2085    2.9124 C.ar      1 <0>        -0.1259
      7 C6         -4.0117   -0.9238    2.6097 C.ar      1 <0>        -0.1129
      8 C7         -3.4500   -1.9255    1.8402 C.ar      1 <0>        -0.1230
      9 C8         -2.1568   -1.7931    1.3702 C.ar      1 <0>        -0.1011
     10 S1         -0.0150   -0.7599   -1.5250 S.o2      1 <0>         2.6889
     11 O1         -0.5423   -2.0348   -1.1846 O.2       1 <0>        -0.9447
     12 O2         -0.5835    0.0526   -2.5428 O.2       1 <0>        -0.9485
     13 C9          1.6716   -1.0143   -1.9671 C.ar      1 <0>        -0.6789
     14 C10         2.3141   -0.1067   -2.7890 C.ar      1 <0>        -0.0018
     15 C11         3.6361   -0.3040   -3.1375 C.ar      1 <0>        -0.1573
     16 C12         4.3196   -1.4139   -2.6615 C.ar      1 <0>         0.1366
     17 C13         3.6726   -2.3228   -1.8365 C.ar      1 <0>        -0.1359
     18 C14         2.3520   -2.1181   -1.4869 C.ar      1 <0>        -0.0012
     19 O3          5.6200   -1.6105   -3.0032 O.3       1 <0>        -0.2470
     20 C15         6.5436   -0.7409   -2.5216 C.ar      1 <0>         0.1782
     21 C16         6.1732    0.2316   -1.6055 C.ar      1 <0>        -0.1928
     22 C17         7.1139    1.1162   -1.1152 C.ar      1 <0>        -0.0354
     23 C18         8.4320    1.0406   -1.5326 C.ar      1 <0>        -0.1361
     24 C19         8.8192    0.0797   -2.4441 C.ar      1 <0>         0.0379
     25 C20         7.8779   -0.8257   -2.9438 C.ar      1 <0>        -0.0416
     26 C21         8.2731   -1.8295   -3.8856 C.1       1 <0>         0.2496
     27 N2          8.5866   -2.6258   -4.6326 N.1       1 <0>        -0.3856
     28 Cl1        10.4730   -0.0093   -2.9643 Cl        1 <0>        -0.0323
     29 H1          0.9685    1.9867   -0.2373 H         1 <0>         0.0588
     30 H2         -0.5747    1.9121   -1.1211 H         1 <0>         0.0849
     31 H3         -0.5707    2.0068    0.6563 H         1 <0>         0.0808
     32 H4          0.4409   -1.5079    1.0692 H         1 <0>         0.0915
     33 H5          0.5707    0.0752    1.8725 H         1 <0>         0.0929
     34 H6         -1.4115    1.2236    2.6826 H         1 <0>         0.1212
     35 H7         -3.7177    0.9911    3.5136 H         1 <0>         0.1225
     36 H8         -5.0231   -1.0261    2.9746 H         1 <0>         0.1222
     37 H9         -4.0225   -2.8103    1.6039 H         1 <0>         0.1240
     38 H10        -1.7192   -2.5739    0.7660 H         1 <0>         0.1393
     39 H11         1.7816    0.7569   -3.1592 H         1 <0>         0.1508
     40 H12         4.1372    0.4047   -3.7801 H         1 <0>         0.1455
     41 H13         4.2022   -3.1877   -1.4650 H         1 <0>         0.1477
     42 H14         1.8492   -2.8231   -0.8415 H         1 <0>         0.1527
     43 H15         5.1472    0.2978   -1.2749 H         1 <0>         0.1467
     44 H16         6.8194    1.8719   -0.4020 H         1 <0>         0.1497
     45 H17         9.1601    1.7369   -1.1434 H         1 <0>         0.1521
@<TRIPOS>BOND
     1    1    2 1
     2    1   29 1
     3    1   30 1
     4    1   31 1
     5    2    3 1
     6    2   10 1
     7    3    4 1
     8    3   32 1
     9    3   33 1
    10    4    9 ar
    11    4    5 ar
    12    5    6 ar
    13    5   34 1
    14    6    7 ar
    15    6   35 1
    16    7    8 ar
    17    7   36 1
    18    8    9 ar
    19    8   37 1
    20    9   38 1
    21   10   11 2
    22   10   12 2
    23   10   13 1
    24   13   18 ar
    25   13   14 ar
    26   14   15 ar
    27   14   39 1
    28   15   16 ar
    29   15   40 1
    30   16   17 ar
    31   16   19 1
    32   17   18 ar
    33   17   41 1
    34   18   42 1
    35   19   20 1
    36   20   25 ar
    37   20   21 ar
    38   21   22 ar
    39   21   43 1
    40   22   23 ar
    41   22   44 1
    42   23   24 ar
    43   23   45 1
    44   24   25 ar
    45   24   28 1
    46   25   26 1
    47   26   27 3
@<TRIPOS>MOLECULE
ZINC34169081
   84    88     0     0     0
SMALL
USER_CHARGES

@<TRIPOS>ATOM
      1 C1         -1.0579    1.5685    0.5011 C.3       1 <0>        -0.1475
      2 C2         -0.7226    0.1104    0.3212 C.2       1 <0>         0.4546
      3 O1         -0.7022   -0.6273    1.2779 O.2       1 <0>        -0.5129
      4 O2         -0.4465   -0.3689   -0.9018 O.3       1 <0>        -0.3444
      5 C3         -0.1362   -1.7651   -0.9989 C.3       1 <0>         0.1022
      6 H1          0.3337   -2.0784   -0.0599 H         1 <0>         0.0790
      7 C4         -1.4239   -2.5527   -1.1996 C.3       1 <0>        -0.1316
      8 C5         -1.1115   -4.0352   -1.3821 C.3       1 <0>        -0.1161
      9 C6         -0.2752   -4.2293   -2.6605 C.3       1 <0>        -0.0233
     10 C7          1.0160   -3.4306   -2.5118 C.3       1 <0>        -0.0605
     11 H2          1.5704   -3.9114   -1.6657 H         1 <0>         0.0620
     12 C8          0.8575   -1.9749   -2.1411 C.3       1 <0>        -0.0395
     13 C9          2.2252   -1.4597   -1.6239 C.3       1 <0>        -0.1504
     14 C10         0.4743   -1.0974   -3.3329 C.3       1 <0>        -0.1377
     15 C11         1.8942   -3.6408   -3.7444 C.3       1 <0>        -0.1125
     16 C12         2.3434   -5.1107   -3.7549 C.3       1 <0>        -0.1084
     17 C13         1.1410   -6.0402   -3.8125 C.3       1 <0>        -0.0235
     18 C14         0.0954   -5.7067   -2.7597 C.3       1 <0>        -0.1127
     19 H3          0.4997   -5.9795   -1.7601 H         1 <0>         0.0972
     20 C15        -1.1069   -6.5902   -2.9986 C.2       1 <0>         0.4023
     21 O3         -2.2535   -6.1981   -2.9053 O.2       1 <0>        -0.4590
     22 C16        -0.8375   -7.9956   -3.3316 C.2       1 <0>        -0.2642
     23 C17         0.3966   -8.4208   -3.6305 C.2       1 <0>         0.0093
     24 C18         1.5818   -7.5047   -3.6576 C.3       1 <0>        -0.0133
     25 C19         2.5849   -7.8659   -4.7445 C.3       1 <0>        -0.1049
     26 C20         2.7681   -9.3730   -4.9020 C.3       1 <0>        -0.1075
     27 C21         1.4337  -10.0580   -5.1742 C.3       1 <0>        -0.0468
     28 C22         0.5316   -9.8969   -3.9534 C.3       1 <0>        -0.0430
     29 H4         -0.4644  -10.2930   -4.1903 H         1 <0>         0.0890
     30 C23         1.1081  -10.6368   -2.7525 C.3       1 <0>        -0.0725
     31 C24         1.3197  -12.1187   -3.0592 C.3       1 <0>        -0.1303
     32 C25         2.2192  -12.2757   -4.2834 C.3       1 <0>        -0.0834
     33 C26         1.6426  -11.5391   -5.4850 C.3       1 <0>        -0.1002
     34 C27         2.0111  -12.7749   -1.8535 C.3       1 <0>        -0.1228
     35 C28        -0.0024  -12.8013   -3.2854 C.2       1 <0>         0.5073
     36 O4         -0.0734  -13.7587   -4.0370 O.co2     1 <0>        -0.6990
     37 O5         -1.0024  -12.3970   -2.7170 O.co2     1 <0>        -0.6978
     38 C29         0.7547   -9.4130   -6.3885 C.3       1 <0>        -0.1469
     39 C30         2.3007   -7.6330   -2.3083 C.3       1 <0>        -0.1541
     40 C31         0.5127   -5.9326   -5.2111 C.3       1 <0>        -0.1685
     41 C32        -1.1116   -3.7666   -3.8471 C.3       1 <0>        -0.1575
     42 H5         -0.1431    2.1316    0.6863 H         1 <0>         0.1025
     43 H6         -1.5396    1.9446   -0.4015 H         1 <0>         0.0932
     44 H7         -1.7336    1.6841    1.3486 H         1 <0>         0.1005
     45 H8         -2.0485   -2.4388   -0.3001 H         1 <0>         0.0607
     46 H9         -1.9884   -2.1593   -2.0385 H         1 <0>         0.0785
     47 H10        -0.5408   -4.3997   -0.5286 H         1 <0>         0.0590
     48 H11        -2.0386   -4.5976   -1.4709 H         1 <0>         0.0891
     49 H12         2.5171   -2.0279   -0.7407 H         1 <0>         0.0520
     50 H13         2.9784   -1.5849   -2.4018 H         1 <0>         0.0620
     51 H14         2.1417   -0.4040   -1.3655 H         1 <0>         0.0555
     52 H15         0.5887   -0.0476   -3.0629 H         1 <0>         0.0591
     53 H16         1.1234   -1.3282   -4.1776 H         1 <0>         0.0574
     54 H17        -0.5625   -1.2909   -3.6080 H         1 <0>         0.0606
     55 H18         1.3672   -3.4049   -4.6592 H         1 <0>         0.0717
     56 H19         2.7884   -3.0163   -3.6800 H         1 <0>         0.0637
     57 H20         2.9782   -5.2737   -4.6304 H         1 <0>         0.0692
     58 H21         2.9375   -5.2782   -2.8571 H         1 <0>         0.0686
     59 H22        -1.6530   -8.7068   -3.3348 H         1 <0>         0.1329
     60 H23         2.3596   -7.4271   -5.7078 H         1 <0>         0.0730
     61 H24         3.5678   -7.4491   -4.4442 H         1 <0>         0.0567
     62 H25         3.4442   -9.5622   -5.7445 H         1 <0>         0.0584
     63 H26         3.2220   -9.7871   -4.0017 H         1 <0>         0.0679
     64 H27         2.0740  -10.2084   -2.4753 H         1 <0>         0.0471
     65 H28         0.4280  -10.5404   -1.9023 H         1 <0>         0.0634
     66 H29         3.2130  -11.8825   -4.0555 H         1 <0>         0.0389
     67 H30         2.3163  -13.3391   -4.5230 H         1 <0>         0.0615
     68 H31         0.6917  -11.9825   -5.7814 H         1 <0>         0.0700
     69 H32         2.3362  -11.6264   -6.3277 H         1 <0>         0.0475
     70 H33         1.3823  -12.6649   -0.9699 H         1 <0>         0.0481
     71 H34         2.1692  -13.8339   -2.0573 H         1 <0>         0.0487
     72 H35         2.9720  -12.2912   -1.6780 H         1 <0>         0.0383
     73 H36         1.3976   -9.5177   -7.2624 H         1 <0>         0.0498
     74 H37        -0.1982   -9.9075   -6.5771 H         1 <0>         0.0537
     75 H38         0.5820   -8.3554   -6.1890 H         1 <0>         0.0571
     76 H39         1.5901   -7.4596   -1.5001 H         1 <0>         0.0562
     77 H40         2.7208   -8.6343   -2.2142 H         1 <0>         0.0692
     78 H41         3.1018   -6.8960   -2.2520 H         1 <0>         0.0646
     79 H42         1.1974   -6.3490   -5.9500 H         1 <0>         0.0668
     80 H43        -0.4253   -6.4874   -5.2317 H         1 <0>         0.0589
     81 H44         0.3205   -4.8852   -5.4435 H         1 <0>         0.0657
     82 H45        -1.5401   -2.7881   -3.6301 H         1 <0>         0.0602
     83 H46        -0.4796   -3.6983   -4.7325 H         1 <0>         0.0605
     84 H47        -1.9136   -4.4825   -4.0275 H         1 <0>         0.0713
@<TRIPOS>BOND
     1    1    2 1
     2    1   42 1
     3    1   43 1
     4    1   44 1
     5    2    3 2
     6    2    4 1
     7    4    5 1
     8    5    6 1
     9    5   12 1
    10    5    7 1
    11    7    8 1
    12    7   45 1
    13    7   46 1
    14    8    9 1
    15    8   47 1
    16    8   48 1
    17    9   18 1
    18    9   10 1
    19    9   41 1
    20   10   11 1
    21   10   12 1
    22   10   15 1
    23   12   13 1
    24   12   14 1
    25   13   49 1
    26   13   50 1
    27   13   51 1
    28   14   52 1
    29   14   53 1
    30   14   54 1
    31   15   16 1
    32   15   55 1
    33   15   56 1
    34   16   17 1
    35   16   57 1
    36   16   58 1
    37   17   24 1
    38   17   18 1
    39   17   40 1
    40   18   19 1
    41   18   20 1
    42   20   21 2
    43   20   22 1
    44   22   23 2
    45   22   59 1
    46   23   28 1
    47   23   24 1
    48   24   25 1
    49   24   39 1
    50   25   26 1
    51   25   60 1
    52   25   61 1
    53   26   27 1
    54   26   62 1
    55   26   63 1
    56   27   33 1
    57   27   28 1
    58   27   38 1
    59   28   29 1
    60   28   30 1
    61   30   31 1
    62   30   64 1
    63   30   65 1
    64   31   32 1
    65   31   34 1
    66   31   35 1
    67   32   33 1
    68   32   66 1
    69   32   67 1
    70   33   68 1
    71   33   69 1
    72   34   70 1
    73   34   71 1
    74   34   72 1
    75   35   36 2
    76   35   37 1
    77   38   73 1
    78   38   74 1
    79   38   75 1
    80   39   76 1
    81   39   77 1
    82   39   78 1
    83   40   79 1
    84   40   80 1
    85   40   81 1
    86   41   82 1
    87   41   83 1
    88   41   84 1
@<TRIPOS>MOLECULE
ZINC02096472
   54    56     0     0     0
SMALL
USER_CHARGES

@<TRIPOS>ATOM
      1 C1         -0.0187    1.5258    0.0104 C.3       1 <0>        -0.1201
      2 C2          0.0021   -0.0041    0.0020 C.3       1 <0>        -0.1106
      3 C3          0.7406   -0.6715   -1.1987 C.3       1 <0>        -0.1113
      4 C4          1.0386   -2.1100   -0.7160 C.3       1 <0>        -0.1072
      5 C5          0.4497   -2.1652    0.7273 C.3       1 <0>        -0.1447
      6 C6          0.7266   -0.6972    1.2100 C.3       1 <0>        -0.0208
      7 C7          0.0555   -0.3751    2.5468 C.3       1 <0>        -0.1491
      8 C8          2.2253   -0.3904    1.2366 C.3       1 <0>        -0.1389
      9 C9         -1.0708   -2.1071    0.5207 C.2       1 <0>         0.3326
     10 O1         -1.8670   -2.9979    0.6987 O.2       1 <0>        -0.3784
     11 C10        -1.3669   -0.6969    0.0651 C.2       1 <0>         0.3319
     12 O2         -2.4414   -0.2184   -0.2098 O.2       1 <0>        -0.3769
     13 C11         0.9701   -3.2689    1.6117 C.2       1 <0>         0.5536
     14 O3          1.5515   -2.9980    2.6410 O.2       1 <0>        -0.5153
     15 N1          0.7894   -4.5570    1.2588 N.am      1 <0>        -0.7221
     16 C12         1.2952   -5.6299    2.1185 C.3       1 <0>         0.1247
     17 C13         0.9604   -6.9854    1.4929 C.3       1 <0>        -0.0879
     18 C14         1.4807   -8.0891    2.3773 C.ar      1 <0>        -0.0817
     19 C15         2.7622   -8.5741    2.1933 C.ar      1 <0>        -0.1084
     20 C16         3.2442   -9.5865    3.0019 C.ar      1 <0>        -0.1704
     21 C17         2.4425  -10.1171    3.9998 C.ar      1 <0>         0.1000
     22 C18         1.1528   -9.6286    4.1853 C.ar      1 <0>         0.1022
     23 C19         0.6776   -8.6104    3.3744 C.ar      1 <0>        -0.1656
     24 O4          0.3622  -10.1461    5.1634 O.3       1 <0>        -0.3058
     25 C20        -0.9500   -9.5959    5.2958 C.3       1 <0>         0.0253
     26 O5          2.9150  -11.1133    4.7959 O.3       1 <0>        -0.3065
     27 C21         4.2477  -11.5653    4.5477 C.3       1 <0>         0.0256
     28 H1          1.0039    1.9031    0.0027 H         1 <0>         0.0767
     29 H2         -0.5459    1.8868   -0.8726 H         1 <0>         0.0707
     30 H3         -0.5289    1.8773    0.9072 H         1 <0>         0.0678
     31 H4          0.0973   -0.6907   -2.0784 H         1 <0>         0.0804
     32 H5          1.6688   -0.1430   -1.4162 H         1 <0>         0.0991
     33 H6          0.5420   -2.8376   -1.3579 H         1 <0>         0.0814
     34 H7          2.1135   -2.2899   -0.6957 H         1 <0>         0.0987
     35 H8         -0.9851   -0.6981    2.5180 H         1 <0>         0.0445
     36 H9          0.5760   -0.8971    3.3497 H         1 <0>         0.0848
     37 H10         0.0976    0.6994    2.7249 H         1 <0>         0.0742
     38 H11         2.3744    0.6834    1.3501 H         1 <0>         0.0680
     39 H12         2.6881   -0.9120    2.0743 H         1 <0>         0.0773
     40 H13         2.6810   -0.7240    0.3044 H         1 <0>         0.0647
     41 H14         0.3244   -4.7736    0.4355 H         1 <0>         0.4023
     42 H15         2.3761   -5.5342    2.2211 H         1 <0>         0.0748
     43 H16         0.8292   -5.5583    3.1012 H         1 <0>         0.0717
     44 H17        -0.1206   -7.0812    1.3902 H         1 <0>         0.0805
     45 H18         1.4264   -7.0571    0.5101 H         1 <0>         0.0825
     46 H19         3.3881   -8.1614    1.4159 H         1 <0>         0.1282
     47 H20         4.2454   -9.9641    2.8557 H         1 <0>         0.1368
     48 H21        -0.3217   -8.2270    3.5187 H         1 <0>         0.1358
     49 H22        -1.5006   -9.7416    4.3664 H         1 <0>         0.0552
     50 H23        -1.4733  -10.0966    6.1104 H         1 <0>         0.1020
     51 H24        -0.8770   -8.5300    5.5116 H         1 <0>         0.0554
     52 H25         4.4989  -12.3595    5.2507 H         1 <0>         0.1016
     53 H26         4.3183  -11.9461    3.5288 H         1 <0>         0.0553
     54 H27         4.9424  -10.7349    4.6742 H         1 <0>         0.0555
@<TRIPOS>BOND
     1    1    2 1
     2    1   28 1
     3    1   29 1
     4    1   30 1
     5    2    6 1
     6    2   11 1
     7    2    3 1
     8    3    4 1
     9    3   31 1
    10    3   32 1
    11    4    5 1
    12    4   33 1
    13    4   34 1
    14    5    6 1
    15    5    9 1
    16    5   13 1
    17    6    7 1
    18    6    8 1
    19    7   35 1
    20    7   36 1
    21    7   37 1
    22    8   38 1
    23    8   39 1
    24    8   40 1
    25    9   10 2
    26    9   11 1
    27   11   12 2
    28   13   14 2
    29   13   15 am
    30   15   16 1
    31   15   41 1
    32   16   17 1
    33   16   42 1
    34   16   43 1
    35   17   18 1
    36   17   44 1
    37   17   45 1
    38   18   23 ar
    39   18   19 ar
    40   19   20 ar
    41   19   46 1
    42   20   21 ar
    43   20   47 1
    44   21   22 ar
    45   21   26 1
    46   22   23 ar
    47   22   24 1
    48   23   48 1
    49   24   25 1
    50   25   49 1
    51   25   50 1
    52   25   51 1
    53   26   27 1
    54   27   52 1
    55   27   53 1
    56   27   54 1
@<TRIPOS>MOLECULE
ZINC02172613
   54    56     0     0     0
SMALL
USER_CHARGES

@<TRIPOS>ATOM
      1 C1         -0.0187    1.5258    0.0104 C.3       1 <0>        -0.1201
      2 C2          0.0021   -0.0041    0.0020 C.3       1 <0>        -0.1107
      3 C3         -1.3890   -0.7073    0.0580 C.3       1 <0>        -0.1113
      4 C4         -1.0746   -2.1456    0.5311 C.3       1 <0>        -0.1072
      5 C5          0.4744   -2.1647    0.7127 C.3       1 <0>        -0.1447
      6 C6          0.7266   -0.6972    1.2100 C.3       1 <0>        -0.0208
      7 C7          0.0182   -0.4275    2.5391 C.3       1 <0>        -0.1389
      8 C8          2.2127   -0.3388    1.2738 C.3       1 <0>        -0.1491
      9 C9          1.0268   -2.0719   -0.7171 C.2       1 <0>         0.3324
     10 O1          1.5889   -2.9400   -1.3412 O.2       1 <0>        -0.3780
     11 C10         0.7359   -0.6615   -1.1759 C.2       1 <0>         0.3320
     12 O2          1.0015   -0.1609   -2.2425 O.2       1 <0>        -0.3768
     13 C11         1.0246   -3.2679    1.5795 C.2       1 <0>         0.5536
     14 O3          1.6379   -2.9965    2.5900 O.2       1 <0>        -0.5152
     15 N1          0.8351   -4.5562    1.2317 N.am      1 <0>        -0.7222
     16 C12         1.3700   -5.6287    2.0744 C.3       1 <0>         0.1247
     17 C13         1.0180   -6.9845    1.4589 C.3       1 <0>        -0.0879
     18 C14         1.5681   -8.0877    2.3257 C.ar      1 <0>        -0.0819
     19 C15         2.8441   -8.5702    2.1009 C.ar      1 <0>        -0.1080
     20 C16         3.3533   -9.5821    2.8932 C.ar      1 <0>        -0.1700
     21 C17         2.5847  -10.1147    3.9157 C.ar      1 <0>         0.1001
     22 C18         1.3006   -9.6287    4.1423 C.ar      1 <0>         0.1016
     23 C19         0.7980   -8.6110    3.3475 C.ar      1 <0>        -0.1655
     24 O4          0.5423  -10.1482    5.1446 O.3       1 <0>        -0.3059
     25 C20        -0.7660   -9.6005    5.3190 C.3       1 <0>         0.0257
     26 O5          3.0839  -11.1105    4.6959 O.3       1 <0>        -0.3065
     27 C21         4.4090  -11.5598    4.4052 C.3       1 <0>         0.0254
     28 H1          1.0039    1.9031    0.0027 H         1 <0>         0.0679
     29 H2         -0.5459    1.8868   -0.8726 H         1 <0>         0.0707
     30 H3         -0.5289    1.8773    0.9072 H         1 <0>         0.0767
     31 H4         -2.0409   -0.2053    0.7730 H         1 <0>         0.0990
     32 H5         -1.8476   -0.7234   -0.9307 H         1 <0>         0.0804
     33 H6         -1.5716   -2.3518    1.4790 H         1 <0>         0.0985
     34 H7         -1.3783   -2.8699   -0.2247 H         1 <0>         0.0814
     35 H8         -1.0096   -0.7860    2.4823 H         1 <0>         0.0646
     36 H9          0.5408   -0.9481    3.3415 H         1 <0>         0.0772
     37 H10         0.0188    0.6438    2.7402 H         1 <0>         0.0680
     38 H11         2.3214    0.7368    1.4125 H         1 <0>         0.0742
     39 H12         2.6770   -0.8618    2.1098 H         1 <0>         0.0849
     40 H13         2.6983   -0.6362    0.3443 H         1 <0>         0.0446
     41 H14         0.3447   -4.7733    0.4235 H         1 <0>         0.4023
     42 H15         2.4534   -5.5310    2.1427 H         1 <0>         0.0731
     43 H16         0.9352   -5.5584    3.0714 H         1 <0>         0.0733
     44 H17        -0.0655   -7.0822    1.3905 H         1 <0>         0.0800
     45 H18         1.4527   -7.0547    0.4618 H         1 <0>         0.0830
     46 H19         3.4442   -8.1559    1.3042 H         1 <0>         0.1283
     47 H20         4.3501   -9.9577    2.7150 H         1 <0>         0.1368
     48 H21        -0.1969   -8.2295    3.5236 H         1 <0>         0.1358
     49 H22        -1.3455   -9.7468    4.4074 H         1 <0>         0.0548
     50 H23        -1.2623  -10.1026    6.1495 H         1 <0>         0.1017
     51 H24        -0.6881   -8.5346    5.5330 H         1 <0>         0.0552
     52 H25         4.6838  -12.3539    5.0994 H         1 <0>         0.1017
     53 H26         4.4479  -11.9400    3.3844 H         1 <0>         0.0554
     54 H27         5.1058  -10.7282    4.5101 H         1 <0>         0.0556
@<TRIPOS>BOND
     1    1    2 1
     2    1   28 1
     3    1   29 1
     4    1   30 1
     5    2    6 1
     6    2   11 1
     7    2    3 1
     8    3    4 1
     9    3   31 1
    10    3   32 1
    11    4    5 1
    12    4   33 1
    13    4   34 1
    14    5    6 1
    15    5    9 1
    16    5   13 1
    17    6    7 1
    18    6    8 1
    19    7   35 1
    20    7   36 1
    21    7   37 1
    22    8   38 1
    23    8   39 1
    24    8   40 1
    25    9   10 2
    26    9   11 1
    27   11   12 2
    28   13   14 2
    29   13   15 am
    30   15   16 1
    31   15   41 1
    32   16   17 1
    33   16   42 1
    34   16   43 1
    35   17   18 1
    36   17   44 1
    37   17   45 1
    38   18   23 ar
    39   18   19 ar
    40   19   20 ar
    41   19   46 1
    42   20   21 ar
    43   20   47 1
    44   21   22 ar
    45   21   26 1
    46   22   23 ar
    47   22   24 1
    48   23   48 1
    49   24   25 1
    50   25   49 1
    51   25   50 1
    52   25   51 1
    53   26   27 1
    54   27   52 1
    55   27   53 1
    56   27   54 1
@<TRIPOS>MOLECULE
ZINC04782861
   76    79     0     0     0
SMALL
USER_CHARGES
4-(3-acetoxy-4,4,10,13,14-pentamethyl-7,11-dioxo-2,3,5,6,12,15,16,17-octahydro-1H-cyclopenta[a]phenanthren-17-yl)pentanoic acid
@<TRIPOS>ATOM
      1 C1          1.6467    3.6223    0.9552 C.3       1 <0>        -0.1537
      2 C2          0.3124    4.0571    0.3456 C.3       1 <0>        -0.0911
      3 H1          0.2039    3.6142   -0.6445 H         1 <0>         0.0741
      4 C3          0.2780    5.5822    0.2287 C.3       1 <0>        -0.0931
      5 C4          1.3461    6.0418   -0.7656 C.3       1 <0>        -0.1573
      6 C5          1.3121    7.5440   -0.8807 C.2       1 <0>         0.4567
      7 O1          0.5153    8.1816   -0.2338 O.co2     1 <0>        -0.6425
      8 C6         -0.8355    3.5880    1.2430 C.3       1 <0>        -0.0670
      9 H2         -0.6975    3.9566    2.2560 H         1 <0>         0.0770
     10 C7         -2.1929    4.0600    0.6642 C.3       1 <0>        -0.1223
     11 C8         -3.0937    2.7998    0.5561 C.3       1 <0>        -0.0961
     12 C9         -2.4175    1.7986    1.4981 C.3       1 <0>        -0.0312
     13 C10        -0.9188    2.0607    1.2307 C.3       1 <0>        -0.0473
     14 C11        -0.1117    1.3297    2.2821 C.3       1 <0>        -0.1450
     15 C12        -0.4798   -0.1435    2.1799 C.2       1 <0>         0.3958
     16 O2          0.3417   -0.9562    2.5560 O.2       1 <0>        -0.4415
     17 C13        -1.7851   -0.5664    1.6415 C.2       1 <0>        -0.1115
     18 C14        -2.7113    0.3536    1.2735 C.2       1 <0>        -0.0897
     19 C15        -3.9985   -0.0410    0.6786 C.2       1 <0>         0.3849
     20 O3         -4.8260    0.7914    0.3703 O.2       1 <0>        -0.4262
     21 C16        -4.2874   -1.5133    0.4541 C.3       1 <0>        -0.1496
     22 C17        -3.5836   -2.2652    1.5880 C.3       1 <0>        -0.0594
     23 H3         -3.9098   -1.7591    2.5317 H         1 <0>         0.0716
     24 C18        -2.0854   -2.0458    1.4978 C.3       1 <0>        -0.0075
     25 C19        -1.3528   -2.8429    2.5715 C.3       1 <0>        -0.1092
     26 C20        -1.7380   -4.3214    2.4903 C.3       1 <0>        -0.1348
     27 C21        -3.2335   -4.4833    2.7283 C.3       1 <0>         0.1022
     28 H4         -3.4824   -4.1181    3.7288 H         1 <0>         0.0846
     29 C22        -4.0477   -3.7010    1.6961 C.3       1 <0>        -0.0412
     30 C23        -4.0242   -4.4304    0.3530 C.3       1 <0>        -0.1423
     31 C24        -5.5130   -3.7021    2.1934 C.3       1 <0>        -0.1523
     32 O4         -3.5864   -5.8920    2.6458 O.3       1 <0>        -0.3481
     33 C25        -3.5346   -6.6009    3.7844 C.2       1 <0>         0.4565
     34 O5         -3.2059   -6.0642    4.8158 O.2       1 <0>        -0.5137
     35 C26        -3.8866   -8.0662    3.7764 C.3       1 <0>        -0.1478
     36 C27        -1.5394   -2.4614    0.1292 C.3       1 <0>        -0.1500
     37 C28        -0.5245    1.5606   -0.1655 C.3       1 <0>        -0.1530
     38 C29        -2.7887    2.1625    2.9401 C.3       1 <0>        -0.1380
     39 H5          1.6975    2.5338    0.9797 H         1 <0>         0.0504
     40 H6          2.4662    4.0108    0.3505 H         1 <0>         0.0599
     41 H7          1.7270    4.0127    1.9697 H         1 <0>         0.0522
     42 H8         -0.7047    5.8976   -0.1220 H         1 <0>         0.0629
     43 H9          0.4750    6.0259    1.2046 H         1 <0>         0.0577
     44 H10         2.3288    5.7264   -0.4148 H         1 <0>         0.0630
     45 H11         1.1490    5.5981   -1.7415 H         1 <0>         0.0592
     46 H12        -2.0441    4.4980   -0.3243 H         1 <0>         0.0741
     47 H13        -2.6494    4.7946    1.3276 H         1 <0>         0.0675
     48 H14        -3.1286    2.4246   -0.4636 H         1 <0>         0.0666
     49 H15        -4.1043    3.0251    0.9092 H         1 <0>         0.0726
     50 H16         0.8636    1.4480    2.0955 H         1 <0>         0.0932
     51 H17        -0.2908    1.7080    3.2831 H         1 <0>         0.1070
     52 H18        -3.9392   -1.7884   -0.4420 H         1 <0>         0.1008
     53 H19        -5.3695   -1.6674    0.5081 H         1 <0>         0.1026
     54 H20        -0.2736   -2.7725    2.4121 H         1 <0>         0.1053
     55 H21        -1.6025   -2.4521    3.5574 H         1 <0>         0.0643
     56 H22        -1.4553   -4.7402    1.5292 H         1 <0>         0.0786
     57 H23        -1.1939   -4.8669    3.2722 H         1 <0>         0.0677
     58 H24        -4.5513   -5.3799    0.4459 H         1 <0>         0.0659
     59 H25        -4.5132   -3.8157   -0.4028 H         1 <0>         0.0595
     60 H26        -2.9913   -4.6156    0.0582 H         1 <0>         0.0627
     61 H27        -5.5651   -3.2244    3.1718 H         1 <0>         0.0547
     62 H28        -6.1367   -3.1536    1.4876 H         1 <0>         0.0635
     63 H29        -5.8695   -4.7293    2.2713 H         1 <0>         0.0627
     64 H30        -4.1557   -8.3697    2.7647 H         1 <0>         0.0905
     65 H31        -3.0287   -8.6478    4.1141 H         1 <0>         0.1036
     66 H32        -4.7298   -8.2410    4.4446 H         1 <0>         0.1034
     67 H33        -0.4889   -2.1800    0.0564 H         1 <0>         0.0624
     68 H34        -1.6354   -3.5408    0.0123 H         1 <0>         0.0727
     69 H35        -2.1053   -1.9592   -0.6555 H         1 <0>         0.0597
     70 H36        -0.7338    0.4936   -0.2417 H         1 <0>         0.0476
     71 H37         0.5394    1.7346   -0.3267 H         1 <0>         0.0707
     72 H38        -1.0990    2.0984   -0.9197 H         1 <0>         0.0685
     73 H39        -2.5818    3.2186    3.1130 H         1 <0>         0.0739
     74 H40        -3.8489    1.9686    3.1023 H         1 <0>         0.0582
     75 H41        -2.1992    1.5591    3.6304 H         1 <0>         0.0538
     76 O6          2.1671    8.1737   -1.7019 O.co2     1 <0>        -0.7806
@<TRIPOS>BOND
     1    1    2 1
     2    1   39 1
     3    1   40 1
     4    1   41 1
     5    2    3 1
     6    2    4 1
     7    2    8 1
     8    4    5 1
     9    4   42 1
    10    4   43 1
    11    5    6 1
    12    5   44 1
    13    5   45 1
    14    6    7 2
    15    6   76 1
    16    8    9 1
    17    8   13 1
    18    8   10 1
    19   10   11 1
    20   10   46 1
    21   10   47 1
    22   11   12 1
    23   11   48 1
    24   11   49 1
    25   12   18 1
    26   12   13 1
    27   12   38 1
    28   13   14 1
    29   13   37 1
    30   14   15 1
    31   14   50 1
    32   14   51 1
    33   15   16 2
    34   15   17 1
    35   17   24 1
    36   17   18 2
    37   18   19 1
    38   19   20 2
    39   19   21 1
    40   21   22 1
    41   21   52 1
    42   21   53 1
    43   22   23 1
    44   22   29 1
    45   22   24 1
    46   24   25 1
    47   24   36 1
    48   25   26 1
    49   25   54 1
    50   25   55 1
    51   26   27 1
    52   26   56 1
    53   26   57 1
    54   27   28 1
    55   27   29 1
    56   27   32 1
    57   29   30 1
    58   29   31 1
    59   30   58 1
    60   30   59 1
    61   30   60 1
    62   31   61 1
    63   31   62 1
    64   31   63 1
    65   32   33 1
    66   33   34 2
    67   33   35 1
    68   35   64 1
    69   35   65 1
    70   35   66 1
    71   36   67 1
    72   36   68 1
    73   36   69 1
    74   37   70 1
    75   37   71 1
    76   37   72 1
    77   38   73 1
    78   38   74 1
    79   38   75 1
@<TRIPOS>MOLECULE
ZINC36286479
   37    38     0     0     0
SMALL
USER_CHARGES

@<TRIPOS>ATOM
      1 C1         -0.9218    1.8606    0.2204 C.3       1 <0>        -0.1410
      2 C2         -1.3559    0.8451    1.2794 C.3       1 <0>         0.1433
      3 H1         -1.5705   -0.1111    0.8023 H         1 <0>         0.0742
      4 C3         -2.6104    1.3547    1.9957 C.3       1 <0>        -0.1326
      5 C4         -2.9584    0.4050    3.1443 C.3       1 <0>        -0.1222
      6 C5         -1.8059    0.3753    4.1508 C.3       1 <0>        -0.1301
      7 C6         -0.5422   -0.1454    3.4588 C.3       1 <0>         0.1415
      8 H2         -0.6898   -1.1837    3.1617 H         1 <0>         0.0781
      9 N1         -0.2813    0.6730    2.2664 N.am      1 <0>        -0.6011
     10 C7          0.9193    1.2574    2.0834 C.2       1 <0>         0.5698
     11 O1          1.0597    2.1002    1.2182 O.2       1 <0>        -0.5154
     12 C8          2.0632    0.8745    2.9327 C.ar      1 <0>        -0.1424
     13 C9          2.6084   -0.4091    2.8361 C.ar      1 <0>        -0.0217
     14 C10         3.6763   -0.7638    3.6302 C.ar      1 <0>        -0.1207
     15 C11         4.2129    0.1549    4.5289 C.ar      1 <0>         0.2592
     16 C12         3.6715    1.4342    4.6276 C.ar      1 <0>        -0.1129
     17 C13         2.6076    1.7964    3.8314 C.ar      1 <0>        -0.0245
     18 Cl1         4.3429    2.5758    5.7499 Cl        1 <0>        -0.0517
     19 N2          5.2921   -0.2063    5.3301 N.pl3     1 <0>        -0.8536
     20 Cl2         4.3536   -2.3578    3.5114 Cl        1 <0>        -0.0523
     21 C14         0.6447   -0.0507    4.4197 C.3       1 <0>        -0.2065
     22 H3         -0.0306    1.4951   -0.2897 H         1 <0>         0.0703
     23 H4         -1.7251    1.9962   -0.5037 H         1 <0>         0.0472
     24 H5         -0.7005    2.8139    0.7003 H         1 <0>         0.0738
     25 H6         -2.4228    2.3523    2.3927 H         1 <0>         0.0686
     26 H7         -3.4413    1.3933    1.2912 H         1 <0>         0.0766
     27 H8         -3.8649    0.7518    3.6403 H         1 <0>         0.0682
     28 H9         -3.1217   -0.5978    2.7495 H         1 <0>         0.0651
     29 H10        -1.6258    1.3821    4.5275 H         1 <0>         0.0688
     30 H11        -2.0641   -0.2832    4.9802 H         1 <0>         0.0773
     31 H12         2.1924   -1.1220    2.1396 H         1 <0>         0.1440
     32 H13         2.1912    2.7902    3.9050 H         1 <0>         0.1453
     33 H14         5.6697   -1.0973    5.2624 H         1 <0>         0.4077
     34 H15         5.6666    0.4328    5.9564 H         1 <0>         0.4078
     35 H16         0.3226   -0.3278    5.4234 H         1 <0>         0.0662
     36 H17         1.4330   -0.7279    4.0911 H         1 <0>         0.0854
     37 H18         1.0240    0.9712    4.4289 H         1 <0>         0.0903
@<TRIPOS>BOND
     1    1    2 1
     2    1   22 1
     3    1   23 1
     4    1   24 1
     5    2    3 1
     6    2    9 1
     7    2    4 1
     8    4    5 1
     9    4   25 1
    10    4   26 1
    11    5    6 1
    12    5   27 1
    13    5   28 1
    14    6    7 1
    15    6   29 1
    16    6   30 1
    17    7    8 1
    18    7    9 1
    19    7   21 1
    20    9   10 am
    21   10   11 2
    22   10   12 1
    23   12   17 ar
    24   12   13 ar
    25   13   14 ar
    26   13   31 1
    27   14   15 ar
    28   14   20 1
    29   15   16 ar
    30   15   19 1
    31   16   17 ar
    32   16   18 1
    33   17   32 1
    34   19   33 1
    35   19   34 1
    36   21   35 1
    37   21   36 1
    38   21   37 1
@<TRIPOS>MOLECULE
ZINC19203131
   79    83     0     0     0
SMALL
USER_CHARGES

@<TRIPOS>ATOM
      1 C1          0.4728    1.2638   -2.5373 C.3       1 <0>        -0.1453
      2 C2          0.5659   -0.2603   -2.5689 C.3       1 <0>        -0.0436
      3 C3         -0.7274   -0.8397   -3.1412 C.3       1 <0>        -0.1021
      4 C4         -1.9076   -0.5242   -2.2273 C.3       1 <0>        -0.0883
      5 C5         -1.6737   -1.0494   -0.8135 C.3       1 <0>        -0.1254
      6 C6         -0.3635   -0.5044   -0.2441 C.3       1 <0>        -0.0766
      7 C7          0.8019   -0.8177   -1.1676 C.3       1 <0>        -0.0495
      8 H1          0.9219   -1.9079   -1.2407 H         1 <0>         0.0798
      9 C8          2.0968   -0.2452   -0.6259 C.2       1 <0>        -0.0068
     10 C9          2.0888    0.2608    0.6067 C.2       1 <0>        -0.2597
     11 C10         3.3159    0.8078    1.2119 C.2       1 <0>         0.3996
     12 O1          3.2472    1.4848    2.2154 O.2       1 <0>        -0.4514
     13 C11         4.6120    0.4416    0.5262 C.3       1 <0>        -0.1125
     14 H2          4.7766   -0.6430    0.7099 H         1 <0>         0.0950
     15 C12         5.8177    1.1540    1.1304 C.3       1 <0>        -0.0230
     16 C13         6.0278    0.6085    2.5540 C.3       1 <0>        -0.1166
     17 C14         7.2812    1.2327    3.1599 C.3       1 <0>        -0.1468
     18 C15         8.5107    0.8346    2.3542 C.3       1 <0>         0.1188
     19 H3          8.6616   -0.2474    2.4399 H         1 <0>         0.0474
     20 C16         8.3805    1.1993    0.8761 C.3       1 <0>        -0.0368
     21 C17         7.0445    0.7997    0.2951 C.3       1 <0>        -0.0597
     22 H4          7.0507   -0.3175    0.2270 H         1 <0>         0.0593
     23 C18         6.8452    1.2956   -1.1367 C.3       1 <0>        -0.1137
     24 C19         5.7031    0.4800   -1.7608 C.3       1 <0>        -0.1071
     25 C20         4.4163    0.6494   -0.9686 C.3       1 <0>        -0.0216
     26 C21         3.3288   -0.2993   -1.4852 C.3       1 <0>        -0.0139
     27 C22         3.0390   -0.0304   -2.9542 C.3       1 <0>        -0.1046
     28 C23         1.7502   -0.6848   -3.4418 C.3       1 <0>        -0.1101
     29 C24         3.8613   -1.7371   -1.3874 C.3       1 <0>        -0.1491
     30 C25         3.8884    2.0744   -1.2110 C.3       1 <0>        -0.1707
     31 C26         9.4833    0.4010    0.1348 C.3       1 <0>        -0.1463
     32 C27         8.6956    2.6818    0.6756 C.3       1 <0>        -0.1327
     33 O2          9.6631    1.4926    2.8961 O.3       1 <0>        -0.5663
     34 C28         5.6034    2.6605    1.2285 C.3       1 <0>        -0.1601
     35 C29        -1.6538   -2.5782   -0.8159 C.3       1 <0>        -0.1185
     36 C30        -2.8131   -0.5861    0.0688 C.2       1 <0>         0.4997
     37 O3         -3.9583   -0.9123   -0.1929 O.co2     1 <0>        -0.7001
     38 O4         -2.5855    0.1133    1.0412 O.co2     1 <0>        -0.6966
     39 H5          1.4030    1.6767   -2.1470 H         1 <0>         0.0565
     40 H6          0.3044    1.6385   -3.5470 H         1 <0>         0.0486
     41 H7         -0.3555    1.5640   -1.8956 H         1 <0>         0.0641
     42 H8         -0.9070   -0.3913   -4.1254 H         1 <0>         0.0521
     43 H9         -0.6208   -1.9161   -3.2703 H         1 <0>         0.0580
     44 H10        -2.0885    0.5497   -2.1934 H         1 <0>         0.0539
     45 H11        -2.8078   -1.0027   -2.6337 H         1 <0>         0.0579
     46 H12        -0.4517    0.5698   -0.0832 H         1 <0>         0.0694
     47 H13        -0.1860   -0.9801    0.7303 H         1 <0>         0.0545
     48 H14         1.1756    0.2770    1.1841 H         1 <0>         0.1443
     49 H15         5.1612    0.8568    3.1640 H         1 <0>         0.0820
     50 H16         6.1422   -0.4741    2.5041 H         1 <0>         0.0567
     51 H17         7.1963    2.3129    3.2228 H         1 <0>         0.0774
     52 H18         7.3962    0.8516    4.1861 H         1 <0>         0.0560
     53 H19         6.6122    2.3509   -1.1698 H         1 <0>         0.0709
     54 H20         7.7484    1.1145   -1.7252 H         1 <0>         0.0629
     55 H21         5.5508    0.8257   -2.7879 H         1 <0>         0.0676
     56 H22         6.0226   -0.5618   -1.7899 H         1 <0>         0.0668
     57 H23         3.0207    1.0230   -3.2073 H         1 <0>         0.0738
     58 H24         3.8698   -0.4674   -3.5442 H         1 <0>         0.0569
     59 H25         1.8467   -1.7704   -3.4156 H         1 <0>         0.0606
     60 H26         1.5557   -0.3753   -4.4732 H         1 <0>         0.0615
     61 H27         3.1022   -2.4310   -1.7484 H         1 <0>         0.0616
     62 H28         4.7605   -1.8337   -1.9958 H         1 <0>         0.0639
     63 H29         4.0989   -1.9667   -0.3487 H         1 <0>         0.0560
     64 H30         4.6488    2.7983   -0.9179 H         1 <0>         0.0676
     65 H31         3.6551    2.2005   -2.2683 H         1 <0>         0.0645
     66 H32         2.9874    2.2339   -0.6186 H         1 <0>         0.0600
     67 H33         9.3261   -0.6663    0.2905 H         1 <0>         0.0486
     68 H34         9.4381    0.6231   -0.9314 H         1 <0>         0.0555
     69 H35        10.4611    0.6848    0.5239 H         1 <0>         0.0593
     70 H36         9.7493    2.8614    0.8889 H         1 <0>         0.0584
     71 H37         8.4806    2.9627   -0.3554 H         1 <0>         0.0517
     72 H38         8.0815    3.2782    1.3503 H         1 <0>         0.0569
     73 H39         9.8421    1.2742    3.8210 H         1 <0>         0.3732
     74 H40         4.6128    2.8608    1.6367 H         1 <0>         0.0742
     75 H41         6.3602    3.0933    1.8827 H         1 <0>         0.0601
     76 H42         5.6841    3.1044    0.2362 H         1 <0>         0.0592
     77 H43        -0.8518   -2.9301   -1.4649 H         1 <0>         0.0380
     78 H44        -1.4862   -2.9410    0.1982 H         1 <0>         0.0413
     79 H45        -2.6091   -2.9534   -1.1829 H         1 <0>         0.0539
@<TRIPOS>BOND
     1    1    2 1
     2    1   39 1
     3    1   40 1
     4    1   41 1
     5    2    7 1
     6    2   28 1
     7    2    3 1
     8    3    4 1
     9    3   42 1
    10    3   43 1
    11    4    5 1
    12    4   44 1
    13    4   45 1
    14    5    6 1
    15    5   35 1
    16    5   36 1
    17    6    7 1
    18    6   46 1
    19    6   47 1
    20    7    8 1
    21    7    9 1
    22    9   26 1
    23    9   10 2
    24   10   11 1
    25   10   48 1
    26   11   12 2
    27   11   13 1
    28   13   14 1
    29   13   25 1
    30   13   15 1
    31   15   21 1
    32   15   16 1
    33   15   34 1
    34   16   17 1
    35   16   49 1
    36   16   50 1
    37   17   18 1
    38   17   51 1
    39   17   52 1
    40   18   19 1
    41   18   20 1
    42   18   33 1
    43   20   21 1
    44   20   31 1
    45   20   32 1
    46   21   22 1
    47   21   23 1
    48   23   24 1
    49   23   53 1
    50   23   54 1
    51   24   25 1
    52   24   55 1
    53   24   56 1
    54   25   26 1
    55   25   30 1
    56   26   27 1
    57   26   29 1
    58   27   28 1
    59   27   57 1
    60   27   58 1
    61   28   59 1
    62   28   60 1
    63   29   61 1
    64   29   62 1
    65   29   63 1
    66   30   64 1
    67   30   65 1
    68   30   66 1
    69   31   67 1
    70   31   68 1
    71   31   69 1
    72   32   70 1
    73   32   71 1
    74   32   72 1
    75   33   73 1
    76   34   74 1
    77   34   75 1
    78   34   76 1
    79   35   77 1
    80   35   78 1
    81   35   79 1
    82   36   37 2
    83   36   38 1
@<TRIPOS>MOLECULE
ZINC19203131
   79    83     0     0     0
SMALL
USER_CHARGES

@<TRIPOS>ATOM
      1 C1          0.6456    1.7280   -2.5152 C.3       1 <0>        -0.1468
      2 C2          0.6518    0.1970   -2.6000 C.3       1 <0>        -0.0447
      3 C3         -0.6848   -0.2429   -3.1979 C.3       1 <0>        -0.1006
      4 C4         -0.7983   -1.7627   -3.2148 C.3       1 <0>        -0.0867
      5 C5         -0.6469   -2.3346   -1.8057 C.3       1 <0>        -0.1308
      6 C6          0.6905   -1.8984   -1.2096 C.3       1 <0>        -0.0666
      7 C7          0.8269   -0.3802   -1.1995 C.3       1 <0>        -0.0489
      8 H1          0.0653    0.0529   -0.5359 H         1 <0>         0.1118
      9 C8          2.1956   -0.0004   -0.6658 C.2       1 <0>         0.0093
     10 C9          2.2431    0.3732    0.6187 C.2       1 <0>        -0.2654
     11 C10         3.5050    0.7729    1.2574 C.2       1 <0>         0.4015
     12 O1          3.4908    1.2728    2.3648 O.2       1 <0>        -0.4605
     13 C11         4.7755    0.5041    0.4842 C.3       1 <0>        -0.1130
     14 H2          4.9710   -0.5882    0.5585 H         1 <0>         0.0967
     15 C12         5.9968    1.1756    1.1081 C.3       1 <0>        -0.0223
     16 C13         6.2668    0.5019    2.4653 C.3       1 <0>        -0.1186
     17 C14         7.5457    1.0708    3.0731 C.3       1 <0>        -0.1465
     18 C15         8.7380    0.7505    2.1811 C.3       1 <0>         0.1179
     19 H3          8.8771   -0.3354    2.1410 H         1 <0>         0.0474
     20 C16         8.5467    1.2746    0.7575 C.3       1 <0>        -0.0367
     21 C17         7.1909    0.9192    0.1935 C.3       1 <0>        -0.0601
     22 H4          7.2045   -0.1851    0.0186 H         1 <0>         0.0594
     23 C18         6.9293    1.5468   -1.1745 C.3       1 <0>        -0.1134
     24 C19         5.7696    0.7824   -1.8319 C.3       1 <0>        -0.1067
     25 C20         4.5187    0.8570   -0.9725 C.3       1 <0>        -0.0239
     26 C21         3.4148   -0.0527   -1.5342 C.3       1 <0>        -0.0148
     27 C22         3.1328    0.2991   -2.9871 C.3       1 <0>        -0.1033
     28 C23         1.8055   -0.2685   -3.4816 C.3       1 <0>        -0.1081
     29 C24         3.9437   -1.4937   -1.5089 C.3       1 <0>        -0.1536
     30 C25         3.9623    2.2877   -1.0594 C.3       1 <0>        -0.1702
     31 C26         9.6271    0.5811   -0.1099 C.3       1 <0>        -0.1461
     32 C27         8.8355    2.7751    0.7129 C.3       1 <0>        -0.1331
     33 O2          9.9195    1.3359    2.7401 O.3       1 <0>        -0.5661
     34 C28         5.7635    2.6614    1.3574 C.3       1 <0>        -0.1571
     35 C29        -0.6693   -3.8687   -1.8928 C.3       1 <0>        -0.1216
     36 C30        -1.7831   -1.8866   -0.9274 C.2       1 <0>         0.5075
     37 O3         -2.9311   -2.1716   -1.2230 O.co2     1 <0>        -0.7014
     38 O4         -1.5560   -1.2384    0.0799 O.co2     1 <0>        -0.6930
     39 H5          1.5894    2.0723   -2.0923 H         1 <0>         0.0573
     40 H6          0.5207    2.1467   -3.5138 H         1 <0>         0.0482
     41 H7         -0.1776    2.0534   -1.8792 H         1 <0>         0.0546
     42 H8         -1.5018    0.1991   -2.6316 H         1 <0>         0.0653
     43 H9         -0.7422    0.1284   -4.2285 H         1 <0>         0.0478
     44 H10        -1.7739   -2.0497   -3.6162 H         1 <0>         0.0592
     45 H11        -0.0202   -2.1807   -3.8586 H         1 <0>         0.0444
     46 H12         0.7656   -2.2770   -0.1853 H         1 <0>         0.0555
     47 H13         1.4905   -2.3449   -1.8038 H         1 <0>         0.0434
     48 H14         1.3291    0.3819    1.1968 H         1 <0>         0.1347
     49 H15         5.4279    0.6968    3.1338 H         1 <0>         0.0852
     50 H16         6.3728   -0.5717    2.3148 H         1 <0>         0.0565
     51 H17         7.4651    2.1408    3.2332 H         1 <0>         0.0764
     52 H18         7.7039    0.5997    4.0543 H         1 <0>         0.0559
     53 H19         6.6826    2.5986   -1.0936 H         1 <0>         0.0701
     54 H20         7.8089    1.4405   -1.8139 H         1 <0>         0.0628
     55 H21         5.5698    1.2324   -2.8096 H         1 <0>         0.0677
     56 H22         6.0904   -0.2480   -1.9838 H         1 <0>         0.0670
     57 H23         3.1728    1.3627   -3.1865 H         1 <0>         0.0715
     58 H24         3.9326   -0.1572   -3.6049 H         1 <0>         0.0561
     59 H25         1.8481   -1.3584   -3.4851 H         1 <0>         0.0668
     60 H26         1.6326    0.0715   -4.5080 H         1 <0>         0.0575
     61 H27         3.1774   -2.1687   -1.8900 H         1 <0>         0.0693
     62 H28         4.8340   -1.5650   -2.1336 H         1 <0>         0.0628
     63 H29         4.1952   -1.7705   -0.4850 H         1 <0>         0.0558
     64 H30         4.7333    2.9963   -0.7568 H         1 <0>         0.0655
     65 H31         3.6583    2.4976   -2.0849 H         1 <0>         0.0648
     66 H32         3.1011    2.3834   -0.3983 H         1 <0>         0.0605
     67 H33         9.4879   -0.4992   -0.0686 H         1 <0>         0.0487
     68 H34         9.5371    0.9199   -1.1420 H         1 <0>         0.0555
     69 H35        10.6165    0.8347    0.2707 H         1 <0>         0.0594
     70 H36         9.8913    2.9483    0.9212 H         1 <0>         0.0585
     71 H37         8.5919    3.1627   -0.2763 H         1 <0>         0.0516
     72 H38         8.2291    3.2842    1.4620 H         1 <0>         0.0568
     73 H39        10.1330    1.0190    3.6284 H         1 <0>         0.3731
     74 H40         4.7879    2.8030    1.8225 H         1 <0>         0.0701
     75 H41         6.5404    3.0452    2.0186 H         1 <0>         0.0597
     76 H42         5.7954    3.1983    0.4094 H         1 <0>         0.0596
     77 H43         0.1537   -4.2090   -2.5213 H         1 <0>         0.0357
     78 H44        -0.5621   -4.2909   -0.8937 H         1 <0>         0.0427
     79 H45        -1.6154   -4.1942   -2.3252 H         1 <0>         0.0551
@<TRIPOS>BOND
     1    1    2 1
     2    1   39 1
     3    1   40 1
     4    1   41 1
     5    2    7 1
     6    2   28 1
     7    2    3 1
     8    3    4 1
     9    3   42 1
    10    3   43 1
    11    4    5 1
    12    4   44 1
    13    4   45 1
    14    5    6 1
    15    5   35 1
    16    5   36 1
    17    6    7 1
    18    6   46 1
    19    6   47 1
    20    7    8 1
    21    7    9 1
    22    9   26 1
    23    9   10 2
    24   10   11 1
    25   10   48 1
    26   11   12 2
    27   11   13 1
    28   13   14 1
    29   13   25 1
    30   13   15 1
    31   15   21 1
    32   15   16 1
    33   15   34 1
    34   16   17 1
    35   16   49 1
    36   16   50 1
    37   17   18 1
    38   17   51 1
    39   17   52 1
    40   18   19 1
    41   18   20 1
    42   18   33 1
    43   20   21 1
    44   20   31 1
    45   20   32 1
    46   21   22 1
    47   21   23 1
    48   23   24 1
    49   23   53 1
    50   23   54 1
    51   24   25 1
    52   24   55 1
    53   24   56 1
    54   25   26 1
    55   25   30 1
    56   26   27 1
    57   26   29 1
    58   27   28 1
    59   27   57 1
    60   27   58 1
    61   28   59 1
    62   28   60 1
    63   29   61 1
    64   29   62 1
    65   29   63 1
    66   30   64 1
    67   30   65 1
    68   30   66 1
    69   31   67 1
    70   31   68 1
    71   31   69 1
    72   32   70 1
    73   32   71 1
    74   32   72 1
    75   33   73 1
    76   34   74 1
    77   34   75 1
    78   34   76 1
    79   35   77 1
    80   35   78 1
    81   35   79 1
    82   36   37 2
    83   36   38 1
@<TRIPOS>MOLECULE
ZINC00399878
   34    35     0     0     0
SMALL
USER_CHARGES
1-(4-methoxyphenyl)-2-phenylsulfonyl-ethanone
@<TRIPOS>ATOM
      1 C1          2.4146    4.1086    0.0010 C.3       1 <0>         0.0224
      2 O1          1.1530    3.4375    0.0095 O.3       1 <0>        -0.3091
      3 C2          1.1769    2.0811    0.0020 C.ar      1 <0>         0.1700
      4 C3         -0.0165    1.3670    0.0096 C.ar      1 <0>        -0.1644
      5 C4          0.0021   -0.0041    0.0020 C.ar      1 <0>        -0.0113
      6 C5          1.2256   -0.6852   -0.0133 C.ar      1 <0>        -0.2116
      7 C6          2.4244    0.0387   -0.0208 C.ar      1 <0>        -0.0257
      8 C7          2.3947    1.4095   -0.0132 C.ar      1 <0>        -0.2243
      9 C8          1.2514   -2.1535   -0.0209 C.2       1 <0>         0.4308
     10 O2          0.2119   -2.7784   -0.0140 O.2       1 <0>        -0.4437
     11 C9          2.5695   -2.8839   -0.0374 C.3       1 <0>        -0.6694
     12 S1          2.2695   -4.6729   -0.0435 S.o2      1 <0>         2.5199
     13 O3          1.7022   -5.0782    1.1947 O.2       1 <0>        -0.9172
     14 O4          1.6782   -5.0658   -1.2745 O.2       1 <0>        -0.9174
     15 C10         3.8739   -5.4010   -0.0628 C.ar      1 <0>        -0.6663
     16 C11         4.4892   -5.6858   -1.2674 C.ar      1 <0>        -0.0242
     17 C12         5.7500   -6.2526   -1.2825 C.ar      1 <0>        -0.1389
     18 C13         6.3911   -6.5438   -0.0930 C.ar      1 <0>        -0.0620
     19 C14         5.7734   -6.2643    1.1116 C.ar      1 <0>        -0.1389
     20 C15         4.5149   -5.6927    1.1267 C.ar      1 <0>        -0.0244
     21 H1          2.9682    3.8304   -0.8958 H         1 <0>         0.0605
     22 H2          2.2528    5.1865    0.0084 H         1 <0>         0.1060
     23 H3          2.9852    3.8208    0.8841 H         1 <0>         0.0605
     24 H4         -0.9596    1.8932    0.0169 H         1 <0>         0.1428
     25 H5         -0.9252   -0.5577    0.0075 H         1 <0>         0.1470
     26 H6          3.3705   -0.4819   -0.0323 H         1 <0>         0.1367
     27 H7          3.3186    1.9687   -0.0194 H         1 <0>         0.1385
     28 H8          3.0816   -2.6290   -0.8577 H         1 <0>         0.1507
     29 H9          3.1450   -2.6150    0.8484 H         1 <0>         0.1708
     30 H10         3.9866   -5.4620   -2.1967 H         1 <0>         0.1436
     31 H11         6.2324   -6.4714   -2.2237 H         1 <0>         0.1357
     32 H12         7.3745   -6.9901   -0.1048 H         1 <0>         0.1334
     33 H13         6.2742   -6.4921    2.0410 H         1 <0>         0.1358
     34 H14         4.0322   -5.4743    2.0679 H         1 <0>         0.1439
@<TRIPOS>BOND
     1    1    2 1
     2    1   21 1
     3    1   22 1
     4    1   23 1
     5    2    3 1
     6    3    8 ar
     7    3    4 ar
     8    4    5 ar
     9    4   24 1
    10    5    6 ar
    11    5   25 1
    12    6    7 ar
    13    6    9 1
    14    7    8 ar
    15    7   26 1
    16    8   27 1
    17    9   10 2
    18    9   11 1
    19   11   12 1
    20   11   28 1
    21   11   29 1
    22   12   13 2
    23   12   14 2
    24   12   15 1
    25   15   20 ar
    26   15   16 ar
    27   16   17 ar
    28   16   30 1
    29   17   18 ar
    30   17   31 1
    31   18   19 ar
    32   18   32 1
    33   19   20 ar
    34   19   33 1
    35   20   34 1
@<TRIPOS>MOLECULE
ZINC01396918
   30    31     0     0     0
SMALL
USER_CHARGES
1-(4-fluorophenyl)-2-phenylsulfonyl-ethanone
@<TRIPOS>ATOM
      1 C1          6.1988    8.0795   -0.0137 C.ar      1 <0>        -0.0614
      2 C2          5.5656    7.7840   -1.2065 C.ar      1 <0>        -0.1387
      3 C3          4.3224    7.1797   -1.1979 C.ar      1 <0>        -0.0242
      4 C4          3.7121    6.8713    0.0035 C.ar      1 <0>        -0.6663
      5 C5          4.3428    7.1719    1.1963 C.ar      1 <0>        -0.0240
      6 C6          5.5883    7.7715    1.1877 C.ar      1 <0>        -0.1387
      7 S1          2.1272    6.1014    0.0145 S.o2      1 <0>         2.5200
      8 O1          1.5259    6.4919   -1.2124 O.2       1 <0>        -0.9163
      9 O2          1.5495    6.4787    1.2568 O.2       1 <0>        -0.9165
     10 C7          2.4737    4.3209    0.0016 C.3       1 <0>        -0.6712
     11 C8          1.1751    3.5563    0.0099 C.2       1 <0>         0.4294
     12 O3          0.1198    4.1537    0.0232 O.2       1 <0>        -0.4360
     13 C9          1.1875    2.0863    0.0019 C.ar      1 <0>        -0.1819
     14 C10        -0.0166    1.3733    0.0096 C.ar      1 <0>        -0.0234
     15 C11         0.0021   -0.0041    0.0020 C.ar      1 <0>        -0.1649
     16 C12         1.2109   -0.6843   -0.0127 C.ar      1 <0>         0.1402
     17 C13         2.4081    0.0164   -0.0204 C.ar      1 <0>        -0.1668
     18 C14         2.4035    1.3938   -0.0129 C.ar      1 <0>        -0.0398
     19 F1          1.2223   -2.0353   -0.0192 F         1 <0>        -0.1288
     20 H1          7.1702    8.5513   -0.0205 H         1 <0>         0.1336
     21 H2          6.0424    8.0249   -2.1451 H         1 <0>         0.1360
     22 H3          3.8277    6.9488   -2.1298 H         1 <0>         0.1440
     23 H4          3.8640    6.9350    2.1350 H         1 <0>         0.1437
     24 H5          6.0828    8.0027    2.1195 H         1 <0>         0.1359
     25 H6          3.0079    4.0794    0.8118 H         1 <0>         0.1525
     26 H7          3.0390    4.0672   -0.8952 H         1 <0>         0.1730
     27 H8         -0.9585    1.9017    0.0169 H         1 <0>         0.1505
     28 H9         -0.9265   -0.5556    0.0079 H         1 <0>         0.1481
     29 H10         3.3459   -0.5193   -0.0319 H         1 <0>         0.1469
     30 H11         3.3363    1.9382   -0.0182 H         1 <0>         0.1451
@<TRIPOS>BOND
     1    1    6 ar
     2    1    2 ar
     3    1   20 1
     4    2    3 ar
     5    2   21 1
     6    3    4 ar
     7    3   22 1
     8    4    5 ar
     9    4    7 1
    10    5    6 ar
    11    5   23 1
    12    6   24 1
    13    7    8 2
    14    7    9 2
    15    7   10 1
    16   10   11 1
    17   10   25 1
    18   10   26 1
    19   11   12 2
    20   11   13 1
    21   13   18 ar
    22   13   14 ar
    23   14   15 ar
    24   14   27 1
    25   15   16 ar
    26   15   28 1
    27   16   17 ar
    28   16   19 1
    29   17   18 ar
    30   17   29 1
    31   18   30 1
@<TRIPOS>MOLECULE
ZINC00058239
   30    31     0     0     0
SMALL
USER_CHARGES
1-(4-chlorophenyl)-2-phenylsulfonyl-ethanone
@<TRIPOS>ATOM
      1 C1          6.2013    8.0781   -0.0148 C.ar      1 <0>        -0.0613
      2 C2          5.5682    7.7825   -1.2076 C.ar      1 <0>        -0.1386
      3 C3          4.3247    7.1788   -1.1990 C.ar      1 <0>        -0.0242
      4 C4          3.7141    6.8710    0.0024 C.ar      1 <0>        -0.6663
      5 C5          4.3446    7.1718    1.1952 C.ar      1 <0>        -0.0240
      6 C6          5.5905    7.7708    1.1866 C.ar      1 <0>        -0.1386
      7 S1          2.1288    6.1019    0.0134 S.o2      1 <0>         2.5198
      8 O1          1.5280    6.4923   -1.2138 O.2       1 <0>        -0.9161
      9 O2          1.5511    6.4798    1.2554 O.2       1 <0>        -0.9164
     10 C7          2.4745    4.3212    0.0012 C.3       1 <0>        -0.6713
     11 C8          1.1756    3.5573    0.0095 C.2       1 <0>         0.4282
     12 O3          0.1206    4.1551    0.0223 O.2       1 <0>        -0.4340
     13 C9          1.1873    2.0864    0.0019 C.ar      1 <0>        -0.1657
     14 C10        -0.0166    1.3739    0.0096 C.ar      1 <0>        -0.0406
     15 C11         0.0021   -0.0041    0.0020 C.ar      1 <0>        -0.1212
     16 C12         1.2094   -0.6838   -0.0132 C.ar      1 <0>        -0.0003
     17 C13         2.4058    0.0153   -0.0208 C.ar      1 <0>        -0.1233
     18 C14         2.4025    1.3934   -0.0129 C.ar      1 <0>        -0.0571
     19 Cl1         1.2233   -2.4198   -0.0220 Cl        1 <0>        -0.0531
     20 H1          7.1730    8.5495   -0.0215 H         1 <0>         0.1337
     21 H2          6.0453    8.0229   -2.1462 H         1 <0>         0.1361
     22 H3          3.8301    6.9478   -2.1309 H         1 <0>         0.1440
     23 H4          3.8656    6.9354    2.1339 H         1 <0>         0.1437
     24 H5          6.0849    8.0021    2.1185 H         1 <0>         0.1360
     25 H6          3.0084    4.0797    0.8116 H         1 <0>         0.1527
     26 H7          3.0399    4.0670   -0.8954 H         1 <0>         0.1732
     27 H8         -0.9584    1.9025    0.0169 H         1 <0>         0.1498
     28 H9         -0.9265   -0.5555    0.0083 H         1 <0>         0.1459
     29 H10         3.3431   -0.5211   -0.0327 H         1 <0>         0.1447
     30 H11         3.3357    1.9370   -0.0186 H         1 <0>         0.1444
@<TRIPOS>BOND
     1    1    6 ar
     2    1    2 ar
     3    1   20 1
     4    2    3 ar
     5    2   21 1
     6    3    4 ar
     7    3   22 1
     8    4    5 ar
     9    4    7 1
    10    5    6 ar
    11    5   23 1
    12    6   24 1
    13    7    8 2
    14    7    9 2
    15    7   10 1
    16   10   11 1
    17   10   25 1
    18   10   26 1
    19   11   12 2
    20   11   13 1
    21   13   18 ar
    22   13   14 ar
    23   14   15 ar
    24   14   27 1
    25   15   16 ar
    26   15   28 1
    27   16   17 ar
    28   16   19 1
    29   17   18 ar
    30   17   29 1
    31   18   30 1
@<TRIPOS>MOLECULE
ZINC01396961
   30    31     0     0     0
SMALL
USER_CHARGES
1-(3,4-dichlorophenyl)-2-phenylsulfonyl-ethanone
@<TRIPOS>ATOM
      1 C1         10.0669    1.5626   -0.0871 C.ar      1 <0>        -0.0607
      2 C2          9.5157    1.1546    1.1132 C.ar      1 <0>        -0.1384
      3 C3          8.3898    0.3528    1.1197 C.ar      1 <0>        -0.0240
      4 C4          7.8152   -0.0415   -0.0742 C.ar      1 <0>        -0.6665
      5 C5          8.3696    0.3618   -1.2745 C.ar      1 <0>        -0.0238
      6 C6          9.4926    1.1680   -1.2809 C.ar      1 <0>        -0.1384
      7 S1          6.3802   -1.0640   -0.0660 S.o2      1 <0>         2.5204
      8 O1          6.4469   -1.7724    1.1641 O.2       1 <0>        -0.9150
      9 O2          6.4227   -1.7584   -1.3050 O.2       1 <0>        -0.9152
     10 C7          4.9834    0.0931   -0.0457 C.3       1 <0>        -0.6744
     11 C8          3.6902   -0.6807   -0.0375 C.2       1 <0>         0.4309
     12 O3          3.7091   -1.8932   -0.0446 O.2       1 <0>        -0.4280
     13 C9          2.4051    0.0348   -0.0208 C.ar      1 <0>        -0.1521
     14 C10         1.2026   -0.6804   -0.0131 C.ar      1 <0>        -0.0372
     15 C11         0.0021   -0.0041    0.0020 C.ar      1 <0>        -0.1075
     16 C12        -0.0167    1.3814    0.0096 C.ar      1 <0>         0.0018
     17 C13         1.1706    2.0973    0.0021 C.ar      1 <0>        -0.0468
     18 C14         2.3797    1.4332   -0.0131 C.ar      1 <0>        -0.0509
     19 Cl1         1.1357    3.8330    0.0119 Cl        1 <0>        -0.0338
     20 Cl2        -1.5340    2.2248    0.0214 Cl        1 <0>        -0.0304
     21 H1         10.9464    2.1894   -0.0921 H         1 <0>         0.1339
     22 H2          9.9646    1.4627    2.0460 H         1 <0>         0.1362
     23 H3          7.9592    0.0340    2.0574 H         1 <0>         0.1441
     24 H4          7.9233    0.0501   -2.2073 H         1 <0>         0.1438
     25 H5          9.9234    1.4864   -2.2187 H         1 <0>         0.1362
     26 H6          5.0195    0.6734   -0.8593 H         1 <0>         0.1538
     27 H7          5.0401    0.7155    0.8473 H         1 <0>         0.1747
     28 H8          1.2152   -1.7603   -0.0194 H         1 <0>         0.1570
     29 H9         -0.9266   -0.5553    0.0076 H         1 <0>         0.1560
     30 H10         3.3041    1.9916   -0.0193 H         1 <0>         0.1544
@<TRIPOS>BOND
     1    1    6 ar
     2    1    2 ar
     3    1   21 1
     4    2    3 ar
     5    2   22 1
     6    3    4 ar
     7    3   23 1
     8    4    5 ar
     9    4    7 1
    10    5    6 ar
    11    5   24 1
    12    6   25 1
    13    7    8 2
    14    7    9 2
    15    7   10 1
    16   10   11 1
    17   10   26 1
    18   10   27 1
    19   11   12 2
    20   11   13 1
    21   13   18 ar
    22   13   14 ar
    23   14   15 ar
    24   14   28 1
    25   15   16 ar
    26   15   29 1
    27   16   17 ar
    28   16   20 1
    29   17   18 ar
    30   17   19 1
    31   18   30 1
@<TRIPOS>MOLECULE
ZINC28874690
   36    37     0     0     0
SMALL
USER_CHARGES
2-(benzenesulfonyl)-1-(2,4-dimethylphenyl)ethanone
@<TRIPOS>ATOM
      1 C1         -2.6188    3.6100    0.5769 C.3       1 <0>        -0.1262
      2 C2         -1.2664    3.0132    0.2836 C.ar      1 <0>        -0.0402
      3 C3         -1.1552    1.6607    0.0106 C.ar      1 <0>        -0.1426
      4 C4          0.0792    1.1062   -0.2530 C.ar      1 <0>        -0.0611
      5 C5          1.2194    1.9163   -0.2556 C.ar      1 <0>        -0.1810
      6 C6          1.0980    3.2827    0.0153 C.ar      1 <0>        -0.0100
      7 C7         -0.1430    3.8213    0.2828 C.ar      1 <0>        -0.1379
      8 C8          2.3202    4.1644    0.0155 C.3       1 <0>        -0.1232
      9 C9          2.5400    1.3336   -0.5425 C.2       1 <0>         0.4262
     10 O1          3.5095    2.0535   -0.6519 O.2       1 <0>        -0.4391
     11 C10         2.6873   -0.1579   -0.7005 C.3       1 <0>        -0.6813
     12 S1          4.4220   -0.5610   -1.0454 S.o2      1 <0>         2.5205
     13 O2          4.7926   -0.0721   -2.3271 O.2       1 <0>        -0.9197
     14 O3          5.2244   -0.2859    0.0947 O.2       1 <0>        -0.9197
     15 C11         4.4558   -2.3153   -1.2063 C.ar      1 <0>        -0.6660
     16 C12         4.6841   -3.1069   -0.0963 C.ar      1 <0>        -0.0245
     17 C13         4.7054   -4.4834   -0.2216 C.ar      1 <0>        -0.1389
     18 C14         4.5093   -5.0679   -1.4588 C.ar      1 <0>        -0.0623
     19 C15         4.2867   -4.2761   -2.5699 C.ar      1 <0>        -0.1388
     20 C16         4.2598   -2.8998   -2.4436 C.ar      1 <0>        -0.0247
     21 H1         -3.3847    2.8217    0.5332 H         1 <0>         0.0705
     22 H2         -2.8473    4.3850   -0.1696 H         1 <0>         0.0772
     23 H3         -2.6115    4.0589    1.5811 H         1 <0>         0.0772
     24 H4         -2.0372    1.0374    0.0086 H         1 <0>         0.1313
     25 H5          0.1649    0.0500   -0.4613 H         1 <0>         0.1335
     26 H6         -0.2385    4.8766    0.4919 H         1 <0>         0.1324
     27 H7          2.0262    5.1986    0.2477 H         1 <0>         0.0653
     28 H8          2.7957    4.1322   -0.9759 H         1 <0>         0.0872
     29 H9          3.0308    3.8059    0.7748 H         1 <0>         0.0823
     30 H10         2.3722   -0.6578    0.2273 H         1 <0>         0.1714
     31 H11         2.0580   -0.5022   -1.5344 H         1 <0>         0.1708
     32 H12         4.8417   -2.6501    0.8696 H         1 <0>         0.1434
     33 H13         4.8790   -5.1020    0.6465 H         1 <0>         0.1356
     34 H14         4.5297   -6.1432   -1.5574 H         1 <0>         0.1333
     35 H15         4.1335   -4.7327   -3.5365 H         1 <0>         0.1356
     36 H16         4.0859   -2.2812   -3.3116 H         1 <0>         0.1433
@<TRIPOS>BOND
     1    1    2 1
     2    1   21 1
     3    1   22 1
     4    1   23 1
     5    2    7 ar
     6    2    3 ar
     7    3    4 ar
     8    3   24 1
     9    4    5 ar
    10    4   25 1
    11    5    6 ar
    12    5    9 1
    13    6    7 ar
    14    6    8 1
    15    7   26 1
    16    8   27 1
    17    8   28 1
    18    8   29 1
    19    9   10 2
    20    9   11 1
    21   11   12 1
    22   11   30 1
    23   11   31 1
    24   12   13 2
    25   12   14 2
    26   12   15 1
    27   15   20 ar
    28   15   16 ar
    29   16   17 ar
    30   16   32 1
    31   17   18 ar
    32   17   33 1
    33   18   19 ar
    34   18   34 1
    35   19   20 ar
    36   19   35 1
    37   20   36 1
@<TRIPOS>MOLECULE
ZINC28693156
   54    58     0     0     0
SMALL
USER_CHARGES
1-adamantyl-[4-(4-pyridylmethyl)piperazin-1-yl]methanone
@<TRIPOS>ATOM
      1 C1         -1.2158    1.4413   -0.3444 C.ar      1 <0>        -0.1513
      2 C2         -0.0314    0.7353   -0.4375 C.ar      1 <0>         0.0997
      3 N1          1.1279    1.3632   -0.4641 N.ar      1 <0>        -0.4848
      4 C3          1.2061    2.6779   -0.3981 C.ar      1 <0>         0.0995
      5 C4          0.0641    3.4499   -0.2984 C.ar      1 <0>        -0.1710
      6 C5         -1.1732    2.8251   -0.2676 C.ar      1 <0>        -0.0346
      7 C6         -2.4420    3.6311   -0.1600 C.3       1 <0>         0.0897
      8 N2         -2.9252    3.9657   -1.5063 N.3       1 <0>        -0.5294
      9 C7         -1.9886    4.8648   -2.1935 C.3       1 <0>         0.0315
     10 C8         -2.4327    5.0440   -3.6492 C.3       1 <0>         0.0858
     11 N3         -3.8365    5.4828   -3.6588 N.am      1 <0>        -0.6110
     12 C9         -4.8131    4.7081   -2.8782 C.3       1 <0>         0.1140
     13 C10        -4.2753    4.5422   -1.4529 C.3       1 <0>         0.0422
     14 C11        -4.2179    6.5658   -4.3645 C.2       1 <0>         0.5263
     15 O1         -5.3926    6.8579   -4.4395 O.2       1 <0>        -0.5365
     16 C12        -3.1847    7.4139   -5.0605 C.3       1 <0>        -0.0671
     17 C13        -2.1893    7.9524   -4.0308 C.3       1 <0>        -0.1140
     18 C14        -1.1403    8.8134   -4.7374 C.3       1 <0>        -0.0839
     19 C15        -1.8306    9.9840   -5.4401 C.3       1 <0>        -0.1109
     20 C16        -2.8260    9.4455   -6.4698 C.3       1 <0>        -0.0869
     21 C17        -3.8750    8.5845   -5.7632 C.3       1 <0>        -0.0872
     22 C18        -2.0821    8.5974   -7.5032 C.3       1 <0>        -0.1111
     23 C19        -1.3917    7.4267   -6.8005 C.3       1 <0>        -0.0840
     24 C20        -0.3963    7.9652   -5.7709 C.3       1 <0>        -0.1114
     25 C21        -2.4407    6.5657   -6.0939 C.3       1 <0>        -0.1184
     26 H1         -2.1624    0.9216   -0.3280 H         1 <0>         0.1358
     27 H2         -0.0558   -0.3430   -0.4937 H         1 <0>         0.1564
     28 H3          2.1738    3.1569   -0.4227 H         1 <0>         0.1555
     29 H4          0.1346    4.5263   -0.2454 H         1 <0>         0.1310
     30 H5         -3.2066    3.0425    0.3682 H         1 <0>         0.0923
     31 H6         -2.2417    4.5574    0.3984 H         1 <0>         0.0501
     32 H7         -1.9809    5.8419   -1.6883 H         1 <0>         0.0420
     33 H8         -0.9781    4.4308   -2.1679 H         1 <0>         0.0922
     34 H9         -1.7996    5.8010   -4.1351 H         1 <0>         0.1191
     35 H10        -2.3350    4.0871   -4.1828 H         1 <0>         0.0777
     36 H11        -5.7734    5.2441   -2.8569 H         1 <0>         0.0979
     37 H12        -4.9542    3.7213   -3.3432 H         1 <0>         0.0761
     38 H13        -4.9379    3.8722   -0.8854 H         1 <0>         0.0918
     39 H14        -4.2355    5.5239   -0.9582 H         1 <0>         0.0415
     40 H15        -2.7242    8.5622   -3.2878 H         1 <0>         0.0671
     41 H16        -1.6930    7.1107   -3.5255 H         1 <0>         0.0773
     42 H17        -0.4247    9.2006   -3.9971 H         1 <0>         0.0748
     43 H18        -2.3655   10.5938   -4.6971 H         1 <0>         0.0630
     44 H19        -1.0764   10.6031   -5.9480 H         1 <0>         0.0654
     45 H20        -3.3223   10.2871   -6.9752 H         1 <0>         0.0748
     46 H21        -4.5906    8.1973   -6.5034 H         1 <0>         0.0700
     47 H22        -4.4099    9.1943   -5.0202 H         1 <0>         0.0686
     48 H23        -2.7978    8.2102   -8.2434 H         1 <0>         0.0637
     49 H24        -1.3280    9.2164   -8.0112 H         1 <0>         0.0652
     50 H25        -0.8568    6.8169   -7.5435 H         1 <0>         0.0759
     51 H26         0.3578    8.5843   -6.2789 H         1 <0>         0.0675
     52 H27         0.1001    7.1236   -5.2657 H         1 <0>         0.0628
     53 H28        -1.9444    5.7241   -5.5886 H         1 <0>         0.0799
     54 H29        -3.1563    6.1785   -6.8341 H         1 <0>         0.0694
@<TRIPOS>BOND
     1    1    6 ar
     2    1    2 ar
     3    1   26 1
     4    2    3 ar
     5    2   27 1
     6    3    4 ar
     7    4    5 ar
     8    4   28 1
     9    5    6 ar
    10    5   29 1
    11    6    7 1
    12    7    8 1
    13    7   30 1
    14    7   31 1
    15    8   13 1
    16    8    9 1
    17    9   10 1
    18    9   32 1
    19    9   33 1
    20   10   11 1
    21   10   34 1
    22   10   35 1
    23   11   12 1
    24   11   14 am
    25   12   13 1
    26   12   36 1
    27   12   37 1
    28   13   38 1
    29   13   39 1
    30   14   15 2
    31   14   16 1
    32   16   21 1
    33   16   25 1
    34   16   17 1
    35   17   18 1
    36   17   40 1
    37   17   41 1
    38   18   24 1
    39   18   19 1
    40   18   42 1
    41   19   20 1
    42   19   43 1
    43   19   44 1
    44   20   21 1
    45   20   22 1
    46   20   45 1
    47   21   46 1
    48   21   47 1
    49   22   23 1
    50   22   48 1
    51   22   49 1
    52   23   24 1
    53   23   25 1
    54   23   50 1
    55   24   51 1
    56   24   52 1
    57   25   53 1
    58   25   54 1
@<TRIPOS>MOLECULE
ZINC28693156
   55    59     0     0     0
SMALL
USER_CHARGES
1-adamantyl-[4-(4-pyridylmethyl)piperazin-1-yl]methanone
@<TRIPOS>ATOM
      1 C1         -1.2158    1.4413   -0.3444 C.ar      1 <0>        -0.1506
      2 C2         -0.0314    0.7353   -0.4375 C.ar      1 <0>         0.1170
      3 N1          1.1279    1.3632   -0.4641 N.ar      1 <0>        -0.4579
      4 C3          1.2061    2.6779   -0.3981 C.ar      1 <0>         0.1159
      5 C4          0.0641    3.4499   -0.2984 C.ar      1 <0>        -0.1559
      6 C5         -1.1732    2.8251   -0.2676 C.ar      1 <0>        -0.1103
      7 C6         -2.4420    3.6311   -0.1600 C.3       1 <0>         0.0446
      8 N2         -2.9252    3.9657   -1.5063 N.4       1 <0>        -0.3967
      9 C7         -1.9886    4.8648   -2.1935 C.3       1 <0>        -0.0292
     10 C8         -2.4327    5.0440   -3.6492 C.3       1 <0>         0.0561
     11 N3         -3.8365    5.4828   -3.6588 N.am      1 <0>        -0.6302
     12 C9         -4.8131    4.7081   -2.8782 C.3       1 <0>         0.0847
     13 C10        -4.2753    4.5422   -1.4529 C.3       1 <0>        -0.0160
     14 C11        -4.2179    6.5658   -4.3645 C.2       1 <0>         0.5339
     15 O1         -5.3926    6.8579   -4.4395 O.2       1 <0>        -0.5045
     16 C12        -3.1847    7.4139   -5.0605 C.3       1 <0>        -0.0693
     17 C13        -2.1893    7.9524   -4.0308 C.3       1 <0>        -0.1104
     18 C14        -1.1403    8.8134   -4.7374 C.3       1 <0>        -0.0850
     19 C15        -1.8306    9.9840   -5.4401 C.3       1 <0>        -0.1140
     20 C16        -2.8260    9.4455   -6.4698 C.3       1 <0>        -0.0880
     21 C17        -3.8750    8.5845   -5.7632 C.3       1 <0>        -0.0901
     22 C18        -2.0821    8.5974   -7.5032 C.3       1 <0>        -0.1146
     23 C19        -1.3917    7.4267   -6.8005 C.3       1 <0>        -0.0854
     24 C20        -0.3963    7.9652   -5.7709 C.3       1 <0>        -0.1131
     25 C21        -2.4407    6.5657   -6.0939 C.3       1 <0>        -0.1162
     26 H1         -2.1624    0.9216   -0.3280 H         1 <0>         0.1466
     27 H2         -0.0558   -0.3430   -0.4937 H         1 <0>         0.1700
     28 H3          2.1738    3.1569   -0.4227 H         1 <0>         0.1697
     29 H4          0.1346    4.5263   -0.2454 H         1 <0>         0.1449
     30 H5         -3.2066    3.0425    0.3682 H         1 <0>         0.1455
     31 H6         -2.2417    4.5574    0.3984 H         1 <0>         0.1393
     32 H7         -1.9809    5.8419   -1.6883 H         1 <0>         0.1342
     33 H8         -0.9781    4.4308   -2.1679 H         1 <0>         0.1430
     34 H9         -1.7996    5.8010   -4.1351 H         1 <0>         0.1591
     35 H10        -2.3350    4.0871   -4.1828 H         1 <0>         0.0982
     36 H11        -5.7734    5.2441   -2.8569 H         1 <0>         0.1379
     37 H12        -4.9542    3.7213   -3.3432 H         1 <0>         0.0960
     38 H13        -4.9379    3.8722   -0.8854 H         1 <0>         0.1468
     39 H14        -4.2355    5.5239   -0.9582 H         1 <0>         0.1330
     40 H15        -2.7242    8.5622   -3.2878 H         1 <0>         0.0726
     41 H16        -1.6930    7.1107   -3.5255 H         1 <0>         0.0656
     42 H17        -0.4247    9.2006   -3.9971 H         1 <0>         0.0790
     43 H18        -2.3655   10.5938   -4.6971 H         1 <0>         0.0657
     44 H19        -1.0764   10.6031   -5.9480 H         1 <0>         0.0709
     45 H20        -3.3223   10.2871   -6.9752 H         1 <0>         0.0809
     46 H21        -4.5906    8.1973   -6.5034 H         1 <0>         0.0738
     47 H22        -4.4099    9.1943   -5.0202 H         1 <0>         0.0722
     48 H23        -2.7978    8.2102   -8.2434 H         1 <0>         0.0668
     49 H24        -1.3280    9.2164   -8.0112 H         1 <0>         0.0707
     50 H25        -0.8568    6.8169   -7.5435 H         1 <0>         0.0804
     51 H26         0.3578    8.5843   -6.2789 H         1 <0>         0.0736
     52 H27         0.1001    7.1236   -5.2657 H         1 <0>         0.0604
     53 H28        -1.9444    5.7241   -5.5886 H         1 <0>         0.0719
     54 H29        -3.1563    6.1785   -6.8341 H         1 <0>         0.0749
     55 H30        -2.9821    3.0339   -2.0882 H         1 <0>         0.4415
@<TRIPOS>BOND
     1    1    6 ar
     2    1    2 ar
     3    1   26 1
     4    2    3 ar
     5    2   27 1
     6    3    4 ar
     7    4    5 ar
     8    4   28 1
     9    5    6 ar
    10    5   29 1
    11    6    7 1
    12    7    8 1
    13    7   30 1
    14    7   31 1
    15    8   13 1
    16    8    9 1
    17    8   55 1
    18    9   10 1
    19    9   32 1
    20    9   33 1
    21   10   11 1
    22   10   34 1
    23   10   35 1
    24   11   12 1
    25   11   14 am
    26   12   13 1
    27   12   36 1
    28   12   37 1
    29   13   38 1
    30   13   39 1
    31   14   15 2
    32   14   16 1
    33   16   21 1
    34   16   25 1
    35   16   17 1
    36   17   18 1
    37   17   40 1
    38   17   41 1
    39   18   24 1
    40   18   19 1
    41   18   42 1
    42   19   20 1
    43   19   43 1
    44   19   44 1
    45   20   21 1
    46   20   22 1
    47   20   45 1
    48   21   46 1
    49   21   47 1
    50   22   23 1
    51   22   48 1
    52   22   49 1
    53   23   24 1
    54   23   25 1
    55   23   50 1
    56   24   51 1
    57   24   52 1
    58   25   53 1
    59   25   54 1
@<TRIPOS>MOLECULE
ZINC12686173
   68    73     0     0     0
SMALL
USER_CHARGES
(4-benzylpiperazin-1-yl)-[(5R,7S)-3-(p-tolyl)-1-adamantyl]methanone
@<TRIPOS>ATOM
      1 C1         -8.0997   -2.1687    0.8264 C.3       1 <0>        -0.1180
      2 C2         -6.9810   -1.1713    0.6686 C.ar      1 <0>        -0.0901
      3 C3         -6.0004   -1.0735    1.6380 C.ar      1 <0>        -0.1184
      4 C4         -4.9745   -0.1583    1.4935 C.ar      1 <0>        -0.1094
      5 C5         -4.9293    0.6591    0.3796 C.ar      1 <0>        -0.0740
      6 C6         -5.9127    0.5649   -0.5872 C.ar      1 <0>        -0.1157
      7 C7         -6.9357   -0.3540   -0.4453 C.ar      1 <0>        -0.1200
      8 C8         -3.8111    1.6571    0.2223 C.3       1 <0>        -0.0100
      9 C9         -3.9961    2.4282   -1.0862 C.3       1 <0>        -0.1067
     10 C10        -2.8609    3.4414   -1.2459 C.3       1 <0>        -0.0834
     11 H1         -2.9940    3.9957   -2.1867 H         1 <0>         0.0783
     12 C11        -2.8815    4.4200   -0.0699 C.3       1 <0>        -0.1118
     13 C12        -2.6966    3.6490    1.2385 C.3       1 <0>        -0.0833
     14 H2         -2.7116    4.3527    2.0838 H         1 <0>         0.0772
     15 C13        -3.8318    2.6357    1.3983 C.3       1 <0>        -0.1005
     16 C14        -1.3557    2.9125    1.2114 C.3       1 <0>        -0.1151
     17 C15        -1.3351    1.9339    0.0354 C.3       1 <0>        -0.0666
     18 C16        -1.5200    2.7050   -1.2730 C.3       1 <0>        -0.1196
     19 C17        -2.4703    0.9207    0.1952 C.3       1 <0>        -0.0753
     20 C18        -0.0144    1.2086    0.0087 C.2       1 <0>         0.5262
     21 O1          0.0146   -0.0014    0.0862 O.2       1 <0>        -0.5363
     22 N1          1.1342    1.9042   -0.1069 N.am      1 <0>        -0.6113
     23 C19         1.1173    3.3588   -0.3237 C.3       1 <0>         0.0851
     24 C20         2.0369    4.0124    0.7200 C.3       1 <0>         0.0336
     25 N2          3.3659    3.3903    0.6521 N.3       1 <0>        -0.5292
     26 C21         3.3053    1.9645    1.0004 C.3       1 <0>         0.0418
     27 C22         2.4378    1.2278   -0.0257 C.3       1 <0>         0.1142
     28 C23         4.3244    4.1012    1.5088 C.3       1 <0>         0.0921
     29 C24         4.5435    5.4918    0.9710 C.ar      1 <0>        -0.0795
     30 C25         5.5502    5.7274    0.0535 C.ar      1 <0>        -0.0976
     31 C26         5.7477    7.0021   -0.4437 C.ar      1 <0>        -0.1197
     32 C27         4.9456    8.0431   -0.0152 C.ar      1 <0>        -0.1188
     33 C28         3.9426    7.8086    0.9066 C.ar      1 <0>        -0.1201
     34 C29         3.7413    6.5329    1.3996 C.ar      1 <0>        -0.1166
     35 H3         -7.9666   -2.7231    1.7671 H         1 <0>         0.0645
     36 H4         -8.0856   -2.8723   -0.0190 H         1 <0>         0.0691
     37 H5         -9.0634   -1.6387    0.8463 H         1 <0>         0.0689
     38 H6         -6.0360   -1.7118    2.5085 H         1 <0>         0.1199
     39 H7         -4.2086   -0.0816    2.2511 H         1 <0>         0.1191
     40 H8         -5.8798    1.2065   -1.4553 H         1 <0>         0.1253
     41 H9         -7.7021   -0.4302   -1.2024 H         1 <0>         0.1198
     42 H10        -3.9813    1.7246   -1.9316 H         1 <0>         0.0678
     43 H11        -4.9601    2.9576   -1.0667 H         1 <0>         0.0695
     44 H12        -2.0653    5.1484   -0.1847 H         1 <0>         0.0644
     45 H13        -3.8455    4.9495   -0.0504 H         1 <0>         0.0681
     46 H14        -4.7958    3.1651    1.4178 H         1 <0>         0.0674
     47 H15        -3.6988    2.0813    2.3390 H         1 <0>         0.0652
     48 H16        -0.5395    3.6410    1.0966 H         1 <0>         0.0791
     49 H17        -1.2227    2.3581    2.1521 H         1 <0>         0.0676
     50 H18        -1.5051    2.0015   -2.1185 H         1 <0>         0.0701
     51 H19        -0.7038    3.4335   -1.3878 H         1 <0>         0.0819
     52 H20        -2.3373    0.3664    1.1360 H         1 <0>         0.0705
     53 H21        -2.4554    0.2170   -0.6502 H         1 <0>         0.0714
     54 H22         1.4789    3.5825   -1.3382 H         1 <0>         0.0776
     55 H23         0.0898    3.7346   -0.2095 H         1 <0>         0.1185
     56 H24         2.1226    5.0888    0.5103 H         1 <0>         0.0940
     57 H25         1.6128    3.8672    1.7245 H         1 <0>         0.0400
     58 H26         4.3209    1.5421    0.9943 H         1 <0>         0.0903
     59 H27         2.8666    1.8502    2.0027 H         1 <0>         0.0398
     60 H28         2.2903    0.1839    0.2881 H         1 <0>         0.0967
     61 H29         2.9239    1.2489   -1.0122 H         1 <0>         0.0755
     62 H30         3.9261    4.1624    2.5323 H         1 <0>         0.0445
     63 H31         5.2804    3.5572    1.5193 H         1 <0>         0.0869
     64 H32         6.1797    4.9149   -0.2779 H         1 <0>         0.1222
     65 H33         6.5312    7.1852   -1.1642 H         1 <0>         0.1221
     66 H34         5.1024    9.0397   -0.4009 H         1 <0>         0.1213
     67 H35         3.3159    8.6220    1.2414 H         1 <0>         0.1216
     68 H36         2.9577    6.3497    2.1198 H         1 <0>         0.1176
@<TRIPOS>BOND
     1    1    2 1
     2    1   35 1
     3    1   36 1
     4    1   37 1
     5    2    7 ar
     6    2    3 ar
     7    3    4 ar
     8    3   38 1
     9    4    5 ar
    10    4   39 1
    11    5    6 ar
    12    5    8 1
    13    6    7 ar
    14    6   40 1
    15    7   41 1
    16    8   15 1
    17    8   19 1
    18    8    9 1
    19    9   10 1
    20    9   42 1
    21    9   43 1
    22   10   11 1
    23   10   18 1
    24   10   12 1
    25   12   13 1
    26   12   44 1
    27   12   45 1
    28   13   14 1
    29   13   15 1
    30   13   16 1
    31   15   46 1
    32   15   47 1
    33   16   17 1
    34   16   48 1
    35   16   49 1
    36   17   18 1
    37   17   19 1
    38   17   20 1
    39   18   50 1
    40   18   51 1
    41   19   52 1
    42   19   53 1
    43   20   21 2
    44   20   22 am
    45   22   27 1
    46   22   23 1
    47   23   24 1
    48   23   54 1
    49   23   55 1
    50   24   25 1
    51   24   56 1
    52   24   57 1
    53   25   26 1
    54   25   28 1
    55   26   27 1
    56   26   58 1
    57   26   59 1
    58   27   60 1
    59   27   61 1
    60   28   29 1
    61   28   62 1
    62   28   63 1
    63   29   34 ar
    64   29   30 ar
    65   30   31 ar
    66   30   64 1
    67   31   32 ar
    68   31   65 1
    69   32   33 ar
    70   32   66 1
    71   33   34 ar
    72   33   67 1
    73   34   68 1
@<TRIPOS>MOLECULE
ZINC08324367
   43    46     0     0     0
SMALL
USER_CHARGES
2-adamantyl-(1-piperidyl)methanone
@<TRIPOS>ATOM
      1 C1         -3.7742   -0.2045   -5.8487 C.3       1 <0>        -0.1210
      2 C2         -4.0985   -1.1714   -4.7076 C.3       1 <0>        -0.1349
      3 C3         -3.7175   -0.5250   -3.3721 C.3       1 <0>         0.1094
      4 N1         -2.3086   -0.1123   -3.4313 N.am      1 <0>        -0.6132
      5 C4         -1.8709    0.7497   -4.5377 C.3       1 <0>         0.1038
      6 C5         -2.2714    0.0844   -5.8632 C.3       1 <0>        -0.1370
      7 C6         -1.4356   -0.5123   -2.4856 C.2       1 <0>         0.5240
      8 O1         -1.7856   -1.2980   -1.6306 O.2       1 <0>        -0.5329
      9 C7         -0.0245    0.0169   -2.4906 C.3       1 <0>        -0.0955
     10 C8          0.7863   -0.6827   -1.3979 C.3       1 <0>        -0.0629
     11 C9          0.1452   -0.4128   -0.0352 C.3       1 <0>        -0.1231
     12 C10         0.1258    1.0940    0.2298 C.3       1 <0>        -0.0859
     13 C11         1.5584    1.6312    0.2247 C.3       1 <0>        -0.1088
     14 C12         2.1995    1.3612   -1.1380 C.3       1 <0>        -0.0872
     15 C13         2.2189   -0.1455   -1.4029 C.3       1 <0>        -0.1093
     16 C14         1.3886    2.0608   -2.2307 C.3       1 <0>        -0.1067
     17 C15        -0.0439    1.5236   -2.2256 C.3       1 <0>        -0.0790
     18 C16        -0.6851    1.7936   -0.8629 C.3       1 <0>        -0.1086
     19 H1         -4.0671   -0.6522   -6.7984 H         1 <0>         0.0664
     20 H2         -4.3216    0.7266   -5.7023 H         1 <0>         0.0648
     21 H3         -3.5324   -2.0935   -4.8401 H         1 <0>         0.0662
     22 H4         -5.1653   -1.3950   -4.7124 H         1 <0>         0.0751
     23 H5         -3.8536   -1.2453   -2.5654 H         1 <0>         0.0923
     24 H6         -4.3467    0.3475   -3.1957 H         1 <0>         0.0659
     25 H7         -2.3526    1.7239   -4.4545 H         1 <0>         0.0703
     26 H8         -0.7883    0.8706   -4.5004 H         1 <0>         0.0885
     27 H9         -1.7225   -0.8495   -5.9848 H         1 <0>         0.0673
     28 H10        -2.0377    0.7546   -6.6905 H         1 <0>         0.0763
     29 H11         0.4322   -0.1755   -3.4614 H         1 <0>         0.0921
     30 H12         0.8002   -1.7562   -1.5867 H         1 <0>         0.0730
     31 H13         0.7229   -0.9112    0.7433 H         1 <0>         0.0575
     32 H14        -0.8754   -0.7955   -0.0316 H         1 <0>         0.0949
     33 H15        -0.3309    1.2863    1.2006 H         1 <0>         0.0679
     34 H16         1.5446    2.7046    0.4135 H         1 <0>         0.0602
     35 H17         2.1361    1.1328    1.0032 H         1 <0>         0.0619
     36 H18         3.2201    1.7439   -1.1416 H         1 <0>         0.0707
     37 H19         2.7966   -0.6439   -0.6245 H         1 <0>         0.0664
     38 H20         2.6757   -0.3379   -2.3738 H         1 <0>         0.0613
     39 H21         1.8454    1.8685   -3.2015 H         1 <0>         0.0637
     40 H22         1.3748    3.1343   -2.0419 H         1 <0>         0.0669
     41 H23        -0.6216    2.0220   -3.0041 H         1 <0>         0.0762
     42 H24        -1.7057    1.4109   -0.8593 H         1 <0>         0.0590
     43 H25        -0.6989    2.8670   -0.6741 H         1 <0>         0.0641
@<TRIPOS>BOND
     1    1    6 1
     2    1    2 1
     3    1   19 1
     4    1   20 1
     5    2    3 1
     6    2   21 1
     7    2   22 1
     8    3    4 1
     9    3   23 1
    10    3   24 1
    11    4    5 1
    12    4    7 am
    13    5    6 1
    14    5   25 1
    15    5   26 1
    16    6   27 1
    17    6   28 1
    18    7    8 2
    19    7    9 1
    20    9   17 1
    21    9   10 1
    22    9   29 1
    23   10   15 1
    24   10   11 1
    25   10   30 1
    26   11   12 1
    27   11   31 1
    28   11   32 1
    29   12   18 1
    30   12   13 1
    31   12   33 1
    32   13   14 1
    33   13   34 1
    34   13   35 1
    35   14   15 1
    36   14   16 1
    37   14   36 1
    38   15   37 1
    39   15   38 1
    40   16   17 1
    41   16   39 1
    42   16   40 1
    43   17   18 1
    44   17   41 1
    45   18   42 1
    46   18   43 1
@<TRIPOS>MOLECULE
ZINC28896391
   49    52     0     0     0
SMALL
USER_CHARGES
1-adamantyl-[4-(2-hydroxyethyl)piperazin-1-yl]methanone
@<TRIPOS>ATOM
      1 C1         -7.5476    1.8597    1.4135 C.3       1 <0>         0.0391
      2 C2         -6.5882    0.7373    1.0036 C.3       1 <0>         0.1141
      3 N1         -5.2274    1.2902    0.9278 N.am      1 <0>        -0.6106
      4 C3         -4.7186    2.0471    2.0817 C.3       1 <0>         0.0876
      5 C4         -5.7537    3.1230    2.4468 C.3       1 <0>         0.0389
      6 N2         -7.0623    2.4872    2.6499 N.3       1 <0>        -0.5255
      7 C5         -8.0409    3.4513    3.1703 C.3       1 <0>         0.0524
      8 C6         -9.1972    2.6980    3.8309 C.3       1 <0>         0.0920
      9 O1         -8.7081    1.9682    4.9580 O.3       1 <0>        -0.5876
     10 C7         -4.4649    1.1035   -0.1677 C.2       1 <0>         0.5259
     11 O2         -4.9282    0.5489   -1.1417 O.2       1 <0>        -0.5387
     12 C8         -3.0365    1.5837   -0.1824 C.3       1 <0>        -0.0668
     13 C9         -2.3448    1.0878   -1.4538 C.3       1 <0>        -0.0872
     14 C10        -0.8946    1.5754   -1.4687 C.3       1 <0>        -0.0868
     15 C11        -0.1604    1.0294   -0.2424 C.3       1 <0>        -0.1110
     16 C12        -0.8521    1.5252    1.0290 C.3       1 <0>        -0.0839
     17 C13        -2.3023    1.0377    1.0438 C.3       1 <0>        -0.1217
     18 C14        -0.8280    3.0547    1.0593 C.3       1 <0>        -0.1114
     19 C15        -1.5622    3.6008   -0.1669 C.3       1 <0>        -0.0838
     20 C16        -0.8705    3.1049   -1.4383 C.3       1 <0>        -0.1108
     21 C17        -3.0124    3.1132   -0.1521 C.3       1 <0>        -0.1115
     22 H1         -8.5510    1.4422    1.5836 H         1 <0>         0.0872
     23 H2         -7.5949    2.6135    0.6138 H         1 <0>         0.0375
     24 H3         -6.6249   -0.0680    1.7521 H         1 <0>         0.0761
     25 H4         -6.8868    0.3397    0.0224 H         1 <0>         0.0962
     26 H5         -4.5686    1.3642    2.9309 H         1 <0>         0.0795
     27 H6         -3.7609    2.5191    1.8172 H         1 <0>         0.1164
     28 H7         -5.4434    3.6315    3.3716 H         1 <0>         0.0896
     29 H8         -5.8232    3.8570    1.6304 H         1 <0>         0.0381
     30 H9         -7.5555    4.1020    3.9126 H         1 <0>         0.0826
     31 H10        -8.4277    4.0641    2.3427 H         1 <0>         0.0513
     32 H11        -9.9610    3.4167    4.1628 H         1 <0>         0.0440
     33 H12        -9.6413    1.9995    3.1064 H         1 <0>         0.0402
     34 H13        -9.3987    1.3618    5.5624 H         1 <0>         0.4036
     35 H14        -2.3622   -0.0118   -1.4756 H         1 <0>         0.0678
     36 H15        -2.8727    1.4803   -2.3354 H         1 <0>         0.0704
     37 H16        -0.3972    1.2189   -2.3828 H         1 <0>         0.0745
     38 H17        -0.1777   -0.0702   -0.2642 H         1 <0>         0.0632
     39 H18         0.8822    1.3799   -0.2530 H         1 <0>         0.0647
     40 H19        -0.3242    1.1326    1.9105 H         1 <0>         0.0755
     41 H20        -2.7997    1.3943    1.9578 H         1 <0>         0.0835
     42 H21        -2.3197   -0.0619    1.0221 H         1 <0>         0.0682
     43 H22        -1.3254    3.4112    1.9734 H         1 <0>         0.0632
     44 H23         0.2146    3.4053    1.0487 H         1 <0>         0.0670
     45 H24        -1.5447    4.7004   -0.1450 H         1 <0>         0.0750
     46 H25         0.1721    3.4554   -1.4490 H         1 <0>         0.0652
     47 H26        -1.3984    3.4975   -2.3199 H         1 <0>         0.0631
     48 H27        -3.5403    3.5057   -1.0337 H         1 <0>         0.0682
     49 H28        -3.5098    3.4697    0.7619 H         1 <0>         0.0756
@<TRIPOS>BOND
     1    1    6 1
     2    1    2 1
     3    1   22 1
     4    1   23 1
     5    2    3 1
     6    2   24 1
     7    2   25 1
     8    3    4 1
     9    3   10 am
    10    4    5 1
    11    4   26 1
    12    4   27 1
    13    5    6 1
    14    5   28 1
    15    5   29 1
    16    6    7 1
    17    7    8 1
    18    7   30 1
    19    7   31 1
    20    8    9 1
    21    8   32 1
    22    8   33 1
    23    9   34 1
    24   10   11 2
    25   10   12 1
    26   12   17 1
    27   12   21 1
    28   12   13 1
    29   13   14 1
    30   13   35 1
    31   13   36 1
    32   14   20 1
    33   14   15 1
    34   14   37 1
    35   15   16 1
    36   15   38 1
    37   15   39 1
    38   16   17 1
    39   16   18 1
    40   16   40 1
    41   17   41 1
    42   17   42 1
    43   18   19 1
    44   18   43 1
    45   18   44 1
    46   19   20 1
    47   19   21 1
    48   19   45 1
    49   20   46 1
    50   20   47 1
    51   21   48 1
    52   21   49 1
@<TRIPOS>MOLECULE
ZINC04031797
   43    46     0     0     0
SMALL
USER_CHARGES

@<TRIPOS>ATOM
      1 C1         -0.2397    1.6225    1.9580 C.3       1 <0>        -0.1207
      2 C2         -0.2335    0.1032    2.1415 C.3       1 <0>        -0.1387
      3 C3          0.7278   -0.5257    1.1279 C.3       1 <0>         0.0796
      4 N1          2.0468    0.1051    1.2728 N.am      1 <0>        -0.6095
      5 C4          2.1410    1.5697    1.2036 C.3       1 <0>         0.1090
      6 C5          1.1640    2.1750    2.2163 C.3       1 <0>        -0.1348
      7 C6          3.1494   -0.6456    1.4661 C.2       1 <0>         0.5250
      8 O1          4.2432   -0.1221    1.4882 O.2       1 <0>        -0.5383
      9 C7          3.0231   -2.1354    1.6547 C.3       1 <0>        -0.0677
     10 C8          2.1202   -2.4227    2.8559 C.3       1 <0>        -0.1152
     11 C9          1.9920   -3.9352    3.0474 C.3       1 <0>        -0.0841
     12 C10         3.3767   -4.5372    3.2948 C.3       1 <0>        -0.1102
     13 C11         4.2796   -4.2499    2.0935 C.3       1 <0>        -0.0869
     14 C12         4.4078   -2.7373    1.9020 C.3       1 <0>        -0.0864
     15 C13         3.6697   -4.8732    0.8364 C.3       1 <0>        -0.1102
     16 C14         2.2850   -4.2713    0.5890 C.3       1 <0>        -0.0840
     17 C15         1.3820   -4.5586    1.7903 C.3       1 <0>        -0.1106
     18 C16         2.4132   -2.7587    0.3976 C.3       1 <0>        -0.1165
     19 H1         -0.5432    1.8640    0.9393 H         1 <0>         0.0648
     20 H2         -0.9414    2.0704    2.6616 H         1 <0>         0.0666
     21 H3          0.0938   -0.1398    3.1524 H         1 <0>         0.0685
     22 H4         -1.2384   -0.2868    1.9803 H         1 <0>         0.0766
     23 H5          0.8114   -1.5956    1.3187 H         1 <0>         0.1144
     24 H6          0.3529   -0.3607    0.1178 H         1 <0>         0.0690
     25 H7          3.1571    1.8823    1.4443 H         1 <0>         0.0914
     26 H8          1.8814    1.9055    0.1996 H         1 <0>         0.0663
     27 H9          1.1536    3.2596    2.1083 H         1 <0>         0.0757
     28 H10         1.4780    1.9125    3.2266 H         1 <0>         0.0660
     29 H11         2.5547   -1.9786    3.7515 H         1 <0>         0.0671
     30 H12         1.1337   -1.9938    2.6797 H         1 <0>         0.0808
     31 H13         1.3487   -4.1399    3.9032 H         1 <0>         0.0746
     32 H14         3.8112   -4.0931    4.1904 H         1 <0>         0.0628
     33 H15         3.2853   -5.6147    3.4312 H         1 <0>         0.0646
     34 H16         5.2661   -4.6787    2.2697 H         1 <0>         0.0742
     35 H17         5.0511   -2.5327    1.0462 H         1 <0>         0.0692
     36 H18         4.8424   -2.2933    2.7976 H         1 <0>         0.0681
     37 H19         4.3130   -4.6686   -0.0194 H         1 <0>         0.0631
     38 H20         3.5784   -5.9508    0.9728 H         1 <0>         0.0646
     39 H21         1.8505   -4.7154   -0.3065 H         1 <0>         0.0750
     40 H22         1.2907   -5.6361    1.9267 H         1 <0>         0.0666
     41 H23         0.3956   -4.1297    1.6141 H         1 <0>         0.0626
     42 H24         1.4267   -2.3299    0.2214 H         1 <0>         0.0793
     43 H25         3.0565   -2.5541   -0.4582 H         1 <0>         0.0683
@<TRIPOS>BOND
     1    1    6 1
     2    1    2 1
     3    1   19 1
     4    1   20 1
     5    2    3 1
     6    2   21 1
     7    2   22 1
     8    3    4 1
     9    3   23 1
    10    3   24 1
    11    4    5 1
    12    4    7 am
    13    5    6 1
    14    5   25 1
    15    5   26 1
    16    6   27 1
    17    6   28 1
    18    7    8 2
    19    7    9 1
    20    9   14 1
    21    9   18 1
    22    9   10 1
    23   10   11 1
    24   10   29 1
    25   10   30 1
    26   11   17 1
    27   11   12 1
    28   11   31 1
    29   12   13 1
    30   12   32 1
    31   12   33 1
    32   13   14 1
    33   13   15 1
    34   13   34 1
    35   14   35 1
    36   14   36 1
    37   15   16 1
    38   15   37 1
    39   15   38 1
    40   16   17 1
    41   16   18 1
    42   16   39 1
    43   17   40 1
    44   17   41 1
    45   18   42 1
    46   18   43 1
@<TRIPOS>MOLECULE
ZINC15593957
   61    65     0     0     0
SMALL
USER_CHARGES
[(5S,7R)-3-benzyl-1-adamantyl]-(4-ethylpiperazin-1-yl)methanone
@<TRIPOS>ATOM
      1 C1          2.1988   13.3846   -6.9971 C.3       1 <0>        -0.1605
      2 C2          2.1081   11.8619   -7.1149 C.3       1 <0>         0.0496
      3 N1          1.0808   11.3597   -6.1928 N.3       1 <0>        -0.5366
      4 C3          1.1261    9.8942   -6.1018 C.3       1 <0>         0.0367
      5 C4         -0.0681    9.3998   -5.2785 C.3       1 <0>         0.0847
      6 N2         -0.0686   10.1034   -3.9870 N.am      1 <0>        -0.6106
      7 C5          0.0171   11.5717   -3.9944 C.3       1 <0>         0.1134
      8 C6          1.2138   11.9803   -4.8680 C.3       1 <0>         0.0338
      9 C7         -0.1509    9.4211   -2.8276 C.2       1 <0>         0.5258
     10 O1         -0.2462   10.0198   -1.7771 O.2       1 <0>        -0.5376
     11 C8         -0.1245    7.9144   -2.8364 C.3       1 <0>        -0.0654
     12 C9         -1.3150    7.3882   -3.6407 C.3       1 <0>        -0.1185
     13 C10        -1.2882    5.8585   -3.6497 C.3       1 <0>        -0.0830
     14 H1         -2.1441    5.4803   -4.2280 H         1 <0>         0.0754
     15 C11         0.0141    5.3749   -4.2908 C.3       1 <0>        -0.1104
     16 C12         1.2045    5.9011   -3.4866 C.3       1 <0>        -0.0831
     17 H2          2.1408    5.5534   -3.9476 H         1 <0>         0.0742
     18 C13         1.1778    7.4309   -3.4776 C.3       1 <0>        -0.1142
     19 C14         1.1194    5.3811   -2.0502 C.3       1 <0>        -0.1065
     20 C15        -0.1829    5.8646   -1.4090 C.3       1 <0>        -0.0434
     21 C16        -1.3733    5.3384   -2.2133 C.3       1 <0>        -0.1067
     22 C17        -0.2096    7.3944   -1.4000 C.3       1 <0>        -0.0805
     23 C18        -0.2680    5.3446    0.0274 C.3       1 <0>        -0.0750
     24 C19        -0.2416    3.8379    0.0185 C.ar      1 <0>        -0.0717
     25 C20         0.9649    3.1672    0.0926 C.ar      1 <0>        -0.1166
     26 C21         0.9890    1.7851    0.0854 C.ar      1 <0>        -0.1192
     27 C22        -0.1934    1.0736    0.0045 C.ar      1 <0>        -0.1260
     28 C23        -1.3996    1.7443   -0.0749 C.ar      1 <0>        -0.1190
     29 C24        -1.4240    3.1264   -0.0633 C.ar      1 <0>        -0.1164
     30 H3          2.9681   13.7606   -7.6876 H         1 <0>         0.0629
     31 H4          2.4670   13.6572   -5.9657 H         1 <0>         0.0589
     32 H5          1.2265   13.8307   -7.2533 H         1 <0>         0.0663
     33 H6          1.8399   11.5893   -8.1463 H         1 <0>         0.0790
     34 H7          3.0804   11.4157   -6.8588 H         1 <0>         0.0335
     35 H8          1.0801    9.4625   -7.1125 H         1 <0>         0.0889
     36 H9          2.0624    9.5859   -5.6136 H         1 <0>         0.0400
     37 H10        -1.0008    9.6119   -5.8217 H         1 <0>         0.0781
     38 H11         0.0227    8.3158   -5.1152 H         1 <0>         0.1186
     39 H12        -0.9122   11.9911   -4.4073 H         1 <0>         0.0751
     40 H13         0.1587   11.9359   -2.9662 H         1 <0>         0.0959
     41 H14         2.1476   11.6407   -4.3961 H         1 <0>         0.0376
     42 H15         1.2346   13.0748   -4.9762 H         1 <0>         0.0969
     43 H16        -2.2513    7.7358   -3.1797 H         1 <0>         0.0691
     44 H17        -1.2539    7.7621   -4.6734 H         1 <0>         0.0804
     45 H18         0.0333    4.2751   -4.2972 H         1 <0>         0.0664
     46 H19         0.0753    5.7487   -5.3235 H         1 <0>         0.0623
     47 H20         1.2389    7.8048   -4.5103 H         1 <0>         0.0775
     48 H21         2.0337    7.8092   -2.8994 H         1 <0>         0.0667
     49 H22         1.1386    4.2813   -2.0567 H         1 <0>         0.0717
     50 H23         1.9753    5.7594   -1.4720 H         1 <0>         0.0615
     51 H24        -2.3096    5.6860   -1.7524 H         1 <0>         0.0623
     52 H25        -1.3540    4.2386   -2.2198 H         1 <0>         0.0715
     53 H26         0.6463    7.7727   -0.8218 H         1 <0>         0.0693
     54 H27        -1.1459    7.7421   -0.9390 H         1 <0>         0.0707
     55 H28         0.5879    5.7229    0.6056 H         1 <0>         0.0740
     56 H29        -1.2043    5.6922    0.4884 H         1 <0>         0.0744
     57 H30         1.8886    3.7231    0.1565 H         1 <0>         0.1195
     58 H31         1.9316    1.2612    0.1433 H         1 <0>         0.1196
     59 H32        -0.1746   -0.0062   -0.0011 H         1 <0>         0.1191
     60 H33        -2.3231    1.1884   -0.1425 H         1 <0>         0.1198
     61 H34        -2.3666    3.6503   -0.1208 H         1 <0>         0.1199
@<TRIPOS>BOND
     1    1    2 1
     2    1   30 1
     3    1   31 1
     4    1   32 1
     5    2    3 1
     6    2   33 1
     7    2   34 1
     8    3    8 1
     9    3    4 1
    10    4    5 1
    11    4   35 1
    12    4   36 1
    13    5    6 1
    14    5   37 1
    15    5   38 1
    16    6    7 1
    17    6    9 am
    18    7    8 1
    19    7   39 1
    20    7   40 1
    21    8   41 1
    22    8   42 1
    23    9   10 2
    24    9   11 1
    25   11   18 1
    26   11   22 1
    27   11   12 1
    28   12   13 1
    29   12   43 1
    30   12   44 1
    31   13   14 1
    32   13   21 1
    33   13   15 1
    34   15   16 1
    35   15   45 1
    36   15   46 1
    37   16   17 1
    38   16   18 1
    39   16   19 1
    40   18   47 1
    41   18   48 1
    42   19   20 1
    43   19   49 1
    44   19   50 1
    45   20   21 1
    46   20   22 1
    47   20   23 1
    48   21   51 1
    49   21   52 1
    50   22   53 1
    51   22   54 1
    52   23   24 1
    53   23   55 1
    54   23   56 1
    55   24   29 ar
    56   24   25 ar
    57   25   26 ar
    58   25   57 1
    59   26   27 ar
    60   26   58 1
    61   27   28 ar
    62   27   59 1
    63   28   29 ar
    64   28   60 1
    65   29   61 1
@<TRIPOS>MOLECULE
ZINC15593957
   62    66     0     0     0
SMALL
USER_CHARGES
[(5R,7S)-3-benzyl-1-adamantyl]-(4-ethylpiperazin-1-yl)methanone
@<TRIPOS>ATOM
      1 C1          2.1988   13.3846   -6.9971 C.3       1 <0>        -0.1939
      2 C2          2.1081   11.8619   -7.1149 C.3       1 <0>        -0.0077
      3 N1          1.0808   11.3597   -6.1928 N.4       1 <0>        -0.3984
      4 C3          1.1261    9.8942   -6.1018 C.3       1 <0>        -0.0222
      5 C4         -0.0681    9.3998   -5.2785 C.3       1 <0>         0.0534
      6 N2         -0.0686   10.1034   -3.9870 N.am      1 <0>        -0.6306
      7 C5          0.0171   11.5717   -3.9944 C.3       1 <0>         0.0859
      8 C6          1.2138   11.9803   -4.8680 C.3       1 <0>        -0.0255
      9 C7         -0.1509    9.4211   -2.8276 C.2       1 <0>         0.5336
     10 O1         -0.2462   10.0198   -1.7771 O.2       1 <0>        -0.5052
     11 C8         -0.1245    7.9144   -2.8364 C.3       1 <0>        -0.0677
     12 C9          1.1778    7.4309   -3.4776 C.3       1 <0>        -0.1103
     13 C10         1.2045    5.9011   -3.4866 C.3       1 <0>        -0.0842
     14 H1          2.1408    5.5534   -3.9476 H         1 <0>         0.0783
     15 C11         0.0141    5.3749   -4.2908 C.3       1 <0>        -0.1121
     16 C12        -1.2882    5.8585   -3.6497 C.3       1 <0>        -0.0844
     17 H2         -2.1441    5.4803   -4.2280 H         1 <0>         0.0799
     18 C13        -1.3150    7.3882   -3.6407 C.3       1 <0>        -0.1160
     19 C14        -1.3733    5.3384   -2.2133 C.3       1 <0>        -0.1105
     20 C15        -0.1829    5.8646   -1.4090 C.3       1 <0>        -0.0424
     21 C16         1.1194    5.3811   -2.0502 C.3       1 <0>        -0.1099
     22 C17        -0.2096    7.3944   -1.4000 C.3       1 <0>        -0.0841
     23 C18        -0.2680    5.3446    0.0274 C.3       1 <0>        -0.0746
     24 C19        -0.2416    3.8379    0.0185 C.ar      1 <0>        -0.0777
     25 C20         0.9649    3.1672    0.0926 C.ar      1 <0>        -0.1173
     26 C21         0.9890    1.7851    0.0854 C.ar      1 <0>        -0.1179
     27 C22        -0.1934    1.0736    0.0045 C.ar      1 <0>        -0.1222
     28 C23        -1.3996    1.7443   -0.0749 C.ar      1 <0>        -0.1175
     29 C24        -1.4240    3.1264   -0.0633 C.ar      1 <0>        -0.1167
     30 H3          2.9681   13.7606   -7.6876 H         1 <0>         0.1071
     31 H4          2.4670   13.6572   -5.9657 H         1 <0>         0.0830
     32 H5          1.2265   13.8307   -7.2533 H         1 <0>         0.0825
     33 H6          1.8399   11.5893   -8.1463 H         1 <0>         0.1334
     34 H7          3.0804   11.4157   -6.8588 H         1 <0>         0.1258
     35 H8          1.0801    9.4625   -7.1125 H         1 <0>         0.1454
     36 H9          2.0624    9.5859   -5.6136 H         1 <0>         0.1312
     37 H10        -1.0008    9.6119   -5.8217 H         1 <0>         0.0988
     38 H11         0.0227    8.3158   -5.1152 H         1 <0>         0.1587
     39 H12        -0.9122   11.9911   -4.4073 H         1 <0>         0.0954
     40 H13         0.1587   11.9359   -2.9662 H         1 <0>         0.1357
     41 H14         2.1476   11.6407   -4.3961 H         1 <0>         0.1303
     42 H15         1.2346   13.0748   -4.9762 H         1 <0>         0.1491
     43 H16         1.2389    7.8048   -4.5103 H         1 <0>         0.0655
     44 H17         2.0337    7.8092   -2.8994 H         1 <0>         0.0720
     45 H18         0.0753    5.7487   -5.3235 H         1 <0>         0.0598
     46 H19         0.0333    4.2751   -4.2972 H         1 <0>         0.0726
     47 H20        -2.2513    7.7358   -3.1797 H         1 <0>         0.0745
     48 H21        -1.2539    7.7621   -4.6734 H         1 <0>         0.0721
     49 H22        -2.3096    5.6860   -1.7524 H         1 <0>         0.0651
     50 H23        -1.3540    4.2386   -2.2198 H         1 <0>         0.0770
     51 H24         1.1386    4.2813   -2.0567 H         1 <0>         0.0773
     52 H25         1.9753    5.7594   -1.4720 H         1 <0>         0.0641
     53 H26         0.6463    7.7727   -0.8218 H         1 <0>         0.0728
     54 H27        -1.1459    7.7421   -0.9390 H         1 <0>         0.0745
     55 H28         0.5879    5.7229    0.6056 H         1 <0>         0.0748
     56 H29        -1.2043    5.6922    0.4884 H         1 <0>         0.0754
     57 H30         1.8886    3.7231    0.1565 H         1 <0>         0.1189
     58 H31         1.9316    1.2612    0.1433 H         1 <0>         0.1213
     59 H32        -0.1746   -0.0062   -0.0011 H         1 <0>         0.1214
     60 H33        -2.3231    1.1884   -0.1425 H         1 <0>         0.1216
     61 H34        -2.3666    3.6503   -0.1208 H         1 <0>         0.1195
     62 H35         0.0963   11.6395   -6.5959 H         1 <0>         0.4414
@<TRIPOS>BOND
     1    1    2 1
     2    1   30 1
     3    1   31 1
     4    1   32 1
     5    2    3 1
     6    2   33 1
     7    2   34 1
     8    3    8 1
     9    3    4 1
    10    3   62 1
    11    4    5 1
    12    4   35 1
    13    4   36 1
    14    5    6 1
    15    5   37 1
    16    5   38 1
    17    6    7 1
    18    6    9 am
    19    7    8 1
    20    7   39 1
    21    7   40 1
    22    8   41 1
    23    8   42 1
    24    9   10 2
    25    9   11 1
    26   11   18 1
    27   11   22 1
    28   11   12 1
    29   12   13 1
    30   12   43 1
    31   12   44 1
    32   13   14 1
    33   13   21 1
    34   13   15 1
    35   15   16 1
    36   15   45 1
    37   15   46 1
    38   16   17 1
    39   16   18 1
    40   16   19 1
    41   18   47 1
    42   18   48 1
    43   19   20 1
    44   19   49 1
    45   19   50 1
    46   20   21 1
    47   20   22 1
    48   20   23 1
    49   21   51 1
    50   21   52 1
    51   22   53 1
    52   22   54 1
    53   23   24 1
    54   23   55 1
    55   23   56 1
    56   24   29 ar
    57   24   25 ar
    58   25   26 ar
    59   25   57 1
    60   26   27 ar
    61   26   58 1
    62   27   28 ar
    63   27   59 1
    64   28   29 ar
    65   28   60 1
    66   29   61 1
@<TRIPOS>MOLECULE
ZINC28896248
   65    70     0     0     0
SMALL
USER_CHARGES
(4-phenylpiperazin-1-yl)-[(5R,7S)-3-(p-tolyl)-1-adamantyl]methanone
@<TRIPOS>ATOM
      1 C1          1.8084    0.1781   -6.2091 C.3       1 <0>        -0.1189
      2 C2          1.1325    0.5734   -4.9215 C.ar      1 <0>        -0.0886
      3 C3          0.6519   -0.4002   -4.0659 C.ar      1 <0>        -0.1180
      4 C4          0.0315   -0.0376   -2.8851 C.ar      1 <0>        -0.1103
      5 C5         -0.1083    1.2986   -2.5597 C.ar      1 <0>        -0.0762
      6 C6          0.3676    2.2723   -3.4177 C.ar      1 <0>        -0.1154
      7 C7          0.9927    1.9096   -4.5961 C.ar      1 <0>        -0.1194
      8 C8         -0.7851    1.6939   -1.2726 C.3       1 <0>        -0.0070
      9 C9         -0.0150    1.1040   -0.0894 C.3       1 <0>        -0.1005
     10 C10        -0.7021    1.5054    1.2174 C.3       1 <0>        -0.0863
     11 H1         -0.1484    1.0813    2.0680 H         1 <0>         0.0774
     12 C11        -0.7256    3.0308    1.3337 C.3       1 <0>        -0.1113
     13 C12        -1.4957    3.6206    0.1505 C.3       1 <0>        -0.0833
     14 H2         -1.5126    4.7173    0.2340 H         1 <0>         0.0778
     15 C13        -0.8086    3.2193   -1.1563 C.3       1 <0>        -0.1073
     16 C14        -2.9294    3.0864    0.1579 C.3       1 <0>        -0.1155
     17 C15        -2.9059    1.5610    0.0416 C.3       1 <0>        -0.0667
     18 C16        -2.1358    0.9712    1.2248 C.3       1 <0>        -0.0876
     19 C17        -2.2188    1.1597   -1.2652 C.3       1 <0>        -0.1079
     20 C18        -4.3180    1.0349    0.0488 C.2       1 <0>         0.5274
     21 O1         -4.6689    0.2515    0.9057 O.2       1 <0>        -0.5346
     22 N1         -5.1911    1.4348   -0.8968 N.am      1 <0>        -0.6123
     23 C19        -6.6012    1.0201   -0.8463 C.3       1 <0>         0.1117
     24 C20        -7.4779    2.2758   -0.9759 C.3       1 <0>         0.0444
     25 N2         -7.0912    3.0139   -2.1856 N.pl3     1 <0>        -0.4861
     26 C21        -5.7055    3.4935   -2.0971 C.3       1 <0>         0.0334
     27 C22        -4.7575    2.2927   -2.0101 C.3       1 <0>         0.0829
     28 C23        -7.9717    4.0702   -2.4304 C.ar      1 <0>         0.1096
     29 C24        -7.4875    5.3667   -2.5500 C.ar      1 <0>        -0.1716
     30 C25        -8.3604    6.4080   -2.7968 C.ar      1 <0>        -0.0931
     31 C26        -9.7162    6.1627   -2.9145 C.ar      1 <0>        -0.1453
     32 C27       -10.2022    4.8740   -2.7908 C.ar      1 <0>        -0.0941
     33 C28        -9.3343    3.8273   -2.5492 C.ar      1 <0>        -0.1398
     34 H3          1.8254   -0.9186   -6.2926 H         1 <0>         0.0648
     35 H4          2.8391    0.5623   -6.2151 H         1 <0>         0.0694
     36 H5          1.2541    0.6021   -7.0594 H         1 <0>         0.0695
     37 H6          0.7608   -1.4442   -4.3203 H         1 <0>         0.1200
     38 H7         -0.3443   -0.7983   -2.2168 H         1 <0>         0.1193
     39 H8          0.2544    3.3164   -3.1656 H         1 <0>         0.1259
     40 H9          1.3678    2.6703   -5.2647 H         1 <0>         0.1202
     41 H10         0.0018    0.0073   -0.1730 H         1 <0>         0.0659
     42 H11         1.0158    1.4880   -0.0947 H         1 <0>         0.0674
     43 H12        -1.2196    3.3193    2.2732 H         1 <0>         0.0646
     44 H13         0.3052    3.4149    1.3285 H         1 <0>         0.0663
     45 H14         0.2222    3.6033   -1.1616 H         1 <0>         0.0720
     46 H15        -1.3622    3.6434   -2.0069 H         1 <0>         0.0671
     47 H16        -3.4233    3.3749    1.0975 H         1 <0>         0.0695
     48 H17        -3.4831    3.5105   -0.6927 H         1 <0>         0.0775
     49 H18        -2.1189   -0.1255    1.1413 H         1 <0>         0.0707
     50 H19        -2.6298    1.2598    2.1643 H         1 <0>         0.0704
     51 H20        -2.7725    1.5838   -2.1158 H         1 <0>         0.0825
     52 H21        -2.2019    0.0630   -1.3488 H         1 <0>         0.0717
     53 H22        -6.8095    0.3272   -1.6749 H         1 <0>         0.0779
     54 H23        -6.8015    0.5172    0.1113 H         1 <0>         0.1014
     55 H24        -8.5348    1.9793   -1.0471 H         1 <0>         0.0964
     56 H25        -7.3352    2.9154   -0.0924 H         1 <0>         0.0499
     57 H26        -5.4654    4.0878   -2.9911 H         1 <0>         0.0974
     58 H27        -5.5905    4.1188   -1.1994 H         1 <0>         0.0534
     59 H28        -3.7294    2.6387   -1.8275 H         1 <0>         0.1227
     60 H29        -4.7903    1.7200   -2.9487 H         1 <0>         0.0802
     61 H30        -6.4293    5.5595   -2.4538 H         1 <0>         0.1255
     62 H31        -7.9842    7.4157   -2.8940 H         1 <0>         0.1224
     63 H32       -10.3971    6.9794   -3.1038 H         1 <0>         0.1215
     64 H33       -11.2616    4.6858   -2.8835 H         1 <0>         0.1244
     65 H34        -9.7145    2.8211   -2.4523 H         1 <0>         0.1247
@<TRIPOS>BOND
     1    1    2 1
     2    1   34 1
     3    1   35 1
     4    1   36 1
     5    2    7 ar
     6    2    3 ar
     7    3    4 ar
     8    3   37 1
     9    4    5 ar
    10    4   38 1
    11    5    6 ar
    12    5    8 1
    13    6    7 ar
    14    6   39 1
    15    7   40 1
    16    8   15 1
    17    8   19 1
    18    8    9 1
    19    9   10 1
    20    9   41 1
    21    9   42 1
    22   10   11 1
    23   10   18 1
    24   10   12 1
    25   12   13 1
    26   12   43 1
    27   12   44 1
    28   13   14 1
    29   13   15 1
    30   13   16 1
    31   15   45 1
    32   15   46 1
    33   16   17 1
    34   16   47 1
    35   16   48 1
    36   17   18 1
    37   17   19 1
    38   17   20 1
    39   18   49 1
    40   18   50 1
    41   19   51 1
    42   19   52 1
    43   20   21 2
    44   20   22 am
    45   22   27 1
    46   22   23 1
    47   23   24 1
    48   23   53 1
    49   23   54 1
    50   24   25 1
    51   24   55 1
    52   24   56 1
    53   25   26 1
    54   25   28 1
    55   26   27 1
    56   26   57 1
    57   26   58 1
    58   27   59 1
    59   27   60 1
    60   28   33 ar
    61   28   29 ar
    62   29   30 ar
    63   29   61 1
    64   30   31 ar
    65   30   62 1
    66   31   32 ar
    67   31   63 1
    68   32   33 ar
    69   32   64 1
    70   33   65 1
@<TRIPOS>MOLECULE
ZINC13154390
   58    62     0     0     0
SMALL
USER_CHARGES

@<TRIPOS>ATOM
      1 C1         -0.3879    1.4882    0.0082 C.3       1 <0>        -0.1160
      2 C2         -0.2909   -0.0156    0.0003 C.ar      1 <0>        -0.0906
      3 C3         -0.2299   -0.6980   -1.2003 C.ar      1 <0>        -0.1200
      4 C4         -0.1409   -2.0775   -1.2075 C.ar      1 <0>        -0.1106
      5 C5         -0.1125   -2.7745   -0.0141 C.ar      1 <0>        -0.0750
      6 C6         -0.1726   -2.0920    1.1865 C.ar      1 <0>        -0.1153
      7 C7         -0.2573   -0.7123    1.1938 C.ar      1 <0>        -0.1185
      8 C8         -0.0164   -4.2784   -0.0220 C.3       1 <0>        -0.0107
      9 C9         -1.2211   -4.8625   -0.7626 C.3       1 <0>        -0.0999
     10 C10        -1.1236   -6.3894   -0.7706 C.3       1 <0>        -0.0835
     11 H1         -1.9819   -6.8055   -1.2982 H         1 <0>         0.0779
     12 C11         0.1649   -6.8144   -1.4777 C.3       1 <0>        -0.1109
     13 C12         1.3695   -6.2304   -0.7370 C.3       1 <0>        -0.0833
     14 H2          2.2875   -6.5332   -1.2408 H         1 <0>         0.0775
     15 C13         1.2721   -4.7035   -0.7290 C.3       1 <0>        -0.0996
     16 C14         1.3832   -6.7481    0.7026 C.3       1 <0>        -0.1107
     17 C15         0.0947   -6.3230    1.4097 C.3       1 <0>        -0.0674
     18 C16        -1.1100   -6.9071    0.6691 C.3       1 <0>        -0.1206
     19 C17        -0.0028   -4.7961    1.4177 C.3       1 <0>        -0.0802
     20 C18         0.1081   -6.8329    2.8277 C.2       1 <0>         0.5269
     21 O1          0.1939   -6.0524    3.7521 O.2       1 <0>        -0.5368
     22 N1          0.0248   -8.1564    3.0688 N.am      1 <0>        -0.6118
     23 C19         0.0352   -9.1270    1.9638 C.3       1 <0>         0.0893
     24 C20         1.0980  -10.1905    2.2602 C.3       1 <0>         0.0369
     25 N2          0.8536  -10.7654    3.5897 N.3       1 <0>        -0.5423
     26 C21         0.9883   -9.7497    4.6424 C.3       1 <0>         0.0405
     27 C22        -0.0728   -8.6685    4.4441 C.3       1 <0>         0.1142
     28 C23         1.7440  -11.9062    3.8418 C.3       1 <0>         0.0241
     29 H3          0.6142    1.9169    0.0198 H         1 <0>         0.0695
     30 H4         -0.9160    1.8229   -0.8847 H         1 <0>         0.0654
     31 H5         -0.9321    1.8126    0.8952 H         1 <0>         0.0656
     32 H6         -0.2520   -0.1534   -2.1327 H         1 <0>         0.1198
     33 H7         -0.0939   -2.6107   -2.1455 H         1 <0>         0.1197
     34 H8         -0.1507   -2.6366    2.1189 H         1 <0>         0.1271
     35 H9         -0.3005   -0.1789    2.1319 H         1 <0>         0.1201
     36 H10        -2.1391   -4.5597   -0.2588 H         1 <0>         0.0650
     37 H11        -1.2309   -4.4937   -1.7882 H         1 <0>         0.0672
     38 H12         0.2343   -7.9022   -1.4834 H         1 <0>         0.0643
     39 H13         0.1551   -6.4456   -2.5033 H         1 <0>         0.0676
     40 H14         1.2623   -4.3347   -1.7547 H         1 <0>         0.0676
     41 H15         2.1303   -4.2874   -0.2014 H         1 <0>         0.0650
     42 H16         1.4526   -7.8359    0.6969 H         1 <0>         0.0755
     43 H17         2.2414   -6.3320    1.2303 H         1 <0>         0.0689
     44 H18        -2.0279   -6.6043    1.1728 H         1 <0>         0.0688
     45 H19        -1.0405   -7.9949    0.6634 H         1 <0>         0.0834
     46 H20         0.8554   -4.3800    1.9453 H         1 <0>         0.0741
     47 H21        -0.9208   -4.4933    1.9214 H         1 <0>         0.0712
     48 H22        -0.9434   -9.6001    1.8828 H         1 <0>         0.0789
     49 H23         0.2772   -8.6175    1.0311 H         1 <0>         0.1146
     50 H24         1.0445  -10.9776    1.5081 H         1 <0>         0.0892
     51 H25         2.0869   -9.7325    2.2381 H         1 <0>         0.0396
     52 H26         0.8552  -10.2172    5.6180 H         1 <0>         0.0890
     53 H27         1.9787   -9.2978    4.5872 H         1 <0>         0.0385
     54 H28         0.0977   -7.8560    5.1503 H         1 <0>         0.0964
     55 H29        -1.0621   -9.0966    4.6060 H         1 <0>         0.0755
     56 H30         2.7814  -11.5760    3.7892 H         1 <0>         0.0264
     57 H31         1.5419  -12.3128    4.8327 H         1 <0>         0.0712
     58 H32         1.5693  -12.6764    3.0905 H         1 <0>         0.0714
@<TRIPOS>BOND
     1    1    2 1
     2    1   29 1
     3    1   30 1
     4    1   31 1
     5    2    7 ar
     6    2    3 ar
     7    3    4 ar
     8    3   32 1
     9    4    5 ar
    10    4   33 1
    11    5    6 ar
    12    5    8 1
    13    6    7 ar
    14    6   34 1
    15    7   35 1
    16    8   15 1
    17    8   19 1
    18    8    9 1
    19    9   10 1
    20    9   36 1
    21    9   37 1
    22   10   11 1
    23   10   18 1
    24   10   12 1
    25   12   13 1
    26   12   38 1
    27   12   39 1
    28   13   14 1
    29   13   15 1
    30   13   16 1
    31   15   40 1
    32   15   41 1
    33   16   17 1
    34   16   42 1
    35   16   43 1
    36   17   18 1
    37   17   19 1
    38   17   20 1
    39   18   44 1
    40   18   45 1
    41   19   46 1
    42   19   47 1
    43   20   21 2
    44   20   22 am
    45   22   27 1
    46   22   23 1
    47   23   24 1
    48   23   48 1
    49   23   49 1
    50   24   25 1
    51   24   50 1
    52   24   51 1
    53   25   26 1
    54   25   28 1
    55   26   27 1
    56   26   52 1
    57   26   53 1
    58   27   54 1
    59   27   55 1
    60   28   56 1
    61   28   57 1
    62   28   58 1
@<TRIPOS>MOLECULE
ZINC13154390
   59    63     0     0     0
SMALL
USER_CHARGES

@<TRIPOS>ATOM
      1 C1         -0.4091    1.4864    0.0066 C.3       1 <0>        -0.1194
      2 C2         -0.3071   -0.0171   -0.0009 C.ar      1 <0>        -0.0840
      3 C3         -0.2410   -0.6994   -1.2014 C.ar      1 <0>        -0.1178
      4 C4         -0.1474   -2.0785   -1.2083 C.ar      1 <0>        -0.1093
      5 C5         -0.1194   -2.7754   -0.0148 C.ar      1 <0>        -0.0829
      6 C6         -0.1846   -2.0931    1.1857 C.ar      1 <0>        -0.1165
      7 C7         -0.2739   -0.7136    1.1927 C.ar      1 <0>        -0.1181
      8 C8         -0.0184   -4.2790   -0.0224 C.3       1 <0>        -0.0072
      9 C9          1.2732   -4.6998   -0.7264 C.3       1 <0>        -0.1033
     10 C10         1.3758   -6.2263   -0.7341 C.3       1 <0>        -0.0844
     11 H1          2.2959   -6.5261   -1.2357 H         1 <0>         0.0817
     12 C11         0.1748   -6.8144   -1.4775 C.3       1 <0>        -0.1124
     13 C12        -1.1168   -6.3936   -0.7735 C.3       1 <0>        -0.0845
     14 H2         -1.9724   -6.8126   -1.3030 H         1 <0>         0.0817
     15 C13        -1.2194   -4.8671   -0.7658 C.3       1 <0>        -0.1037
     16 C14        -1.1047   -6.9112    0.6663 C.3       1 <0>        -0.1179
     17 C15         0.0963   -6.3231    1.4097 C.3       1 <0>        -0.0700
     18 C16         1.3878   -6.7439    0.7056 C.3       1 <0>        -0.1070
     19 C17        -0.0063   -4.7966    1.4174 C.3       1 <0>        -0.0833
     20 C18         0.1081   -6.8329    2.8277 C.2       1 <0>         0.5352
     21 O1          0.1926   -6.0523    3.7521 O.2       1 <0>        -0.5042
     22 N1          0.0248   -8.1564    3.0688 N.am      1 <0>        -0.6321
     23 C19         0.0352   -9.1284    1.9647 C.3       1 <0>         0.0588
     24 C20         1.0851  -10.2013    2.2720 C.3       1 <0>        -0.0254
     25 N2          0.8144  -10.7859    3.5915 N.4       1 <0>        -0.3849
     26 C21         0.9767   -9.7644    4.6338 C.3       1 <0>        -0.0199
     27 C22        -0.0729   -8.6701    4.4438 C.3       1 <0>         0.0855
     28 C23         1.7532  -11.8884    3.8386 C.3       1 <0>        -0.0474
     29 H3          0.5915    1.9184    0.0205 H         1 <0>         0.0721
     30 H4         -0.9362    1.8193   -0.8875 H         1 <0>         0.0678
     31 H5         -0.9565    1.8090    0.8923 H         1 <0>         0.0673
     32 H6         -0.2628   -0.1549   -2.1338 H         1 <0>         0.1225
     33 H7         -0.0964   -2.6116   -2.1462 H         1 <0>         0.1200
     34 H8         -0.1631   -2.6376    2.1181 H         1 <0>         0.1242
     35 H9         -0.3211   -0.1803    2.1306 H         1 <0>         0.1216
     36 H10         1.2646   -4.3310   -1.7521 H         1 <0>         0.0726
     37 H11         2.1288   -4.2808   -0.1969 H         1 <0>         0.0677
     38 H12         0.1662   -6.4457   -2.5032 H         1 <0>         0.0735
     39 H13         0.2479   -7.9020   -1.4830 H         1 <0>         0.0620
     40 H14        -2.1395   -4.5673   -0.2642 H         1 <0>         0.0676
     41 H15        -1.2279   -4.4983   -1.7914 H         1 <0>         0.0721
     42 H16        -2.0249   -6.6115    1.1679 H         1 <0>         0.0734
     43 H17        -1.0316   -7.9988    0.6608 H         1 <0>         0.0742
     44 H18         1.4609   -7.8315    0.7001 H         1 <0>         0.0657
     45 H19         2.2435   -6.3249    1.2352 H         1 <0>         0.0744
     46 H20         0.8493   -4.3776    1.9469 H         1 <0>         0.0776
     47 H21        -0.9264   -4.4968    1.9189 H         1 <0>         0.0746
     48 H22        -0.9472   -9.5921    1.8757 H         1 <0>         0.0990
     49 H23         0.2903   -8.6224    1.0336 H         1 <0>         0.1543
     50 H24         1.0401  -10.9819    1.5125 H         1 <0>         0.1457
     51 H25         2.0772   -9.7499    2.2710 H         1 <0>         0.1340
     52 H26         0.8518  -10.2230    5.6147 H         1 <0>         0.1448
     53 H27         1.9721   -9.3261    4.5614 H         1 <0>         0.1331
     54 H28         0.1108   -7.8612    5.1509 H         1 <0>         0.1362
     55 H29        -1.0664   -9.0867    4.6094 H         1 <0>         0.0947
     56 H30         2.7746  -11.5089    3.8112 H         1 <0>         0.1222
     57 H31         1.5533  -12.3232    4.8179 H         1 <0>         0.1263
     58 H32         1.6282  -12.6512    3.0700 H         1 <0>         0.1263
     59 H33        -0.1301  -11.1402    3.6137 H         1 <0>         0.4258
@<TRIPOS>BOND
     1    1    2 1
     2    1   29 1
     3    1   30 1
     4    1   31 1
     5    2    7 ar
     6    2    3 ar
     7    3    4 ar
     8    3   32 1
     9    4    5 ar
    10    4   33 1
    11    5    6 ar
    12    5    8 1
    13    6    7 ar
    14    6   34 1
    15    7   35 1
    16    8   15 1
    17    8   19 1
    18    8    9 1
    19    9   10 1
    20    9   36 1
    21    9   37 1
    22   10   11 1
    23   10   18 1
    24   10   12 1
    25   12   13 1
    26   12   38 1
    27   12   39 1
    28   13   14 1
    29   13   15 1
    30   13   16 1
    31   15   40 1
    32   15   41 1
    33   16   17 1
    34   16   42 1
    35   16   43 1
    36   17   18 1
    37   17   19 1
    38   17   20 1
    39   18   44 1
    40   18   45 1
    41   19   46 1
    42   19   47 1
    43   20   21 2
    44   20   22 am
    45   22   27 1
    46   22   23 1
    47   23   24 1
    48   23   48 1
    49   23   49 1
    50   24   25 1
    51   24   50 1
    52   24   51 1
    53   25   26 1
    54   25   28 1
    55   25   59 1
    56   26   27 1
    57   26   52 1
    58   26   53 1
    59   27   54 1
    60   27   55 1
    61   28   56 1
    62   28   57 1
    63   28   58 1
@<TRIPOS>MOLECULE
ZINC04170167
   47    51     0     0     0
SMALL
USER_CHARGES
1-adamantyl-(3,4-dihydro-2H-quinolin-1-yl)methanone
@<TRIPOS>ATOM
      1 C1         -6.0658    2.9272    0.7454 C.ar      1 <0>        -0.1397
      2 C2         -6.0531    1.6209    0.2913 C.ar      1 <0>        -0.1029
      3 C3         -4.8517    1.0006    0.0133 C.ar      1 <0>        -0.1513
      4 C4         -3.6560    1.6862    0.1955 C.ar      1 <0>         0.1539
      5 C5         -3.6697    2.9982    0.6415 C.ar      1 <0>        -0.1181
      6 C6         -4.8795    3.6130    0.9190 C.ar      1 <0>        -0.1007
      7 C7         -2.3953    3.7764    0.8366 C.3       1 <0>        -0.0782
      8 C8         -1.2055    2.8278    0.9803 C.3       1 <0>        -0.1385
      9 C9         -1.2175    1.8359   -0.1901 C.3       1 <0>         0.0800
     10 N1         -2.4466    1.0372   -0.0892 N.am      1 <0>        -0.5496
     11 C10        -2.4117   -0.2989   -0.2623 C.2       1 <0>         0.5243
     12 O1         -3.4100   -0.9613   -0.0732 O.2       1 <0>        -0.5122
     13 C11        -1.1321   -0.9700   -0.6907 C.3       1 <0>        -0.0654
     14 C12        -0.1262   -0.9329    0.4615 C.3       1 <0>        -0.1102
     15 C13         1.1729   -1.6142    0.0265 C.3       1 <0>        -0.0834
     16 C14         0.8842   -3.0683   -0.3519 C.3       1 <0>        -0.1106
     17 C15        -0.1217   -3.1054   -1.5041 C.3       1 <0>        -0.0862
     18 C16        -1.4208   -2.4241   -1.0691 C.3       1 <0>        -0.0875
     19 C17         0.4600   -2.3697   -2.7129 C.3       1 <0>        -0.1109
     20 C18         0.7487   -0.9156   -2.3345 C.3       1 <0>        -0.0832
     21 C19         1.7546   -0.8785   -1.1823 C.3       1 <0>        -0.1110
     22 C20        -0.5504   -0.2343   -1.8995 C.3       1 <0>        -0.1248
     23 H1         -7.0055    3.4123    0.9645 H         1 <0>         0.1215
     24 H2         -6.9818    1.0868    0.1548 H         1 <0>         0.1241
     25 H3         -4.8403   -0.0193   -0.3416 H         1 <0>         0.1647
     26 H4         -4.8953    4.6334    1.2723 H         1 <0>         0.1239
     27 H5         -2.2354    4.4263   -0.0237 H         1 <0>         0.0779
     28 H6         -2.4802    4.3859    1.7363 H         1 <0>         0.0808
     29 H7         -0.2781    3.4003    0.9643 H         1 <0>         0.0875
     30 H8         -1.2843    2.2832    1.9213 H         1 <0>         0.0733
     31 H9         -1.2071    2.3795   -1.1348 H         1 <0>         0.0793
     32 H10        -0.3464    1.1835   -0.1301 H         1 <0>         0.1160
     33 H11         0.0794    0.1030    0.7311 H         1 <0>         0.0749
     34 H12        -0.5407   -1.4571    1.3227 H         1 <0>         0.0711
     35 H13         1.8895   -1.5878    0.8474 H         1 <0>         0.0766
     36 H14         0.4697   -3.5925    0.5093 H         1 <0>         0.0640
     37 H15         1.8097   -3.5537   -0.6618 H         1 <0>         0.0659
     38 H16        -0.3274   -4.1413   -1.7737 H         1 <0>         0.0756
     39 H17        -1.8352   -2.9482   -0.2080 H         1 <0>         0.0730
     40 H18        -2.1374   -2.4505   -1.8900 H         1 <0>         0.0681
     41 H19         1.3855   -2.8550   -3.0228 H         1 <0>         0.0655
     42 H20        -0.2566   -2.3961   -3.5338 H         1 <0>         0.0633
     43 H21         1.1631   -0.3914   -3.1956 H         1 <0>         0.0759
     44 H22         1.9603    0.1574   -0.9127 H         1 <0>         0.0632
     45 H23         2.6801   -1.3639   -1.4921 H         1 <0>         0.0676
     46 H24        -1.2670   -0.2607   -2.7204 H         1 <0>         0.0685
     47 H25        -0.3447    0.8016   -1.6299 H         1 <0>         0.0839
@<TRIPOS>BOND
     1    1    6 ar
     2    1    2 ar
     3    1   23 1
     4    2    3 ar
     5    2   24 1
     6    3    4 ar
     7    3   25 1
     8    4   10 1
     9    4    5 ar
    10    5    6 ar
    11    5    7 1
    12    6   26 1
    13    7    8 1
    14    7   27 1
    15    7   28 1
    16    8    9 1
    17    8   29 1
    18    8   30 1
    19    9   10 1
    20    9   31 1
    21    9   32 1
    22   10   11 am
    23   11   12 2
    24   11   13 1
    25   13   18 1
    26   13   22 1
    27   13   14 1
    28   14   15 1
    29   14   33 1
    30   14   34 1
    31   15   21 1
    32   15   16 1
    33   15   35 1
    34   16   17 1
    35   16   36 1
    36   16   37 1
    37   17   18 1
    38   17   19 1
    39   17   38 1
    40   18   39 1
    41   18   40 1
    42   19   20 1
    43   19   41 1
    44   19   42 1
    45   20   21 1
    46   20   22 1
    47   20   43 1
    48   21   44 1
    49   21   45 1
    50   22   46 1
    51   22   47 1
@<TRIPOS>MOLECULE
ZINC12584311
   46    49     0     0     0
SMALL
USER_CHARGES
3-[1-[4-(trifluoromethyl)benzoyl]-4-piperidyl]-1H-benzimidazol-2-one
@<TRIPOS>ATOM
      1 C1          0.8779   -1.5309   -0.7104 C.ar      1 <0>        -0.1090
      2 C2          1.1826   -0.1984   -0.4907 C.ar      1 <0>        -0.1070
      3 C3          0.1741    0.7406   -0.3985 C.ar      1 <0>        -0.1057
      4 C4         -1.1493    0.3467   -0.5257 C.ar      1 <0>         0.0905
      5 C5         -1.4566   -0.9971   -0.7473 C.ar      1 <0>         0.0878
      6 C6         -0.4372   -1.9326   -0.8388 C.ar      1 <0>        -0.1039
      7 N1         -2.8442   -1.0843   -0.8307 N.am      1 <0>        -0.6448
      8 H1         -3.3541   -1.8958   -0.9804 H         1 <0>         0.4349
      9 C7         -3.3573    0.1497   -0.6675 C.2       1 <0>         0.6823
     10 O1         -4.5428    0.4238   -0.6853 O.2       1 <0>        -0.5494
     11 N2         -2.3600    1.0337   -0.4759 N.am      1 <0>        -0.5352
     12 C8         -2.5203    2.4739   -0.2608 C.3       1 <0>         0.1679
     13 C9         -3.3494    2.7113    1.0035 C.3       1 <0>        -0.1518
     14 C10        -3.4854    4.2180    1.2446 C.3       1 <0>         0.1009
     15 N3         -4.0381    4.8423    0.0348 N.am      1 <0>        -0.6059
     16 C11        -3.3695    4.6038   -1.2516 C.3       1 <0>         0.1182
     17 C12        -3.2345    3.0928   -1.4645 C.3       1 <0>        -0.1514
     18 C13        -5.1378    5.6185    0.1037 C.2       1 <0>         0.5626
     19 O2         -5.5455    6.1844   -0.8917 O.2       1 <0>        -0.5209
     20 C14        -5.8481    5.7815    1.3901 C.ar      1 <0>        -0.0933
     21 C15        -7.2281    5.5838    1.4587 C.ar      1 <0>        -0.0692
     22 C16        -7.8841    5.7333    2.6631 C.ar      1 <0>        -0.0693
     23 C17        -7.1787    6.0883    3.7992 C.ar      1 <0>        -0.1643
     24 C18        -5.8114    6.2904    3.7370 C.ar      1 <0>        -0.0727
     25 C19        -5.1425    6.1395    2.5399 C.ar      1 <0>        -0.0955
     26 C20        -7.9029    6.2550    5.1102 C.3       1 <0>         0.5075
     27 F1         -8.3278    7.5813    5.2429 F         1 <0>        -0.1731
     28 F2         -9.0130    5.4043    5.1413 F         1 <0>        -0.1741
     29 F3         -7.0399    5.9342    6.1636 F         1 <0>        -0.1748
     30 H2          1.6721   -2.2593   -0.7820 H         1 <0>         0.1346
     31 H3          2.2135    0.1082   -0.3917 H         1 <0>         0.1344
     32 H4          0.4156    1.7792   -0.2275 H         1 <0>         0.1293
     33 H5         -0.6710   -2.9729   -1.0104 H         1 <0>         0.1318
     34 H6         -1.5396    2.9350   -0.1438 H         1 <0>         0.1020
     35 H7         -4.3389    2.2720    0.8775 H         1 <0>         0.0898
     36 H8         -2.8520    2.2500    1.8567 H         1 <0>         0.0842
     37 H9         -2.5055    4.6437    1.4603 H         1 <0>         0.0802
     38 H10        -4.1559    4.3944    2.0857 H         1 <0>         0.1014
     39 H11        -2.3801    5.0610   -1.2395 H         1 <0>         0.0763
     40 H12        -3.9614    5.0351   -2.0589 H         1 <0>         0.1029
     41 H13        -2.6553    2.9031   -2.3682 H         1 <0>         0.0838
     42 H14        -4.2249    2.6495   -1.5674 H         1 <0>         0.0894
     43 H15        -7.7805    5.3110    0.5717 H         1 <0>         0.1445
     44 H16        -8.9513    5.5770    2.7183 H         1 <0>         0.1457
     45 H17        -5.2666    6.5674    4.6274 H         1 <0>         0.1452
     46 H18        -4.0752    6.2975    2.4927 H         1 <0>         0.1435
@<TRIPOS>BOND
     1    1    6 ar
     2    1    2 ar
     3    1   30 1
     4    2    3 ar
     5    2   31 1
     6    3    4 ar
     7    3   32 1
     8    4   11 1
     9    4    5 ar
    10    5    6 ar
    11    5    7 1
    12    6   33 1
    13    7    8 1
    14    7    9 am
    15    9   10 2
    16    9   11 am
    17   11   12 1
    18   12   17 1
    19   12   13 1
    20   12   34 1
    21   13   14 1
    22   13   35 1
    23   13   36 1
    24   14   15 1
    25   14   37 1
    26   14   38 1
    27   15   16 1
    28   15   18 am
    29   16   17 1
    30   16   39 1
    31   16   40 1
    32   17   41 1
    33   17   42 1
    34   18   19 2
    35   18   20 1
    36   20   25 ar
    37   20   21 ar
    38   21   22 ar
    39   21   43 1
    40   22   23 ar
    41   22   44 1
    42   23   24 ar
    43   23   26 1
    44   24   25 ar
    45   24   45 1
    46   25   46 1
    47   26   27 1
    48   26   28 1
    49   26   29 1
@<TRIPOS>MOLECULE
ZINC28955423
   46    49     0     0     0
SMALL
USER_CHARGES
3-[1-[2-(trifluoromethyl)benzoyl]-4-piperidyl]-1H-benzimidazol-2-one
@<TRIPOS>ATOM
      1 C1         -6.0443    6.8356    3.5392 C.ar      1 <0>        -0.0897
      2 C2         -7.1777    6.0859    3.8000 C.ar      1 <0>        -0.1002
      3 C3         -7.6497    5.1851    2.8621 C.ar      1 <0>        -0.0739
      4 C4         -6.9918    5.0285    1.6595 C.ar      1 <0>        -0.1402
      5 C5         -5.8481    5.7815    1.3901 C.ar      1 <0>        -0.0768
      6 C6         -5.3744    6.6852    2.3428 C.ar      1 <0>        -0.0956
      7 C7         -5.1378    5.6185    0.1037 C.2       1 <0>         0.5517
      8 O1         -5.7336    5.7769   -0.9439 O.2       1 <0>        -0.5060
      9 N1         -3.8296    5.2942    0.0926 N.am      1 <0>        -0.6027
     10 C8         -3.1314    5.0430   -1.1755 C.3       1 <0>         0.1171
     11 C9         -2.4489    3.6736   -1.0997 C.3       1 <0>        -0.1516
     12 C10        -1.5461    3.6256    0.1351 C.3       1 <0>         0.1703
     13 C11        -2.3933    3.8135    1.3957 C.3       1 <0>        -0.1516
     14 C12        -3.0749    5.1846    1.3485 C.3       1 <0>         0.1028
     15 N2         -0.8663    2.3292    0.1926 N.am      1 <0>        -0.5373
     16 C13         0.5121    2.1300    0.1731 C.ar      1 <0>         0.0867
     17 C14         1.5970    2.9908    0.1054 C.ar      1 <0>        -0.1065
     18 C15         2.8805    2.4810    0.1113 C.ar      1 <0>        -0.1101
     19 C16         3.0883    1.1142    0.1837 C.ar      1 <0>        -0.1100
     20 C17         2.0140    0.2489    0.2511 C.ar      1 <0>        -0.1064
     21 C18         0.7217    0.7515    0.2461 C.ar      1 <0>         0.0830
     22 N3         -0.5359    0.1555    0.3022 N.am      1 <0>        -0.6583
     23 H1         -0.6234   -0.9392    0.3648 H         1 <0>         0.4630
     24 C19        -1.4676    1.1267    0.2650 C.2       1 <0>         0.6885
     25 O2         -2.6705    0.9455    0.2969 O.2       1 <0>        -0.5491
     26 C20        -7.5067    4.0461    0.6393 C.3       1 <0>         0.5001
     27 F1         -8.6541    3.4176    1.1349 F         1 <0>        -0.1777
     28 F2         -7.8203    4.7237   -0.5438 F         1 <0>        -0.1554
     29 F3         -6.5238    3.0850    0.3798 F         1 <0>        -0.1724
     30 H2         -5.6808    7.5369    4.2757 H         1 <0>         0.1418
     31 H3         -7.6960    6.2042    4.7401 H         1 <0>         0.1422
     32 H4         -8.5349    4.6030    3.0719 H         1 <0>         0.1467
     33 H5         -4.4873    7.2677    2.1422 H         1 <0>         0.1415
     34 H6         -3.8573    5.0527   -2.0019 H         1 <0>         0.1040
     35 H7         -2.3775    5.8268   -1.3405 H         1 <0>         0.0768
     36 H8         -3.2137    2.8863   -1.0273 H         1 <0>         0.0918
     37 H9         -1.8438    3.5149   -2.0045 H         1 <0>         0.0840
     38 H10        -0.7659    4.3987    0.0744 H         1 <0>         0.1008
     39 H11        -3.1577    3.0240    1.4448 H         1 <0>         0.0919
     40 H12        -1.7472    3.7540    2.2840 H         1 <0>         0.0839
     41 H13        -2.3163    5.9800    1.3910 H         1 <0>         0.0804
     42 H14        -3.7632    5.2886    2.2002 H         1 <0>         0.0980
     43 H15         1.4387    4.0577    0.0484 H         1 <0>         0.1275
     44 H16         3.7256    3.1513    0.0585 H         1 <0>         0.1328
     45 H17         4.0949    0.7228    0.1872 H         1 <0>         0.1330
     46 H18         2.1801   -0.8168    0.3071 H         1 <0>         0.1308
@<TRIPOS>BOND
     1    1    6 ar
     2    1    2 ar
     3    1   30 1
     4    2    3 ar
     5    2   31 1
     6    3    4 ar
     7    3   32 1
     8    4    5 ar
     9    4   26 1
    10    5    6 ar
    11    5    7 1
    12    6   33 1
    13    7    8 2
    14    7    9 am
    15    9   14 1
    16    9   10 1
    17   10   11 1
    18   10   34 1
    19   10   35 1
    20   11   12 1
    21   11   36 1
    22   11   37 1
    23   12   13 1
    24   12   15 1
    25   12   38 1
    26   13   14 1
    27   13   39 1
    28   13   40 1
    29   14   41 1
    30   14   42 1
    31   15   24 am
    32   15   16 1
    33   16   21 ar
    34   16   17 ar
    35   17   18 ar
    36   17   43 1
    37   18   19 ar
    38   18   44 1
    39   19   20 ar
    40   19   45 1
    41   20   21 ar
    42   20   46 1
    43   21   22 1
    44   22   23 1
    45   22   24 am
    46   24   25 2
    47   26   27 1
    48   26   28 1
    49   26   29 1
@<TRIPOS>MOLECULE
ZINC12584333
   47    50     0     0     0
SMALL
USER_CHARGES
3-[1-(3-methoxybenzoyl)-4-piperidyl]-1H-benzimidazol-2-one
@<TRIPOS>ATOM
      1 C1         -5.8871    6.7772    6.0664 C.3       1 <0>         0.0256
      2 O1         -5.1305    6.6391    4.8620 O.3       1 <0>        -0.3152
      3 C2         -5.8142    6.2902    3.7404 C.ar      1 <0>         0.1247
      4 C3         -7.1863    6.0856    3.7995 C.ar      1 <0>        -0.1879
      5 C4         -7.8871    5.7315    2.6617 C.ar      1 <0>        -0.0791
      6 C5         -7.2280    5.5836    1.4582 C.ar      1 <0>        -0.1056
      7 C6         -5.8481    5.7815    1.3902 C.ar      1 <0>        -0.0869
      8 C7         -5.1423    6.1394    2.5393 C.ar      1 <0>        -0.1279
      9 C8         -5.1378    5.6185    0.1037 C.2       1 <0>         0.5672
     10 O2         -5.5454    6.1847   -0.8916 O.2       1 <0>        -0.5253
     11 N1         -4.0383    4.8420    0.0347 N.am      1 <0>        -0.6068
     12 C9         -3.3697    4.6036   -1.2517 C.3       1 <0>         0.1181
     13 C10        -3.2350    3.0926   -1.4648 C.3       1 <0>        -0.1508
     14 C11        -2.5211    2.4733   -0.2611 C.3       1 <0>         0.1676
     15 C12        -3.3501    2.7108    1.0032 C.3       1 <0>        -0.1508
     16 C13        -3.4858    4.2175    1.2445 C.3       1 <0>         0.1015
     17 N2         -2.3610    1.0331   -0.4764 N.am      1 <0>        -0.5348
     18 C14        -1.1505    0.3459   -0.5263 C.ar      1 <0>         0.0911
     19 C15         0.1730    0.7394   -0.3990 C.ar      1 <0>        -0.1058
     20 C16         1.1813   -0.1998   -0.4913 C.ar      1 <0>        -0.1072
     21 C17         0.8763   -1.5322   -0.7111 C.ar      1 <0>        -0.1095
     22 C18        -0.4389   -1.9335   -0.8396 C.ar      1 <0>        -0.1042
     23 C19        -1.4582   -0.9979   -0.7480 C.ar      1 <0>         0.0876
     24 N3         -2.8458   -1.0847   -0.8315 N.am      1 <0>        -0.6450
     25 H1         -3.3558   -1.8961   -0.9813 H         1 <0>         0.4346
     26 C20        -3.3586    0.1494   -0.6681 C.2       1 <0>         0.6821
     27 O3         -4.5440    0.4238   -0.6860 O.2       1 <0>        -0.5489
     28 H2         -6.6447    7.5495    5.9330 H         1 <0>         0.0576
     29 H3         -6.3718    5.8296    6.3017 H         1 <0>         0.0575
     30 H4         -5.2221    7.0578    6.8831 H         1 <0>         0.1032
     31 H5         -7.7080    6.2039    4.7377 H         1 <0>         0.1339
     32 H6         -8.9543    5.5744    2.7138 H         1 <0>         0.1347
     33 H7         -7.7791    5.3109    0.5703 H         1 <0>         0.1330
     34 H8         -4.0750    6.2979    2.4920 H         1 <0>         0.1384
     35 H9         -2.3802    5.0605   -1.2394 H         1 <0>         0.0748
     36 H10        -3.9615    5.0352   -2.0589 H         1 <0>         0.1022
     37 H11        -2.6559    2.9028   -2.3685 H         1 <0>         0.0827
     38 H12        -4.2256    2.6495   -1.5678 H         1 <0>         0.0891
     39 H13        -1.5402    2.9342   -0.1441 H         1 <0>         0.1016
     40 H14        -4.3398    2.2717    0.8771 H         1 <0>         0.0892
     41 H15        -2.8528    2.2493    1.8563 H         1 <0>         0.0828
     42 H16        -2.5057    4.6429    1.4603 H         1 <0>         0.0779
     43 H17        -4.1563    4.3939    2.0856 H         1 <0>         0.1043
     44 H18         0.4147    1.7780   -0.2278 H         1 <0>         0.1294
     45 H19         2.2122    0.1065   -0.3922 H         1 <0>         0.1342
     46 H20         1.6702   -2.2608   -0.7828 H         1 <0>         0.1342
     47 H21        -0.6730   -2.9738   -1.0114 H         1 <0>         0.1315
@<TRIPOS>BOND
     1    1    2 1
     2    1   28 1
     3    1   29 1
     4    1   30 1
     5    2    3 1
     6    3    8 ar
     7    3    4 ar
     8    4    5 ar
     9    4   31 1
    10    5    6 ar
    11    5   32 1
    12    6    7 ar
    13    6   33 1
    14    7    8 ar
    15    7    9 1
    16    8   34 1
    17    9   10 2
    18    9   11 am
    19   11   16 1
    20   11   12 1
    21   12   13 1
    22   12   35 1
    23   12   36 1
    24   13   14 1
    25   13   37 1
    26   13   38 1
    27   14   15 1
    28   14   17 1
    29   14   39 1
    30   15   16 1
    31   15   40 1
    32   15   41 1
    33   16   42 1
    34   16   43 1
    35   17   26 am
    36   17   18 1
    37   18   23 ar
    38   18   19 ar
    39   19   20 ar
    40   19   44 1
    41   20   21 ar
    42   20   45 1
    43   21   22 ar
    44   21   46 1
    45   22   23 ar
    46   22   47 1
    47   23   24 1
    48   24   25 1
    49   24   26 am
    50   26   27 2
@<TRIPOS>MOLECULE
ZINC28955411
   46    50     0     0     0
SMALL
USER_CHARGES
3-[1-(1,3-benzodioxole-5-carbonyl)-4-piperidyl]-1H-benzimidazol-2-one
@<TRIPOS>ATOM
      1 C1         -2.4976   -8.2292    1.6664 C.ar      1 <0>        -0.1099
      2 C2         -2.4556   -7.5961    0.4360 C.ar      1 <0>        -0.1100
      3 C3         -2.4624   -6.2171    0.3617 C.ar      1 <0>        -0.1062
      4 C4         -2.5131   -5.4635    1.5245 C.ar      1 <0>         0.0866
      5 C5         -2.5558   -6.1020    2.7655 C.ar      1 <0>         0.0826
      6 C6         -2.5478   -7.4871    2.8301 C.ar      1 <0>        -0.1063
      7 N1         -2.6005   -5.1003    3.7323 N.am      1 <0>        -0.6583
      8 H1         -2.6432   -5.3667    4.7987 H         1 <0>         0.4630
      9 C7         -2.5805   -3.9074    3.1083 C.2       1 <0>         0.6891
     10 O1         -2.6047   -2.8252    3.6643 O.2       1 <0>        -0.5516
     11 N2         -2.5331   -4.0936    1.7757 N.am      1 <0>        -0.5371
     12 C8         -2.5015   -3.0357    0.7628 C.3       1 <0>         0.1690
     13 C9         -3.7631   -2.1778    0.8821 C.3       1 <0>        -0.1511
     14 C10        -3.7431   -1.0940   -0.2004 C.3       1 <0>         0.1166
     15 N3         -2.4874   -0.3390   -0.0905 N.am      1 <0>        -0.6070
     16 C11        -1.2163   -1.0758   -0.1083 C.3       1 <0>         0.1005
     17 C12        -1.2649   -2.1602    0.9787 C.3       1 <0>        -0.1517
     18 C13        -2.5010    1.0042    0.0190 C.2       1 <0>         0.5704
     19 O2         -3.5579    1.5940    0.1346 O.2       1 <0>        -0.5251
     20 C14        -1.2329    1.7593   -0.0015 C.ar      1 <0>        -0.1221
     21 C15        -0.2257    1.4120   -0.9052 C.ar      1 <0>        -0.0791
     22 C16         0.9549    2.1217   -0.9271 C.ar      1 <0>        -0.1057
     23 C17         1.1511    3.1791   -0.0488 C.ar      1 <0>         0.0574
     24 C18         0.1512    3.5274    0.8602 C.ar      1 <0>         0.0294
     25 C19        -1.0349    2.8201    0.8860 C.ar      1 <0>        -0.0474
     26 O3          0.5870    4.5877    1.6018 O.3       1 <0>        -0.3059
     27 C20         1.6922    5.1429    0.8646 C.3       1 <0>         0.2077
     28 O4          2.2096    4.0208    0.1258 O.3       1 <0>        -0.3003
     29 H2         -2.4913   -9.3080    1.7165 H         1 <0>         0.1330
     30 H3         -2.4172   -8.1832   -0.4697 H         1 <0>         0.1329
     31 H4         -2.4295   -5.7267   -0.6000 H         1 <0>         0.1277
     32 H5         -2.5812   -7.9844    3.7882 H         1 <0>         0.1308
     33 H6         -2.4602   -3.5281   -0.2200 H         1 <0>         0.1006
     34 H7         -4.6519   -2.8126    0.7511 H         1 <0>         0.0828
     35 H8         -3.7929   -1.7057    1.8752 H         1 <0>         0.0904
     36 H9         -3.8094   -1.5651   -1.1922 H         1 <0>         0.0760
     37 H10        -4.5987   -0.4175   -0.0579 H         1 <0>         0.1040
     38 H11        -1.0756   -1.5403   -1.0954 H         1 <0>         0.0793
     39 H12        -0.3870   -0.3813    0.0916 H         1 <0>         0.1038
     40 H13        -1.3196   -1.6865    1.9700 H         1 <0>         0.0914
     41 H14        -0.3600   -2.7827    0.9193 H         1 <0>         0.0836
     42 H15        -0.3743    0.5900   -1.5897 H         1 <0>         0.1474
     43 H16         1.7306    1.8545   -1.6295 H         1 <0>         0.1452
     44 H17        -1.8095    3.0887    1.5891 H         1 <0>         0.1452
     45 H18         1.3273    5.9435    0.2044 H         1 <0>         0.0903
     46 H19         2.4313    5.5554    1.5671 H         1 <0>         0.1380
@<TRIPOS>BOND
     1    1    6 ar
     2    1    2 ar
     3    1   29 1
     4    2    3 ar
     5    2   30 1
     6    3    4 ar
     7    3   31 1
     8    4   11 1
     9    4    5 ar
    10    5    6 ar
    11    5    7 1
    12    6   32 1
    13    7    8 1
    14    7    9 am
    15    9   10 2
    16    9   11 am
    17   11   12 1
    18   12   17 1
    19   12   13 1
    20   12   33 1
    21   13   14 1
    22   13   34 1
    23   13   35 1
    24   14   15 1
    25   14   36 1
    26   14   37 1
    27   15   16 1
    28   15   18 am
    29   16   17 1
    30   16   38 1
    31   16   39 1
    32   17   40 1
    33   17   41 1
    34   18   19 2
    35   18   20 1
    36   20   25 ar
    37   20   21 ar
    38   21   22 ar
    39   21   42 1
    40   22   23 ar
    41   22   43 1
    42   23   28 1
    43   23   24 ar
    44   24   25 ar
    45   24   26 1
    46   25   44 1
    47   26   27 1
    48   27   28 1
    49   27   45 1
    50   27   46 1
@<TRIPOS>MOLECULE
ZINC28955417
   55    58     0     0     0
SMALL
USER_CHARGES
3-[1-(4-tert-butylbenzoyl)-4-piperidyl]-1H-benzimidazol-2-one
@<TRIPOS>ATOM
      1 C1         -7.7152    7.6860    5.6181 C.3       1 <0>        -0.1415
      2 C2         -7.9029    6.2550    5.1102 C.3       1 <0>        -0.0328
      3 C3         -9.3938    5.9768    4.9084 C.3       1 <0>        -0.1490
      4 C4         -7.3347    5.2714    6.1353 C.3       1 <0>        -0.1411
      5 C5         -7.1787    6.0883    3.7992 C.ar      1 <0>        -0.0473
      6 C6         -5.8114    6.2904    3.7370 C.ar      1 <0>        -0.1198
      7 C7         -5.1425    6.1395    2.5399 C.ar      1 <0>        -0.0905
      8 C8         -5.8481    5.7815    1.3901 C.ar      1 <0>        -0.1321
      9 C9         -7.2281    5.5838    1.4587 C.ar      1 <0>        -0.0649
     10 C10        -7.8841    5.7333    2.6631 C.ar      1 <0>        -0.1229
     11 C11        -5.1378    5.6185    0.1037 C.2       1 <0>         0.5656
     12 O1         -5.5455    6.1844   -0.8917 O.2       1 <0>        -0.5300
     13 N1         -4.0381    4.8423    0.0348 N.am      1 <0>        -0.6080
     14 C12        -3.3695    4.6038   -1.2516 C.3       1 <0>         0.1159
     15 C13        -3.2345    3.0928   -1.4645 C.3       1 <0>        -0.1502
     16 C14        -2.5203    2.4739   -0.2608 C.3       1 <0>         0.1695
     17 C15        -3.3494    2.7113    1.0035 C.3       1 <0>        -0.1502
     18 C16        -3.4854    4.2180    1.2446 C.3       1 <0>         0.1008
     19 N2         -2.3600    1.0337   -0.4759 N.am      1 <0>        -0.5369
     20 C17        -1.1493    0.3467   -0.5257 C.ar      1 <0>         0.0866
     21 C18         0.1741    0.7406   -0.3985 C.ar      1 <0>        -0.1063
     22 C19         1.1826   -0.1984   -0.4907 C.ar      1 <0>        -0.1099
     23 C20         0.8779   -1.5309   -0.7104 C.ar      1 <0>        -0.1100
     24 C21        -0.4372   -1.9326   -0.8388 C.ar      1 <0>        -0.1063
     25 C22        -1.4566   -0.9971   -0.7473 C.ar      1 <0>         0.0826
     26 N3         -2.8442   -1.0843   -0.8307 N.am      1 <0>        -0.6582
     27 H1         -3.3246   -2.0585   -1.0042 H         1 <0>         0.4629
     28 C23        -3.3573    0.1497   -0.6675 C.2       1 <0>         0.6893
     29 O2         -4.5428    0.4238   -0.6853 O.2       1 <0>        -0.5520
     30 H2         -6.6433    7.8859    5.7632 H         1 <0>         0.0583
     31 H3         -8.2437    7.8077    6.5751 H         1 <0>         0.0616
     32 H4         -8.1237    8.3932    4.8812 H         1 <0>         0.0582
     33 H5         -9.5287    4.9480    4.5432 H         1 <0>         0.0605
     34 H6         -9.8023    6.6840    4.1715 H         1 <0>         0.0608
     35 H7         -9.9223    6.0985    5.8654 H         1 <0>         0.0613
     36 H8         -7.4696    4.2426    5.7702 H         1 <0>         0.0578
     37 H9         -7.8632    5.3931    7.0923 H         1 <0>         0.0615
     38 H10        -6.2628    5.4714    6.2803 H         1 <0>         0.0583
     39 H11        -5.2666    6.5674    4.6274 H         1 <0>         0.1285
     40 H12        -4.0752    6.2975    2.4927 H         1 <0>         0.1288
     41 H13        -7.7805    5.3110    0.5717 H         1 <0>         0.1292
     42 H14        -8.9513    5.5770    2.7183 H         1 <0>         0.1344
     43 H15        -3.9685    5.0427   -2.0631 H         1 <0>         0.1025
     44 H16        -2.3728    5.0691   -1.2387 H         1 <0>         0.0740
     45 H17        -4.2344    2.6464   -1.5687 H         1 <0>         0.0901
     46 H18        -2.6508    2.9018   -2.3771 H         1 <0>         0.0825
     47 H19        -1.5122    2.8995   -0.1482 H         1 <0>         0.1001
     48 H20        -4.3477    2.2673    0.8760 H         1 <0>         0.0904
     49 H21        -2.8477    2.2446    1.8640 H         1 <0>         0.0824
     50 H22        -2.4982    4.6515    1.4626 H         1 <0>         0.0763
     51 H23        -4.1614    4.4005    2.0930 H         1 <0>         0.1047
     52 H24         0.4156    1.7792   -0.2275 H         1 <0>         0.1276
     53 H25         2.2135    0.1082   -0.3917 H         1 <0>         0.1329
     54 H26         1.6721   -2.2593   -0.7820 H         1 <0>         0.1331
     55 H27        -0.6710   -2.9729   -1.0104 H         1 <0>         0.1309
@<TRIPOS>BOND
     1    1    2 1
     2    1   30 1
     3    1   31 1
     4    1   32 1
     5    2    3 1
     6    2    4 1
     7    2    5 1
     8    3   33 1
     9    3   34 1
    10    3   35 1
    11    4   36 1
    12    4   37 1
    13    4   38 1
    14    5   10 ar
    15    5    6 ar
    16    6    7 ar
    17    6   39 1
    18    7    8 ar
    19    7   40 1
    20    8    9 ar
    21    8   11 1
    22    9   10 ar
    23    9   41 1
    24   10   42 1
    25   11   12 2
    26   11   13 am
    27   13   18 1
    28   13   14 1
    29   14   15 1
    30   14   43 1
    31   14   44 1
    32   15   16 1
    33   15   45 1
    34   15   46 1
    35   16   17 1
    36   16   19 1
    37   16   47 1
    38   17   18 1
    39   17   48 1
    40   17   49 1
    41   18   50 1
    42   18   51 1
    43   19   28 am
    44   19   20 1
    45   20   25 ar
    46   20   21 ar
    47   21   22 ar
    48   21   52 1
    49   22   23 ar
    50   22   53 1
    51   23   24 ar
    52   23   54 1
    53   24   25 ar
    54   24   55 1
    55   25   26 1
    56   26   27 1
    57   26   28 am
    58   28   29 2
@<TRIPOS>MOLECULE
ZINC23717926
   43    46     0     0     0
SMALL
USER_CHARGES
3-[1-(2-fluorobenzoyl)-4-piperidyl]-1H-benzimidazol-2-one
@<TRIPOS>ATOM
      1 C1         -6.0441    6.8368    3.5373 C.ar      1 <0>        -0.1337
      2 C2         -7.1784    6.0874    3.8000 C.ar      1 <0>        -0.0685
      3 C3         -7.6516    5.1862    2.8652 C.ar      1 <0>        -0.1562
      4 C4         -6.9933    5.0272    1.6591 C.ar      1 <0>         0.1475
      5 C5         -5.8473    5.7813    1.3887 C.ar      1 <0>        -0.1651
      6 C6         -5.3738    6.6853    2.3422 C.ar      1 <0>        -0.0653
      7 C7         -5.1378    5.6185    0.1037 C.2       1 <0>         0.5668
      8 O1         -5.7410    5.7456   -0.9441 O.2       1 <0>        -0.5191
      9 N1         -3.8215    5.3288    0.0927 N.am      1 <0>        -0.6065
     10 C8         -3.1216    5.0744   -1.1738 C.3       1 <0>         0.1166
     11 C9         -2.4027    3.7251   -1.0774 C.3       1 <0>        -0.1510
     12 C10        -1.4943    3.7224    0.1543 C.3       1 <0>         0.1698
     13 C11        -2.3415    3.9094    1.4150 C.3       1 <0>        -0.1512
     14 C12        -3.0595    5.2610    1.3471 C.3       1 <0>         0.1025
     15 N2         -0.7801    2.4456    0.2312 N.am      1 <0>        -0.5371
     16 C13         0.6030    2.2827    0.2093 C.ar      1 <0>         0.0866
     17 C14         1.6644    3.1707    0.1223 C.ar      1 <0>        -0.1064
     18 C15         2.9610    2.6952    0.1316 C.ar      1 <0>        -0.1099
     19 C16         3.2054    1.3358    0.2266 C.ar      1 <0>        -0.1099
     20 C17         2.1547    0.4437    0.3133 C.ar      1 <0>        -0.1062
     21 C18         0.8495    0.9117    0.3051 C.ar      1 <0>         0.0827
     22 N3         -0.3917    0.2836    0.3767 N.am      1 <0>        -0.6581
     23 H1         -0.4499   -0.8118    0.4585 H         1 <0>         0.4631
     24 C19        -1.3490    1.2290    0.3267 C.2       1 <0>         0.6890
     25 O2         -2.5465    1.0166    0.3668 O.2       1 <0>        -0.5514
     26 F1         -7.4557    4.1458    0.7456 F         1 <0>        -0.1237
     27 H2         -5.6807    7.5390    4.2730 H         1 <0>         0.1385
     28 H3         -7.6958    6.2076    4.7403 H         1 <0>         0.1398
     29 H4         -8.5368    4.6047    3.0769 H         1 <0>         0.1442
     30 H5         -4.4866    7.2676    2.1420 H         1 <0>         0.1391
     31 H6         -3.8506    5.0506   -1.9972 H         1 <0>         0.1032
     32 H7         -2.3894    5.8750   -1.3554 H         1 <0>         0.0760
     33 H8         -3.1460    2.9192   -0.9883 H         1 <0>         0.0905
     34 H9         -1.7970    3.5669   -1.9819 H         1 <0>         0.0838
     35 H10        -0.7352    4.5148    0.0771 H         1 <0>         0.1010
     36 H11        -3.0844    3.1008    1.4808 H         1 <0>         0.0904
     37 H12        -1.6907    3.8824    2.3014 H         1 <0>         0.0839
     38 H13        -2.3221    6.0769    1.3727 H         1 <0>         0.0793
     39 H14        -3.7472    5.3614    2.1998 H         1 <0>         0.1005
     40 H15         1.4776    4.2318    0.0476 H         1 <0>         0.1276
     41 H16         3.7878    3.3867    0.0637 H         1 <0>         0.1330
     42 H17         4.2220    0.9714    0.2326 H         1 <0>         0.1331
     43 H18         2.3492   -0.6161    0.3869 H         1 <0>         0.1309
@<TRIPOS>BOND
     1    1    6 ar
     2    1    2 ar
     3    1   27 1
     4    2    3 ar
     5    2   28 1
     6    3    4 ar
     7    3   29 1
     8    4    5 ar
     9    4   26 1
    10    5    6 ar
    11    5    7 1
    12    6   30 1
    13    7    8 2
    14    7    9 am
    15    9   14 1
    16    9   10 1
    17   10   11 1
    18   10   31 1
    19   10   32 1
    20   11   12 1
    21   11   33 1
    22   11   34 1
    23   12   13 1
    24   12   15 1
    25   12   35 1
    26   13   14 1
    27   13   36 1
    28   13   37 1
    29   14   38 1
    30   14   39 1
    31   15   24 am
    32   15   16 1
    33   16   21 ar
    34   16   17 ar
    35   17   18 ar
    36   17   40 1
    37   18   19 ar
    38   18   41 1
    39   19   20 ar
    40   19   42 1
    41   20   21 ar
    42   20   43 1
    43   21   22 1
    44   22   23 1
    45   22   24 am
    46   24   25 2
@<TRIPOS>MOLECULE
ZINC05383893
   55    57     0     0     0
SMALL
USER_CHARGES

@<TRIPOS>ATOM
      1 C1          0.0512    1.5568    0.0256 C.3       1 <0>        -0.1397
      2 C2          0.0563    0.0268    0.0203 C.3       1 <0>        -0.0388
      3 C3          0.8032   -0.4850    1.2537 C.3       1 <0>        -0.1411
      4 C4         -1.3842   -0.4881    0.0463 C.3       1 <0>        -0.1477
      5 C5          0.7446   -0.4689   -1.2253 C.ar      1 <0>        -0.0110
      6 C6          0.0564   -1.2582   -2.1277 C.ar      1 <0>        -0.1417
      7 C7          0.6877   -1.7129   -3.2703 C.ar      1 <0>        -0.0170
      8 C8          2.0071   -1.3780   -3.5107 C.ar      1 <0>        -0.6824
      9 C9          2.6951   -0.5879   -2.6088 C.ar      1 <0>        -0.0173
     10 C10         2.0624   -0.1297   -1.4683 C.ar      1 <0>        -0.1359
     11 S1          2.8122   -1.9585   -4.9666 S.o2      1 <0>         2.6891
     12 O1          4.2056   -1.9581   -4.6877 O.2       1 <0>        -0.9526
     13 O2          2.1175   -3.1287   -5.3756 O.2       1 <0>        -0.9528
     14 N1          2.5655   -0.8244   -6.1478 N.pl3     1 <0>        -0.9946
     15 C11         1.3903   -0.9033   -7.0268 C.3       1 <0>         0.1033
     16 C12         0.6255    0.4234   -6.9426 C.3       1 <0>         0.1079
     17 N2          1.5776    1.5271   -7.1304 N.pl3     1 <0>        -0.6280
     18 C13         2.7528    1.6060   -6.2515 C.3       1 <0>         0.1080
     19 C14         3.5147    0.2824   -6.3320 C.3       1 <0>         0.1033
     20 C15         1.3691    2.4854   -8.1286 C.ar      1 <0>         0.1862
     21 C16         2.2113    3.5855   -8.2222 C.ar      1 <0>        -0.1588
     22 C17         2.0051    4.5306   -9.2080 C.ar      1 <0>        -0.1005
     23 C18         0.9573    4.3812  -10.1043 C.ar      1 <0>         0.0702
     24 C19         0.1153    3.2829  -10.0112 C.ar      1 <0>        -0.1567
     25 C20         0.3235    2.3339   -9.0297 C.ar      1 <0>        -0.1600
     26 O3          0.7550    5.3123  -11.0747 O.3       1 <0>        -0.3218
     27 C21        -0.3428    5.0952  -11.9634 C.3       1 <0>         0.0292
     28 H1          1.0774    1.9236    0.0071 H         1 <0>         0.0591
     29 H2         -0.4809    1.9214   -0.8530 H         1 <0>         0.0577
     30 H3         -0.4467    1.9153    0.9266 H         1 <0>         0.0639
     31 H4          0.3054   -0.1264    2.1546 H         1 <0>         0.0641
     32 H5          0.8068   -1.5750    1.2499 H         1 <0>         0.0586
     33 H6          1.8294   -0.1181    1.2352 H         1 <0>         0.0595
     34 H7         -1.9163   -0.1236   -0.8324 H         1 <0>         0.0605
     35 H8         -1.3805   -1.5781    0.0425 H         1 <0>         0.0610
     36 H9         -1.8820   -0.1296    0.9473 H         1 <0>         0.0632
     37 H10        -0.9745   -1.5199   -1.9398 H         1 <0>         0.1373
     38 H11         0.1502   -2.3301   -3.9749 H         1 <0>         0.1382
     39 H12         3.7260   -0.3265   -2.7965 H         1 <0>         0.1384
     40 H13         2.5988    0.4906   -0.7655 H         1 <0>         0.1319
     41 H14         1.7125   -1.0754   -8.0537 H         1 <0>         0.0823
     42 H15         0.7446   -1.7191   -6.7018 H         1 <0>         0.1007
     43 H16        -0.1337    0.4582   -7.7240 H         1 <0>         0.0955
     44 H17         0.1519    0.5112   -5.9648 H         1 <0>         0.0668
     45 H18         3.3985    2.4217   -6.5765 H         1 <0>         0.0966
     46 H19         2.4306    1.7780   -5.2245 H         1 <0>         0.0664
     47 H20         4.2715    0.2495   -5.5483 H         1 <0>         0.1012
     48 H21         3.9916    0.1967   -7.3084 H         1 <0>         0.0822
     49 H22         3.0271    3.7022   -7.5241 H         1 <0>         0.1299
     50 H23         2.6598    5.3865   -9.2807 H         1 <0>         0.1302
     51 H24        -0.7006    3.1675  -10.7094 H         1 <0>         0.1269
     52 H25        -0.3293    1.4763   -8.9604 H         1 <0>         0.1257
     53 H26        -0.2037    4.1503  -12.4886 H         1 <0>         0.0528
     54 H27        -1.2709    5.0605  -11.3928 H         1 <0>         0.0525
     55 H28        -0.3912    5.9092  -12.6867 H         1 <0>         0.0980
@<TRIPOS>BOND
     1    1    2 1
     2    1   28 1
     3    1   29 1
     4    1   30 1
     5    2    3 1
     6    2    4 1
     7    2    5 1
     8    3   31 1
     9    3   32 1
    10    3   33 1
    11    4   34 1
    12    4   35 1
    13    4   36 1
    14    5   10 ar
    15    5    6 ar
    16    6    7 ar
    17    6   37 1
    18    7    8 ar
    19    7   38 1
    20    8    9 ar
    21    8   11 1
    22    9   10 ar
    23    9   39 1
    24   10   40 1
    25   11   12 2
    26   11   13 2
    27   11   14 1
    28   14   19 1
    29   14   15 1
    30   15   16 1
    31   15   41 1
    32   15   42 1
    33   16   17 1
    34   16   43 1
    35   16   44 1
    36   17   18 1
    37   17   20 1
    38   18   19 1
    39   18   45 1
    40   18   46 1
    41   19   47 1
    42   19   48 1
    43   20   25 ar
    44   20   21 ar
    45   21   22 ar
    46   21   49 1
    47   22   23 ar
    48   22   50 1
    49   23   24 ar
    50   23   26 1
    51   24   25 ar
    52   24   51 1
    53   25   52 1
    54   26   27 1
    55   27   53 1
    56   27   54 1
    57   27   55 1
@<TRIPOS>MOLECULE
ZINC29044738
   42    44     0     0     0
SMALL
USER_CHARGES
1-benzyl-4-[3-(trifluoromethyl)-2-pyridyl]piperazine
@<TRIPOS>ATOM
      1 C1          0.2325    4.3885    0.1257 C.ar      1 <0>        -0.0843
      2 C2          1.4097    3.6645    0.0981 C.ar      1 <0>        -0.1134
      3 C3          1.3711    2.2830    0.0724 C.ar      1 <0>        -0.0973
      4 C4          0.1552    1.6254    0.0739 C.ar      1 <0>        -0.1606
      5 C5         -1.0222    2.3494    0.0957 C.ar      1 <0>        -0.0940
      6 C6         -0.9835    3.7309    0.1268 C.ar      1 <0>        -0.1132
      7 C7          0.1131    0.1192    0.0455 C.3       1 <0>         0.0478
      8 N1          0.1155   -0.3968    1.4209 N.4       1 <0>        -0.4003
      9 C8          1.3878   -0.0984    2.0931 C.3       1 <0>        -0.0020
     10 C9          1.3203   -0.5805    3.5441 C.3       1 <0>         0.0328
     11 N2          1.0422   -2.0233    3.5658 N.pl3     1 <0>        -0.4906
     12 C10        -0.2301   -2.3217    2.8936 C.3       1 <0>         0.0311
     13 C11        -0.1626   -1.8396    1.4426 C.3       1 <0>         0.0020
     14 C12         1.0445   -2.5116    4.8672 C.ar      1 <0>         0.3250
     15 C13         1.9542   -3.4994    5.2315 C.ar      1 <0>        -0.2014
     16 C14         1.9454   -3.9760    6.5297 C.ar      1 <0>        -0.0199
     17 C15         1.0236   -3.4470    7.4238 C.ar      1 <0>        -0.1573
     18 C16         0.1499   -2.4686    6.9944 C.ar      1 <0>         0.1456
     19 N3          0.1846   -2.0287    5.7506 N.ar      1 <0>        -0.5068
     20 C17         2.9354   -4.0427    4.2250 C.3       1 <0>         0.5255
     21 F1          3.6757   -5.0773    4.8070 F         1 <0>        -0.1739
     22 F2          2.2405   -4.5341    3.1146 F         1 <0>        -0.1705
     23 F3          3.8008   -3.0213    3.8190 F         1 <0>        -0.1709
     24 H1          0.2626    5.4679    0.1462 H         1 <0>         0.1355
     25 H2          2.3597    4.1783    0.0970 H         1 <0>         0.1359
     26 H3          2.2909    1.7173    0.0509 H         1 <0>         0.1309
     27 H4         -1.9722    1.8358    0.0924 H         1 <0>         0.1313
     28 H5         -1.9033    4.2965    0.1480 H         1 <0>         0.1358
     29 H6         -0.8009   -0.2124   -0.4689 H         1 <0>         0.1389
     30 H7          0.9946   -0.2622   -0.4907 H         1 <0>         0.1349
     31 H8          2.2076   -0.6144    1.5720 H         1 <0>         0.1378
     32 H9          1.5668    0.9868    2.0742 H         1 <0>         0.1405
     33 H10         2.2819   -0.3839    4.0409 H         1 <0>         0.1238
     34 H11         0.5184   -0.0436    4.0720 H         1 <0>         0.0802
     35 H12        -0.4091   -3.4069    2.9125 H         1 <0>         0.1254
     36 H13        -1.0500   -1.8057    3.4147 H         1 <0>         0.0798
     37 H14        -1.1240   -2.0352    0.9451 H         1 <0>         0.1424
     38 H15         0.6395   -2.3756    0.9141 H         1 <0>         0.1392
     39 H16         2.6399   -4.7422    6.8413 H         1 <0>         0.1611
     40 H17         0.9911   -3.7974    8.4449 H         1 <0>         0.1589
     41 H18        -0.5684   -2.0545    7.6864 H         1 <0>         0.1749
     42 H19        -0.6881    0.1124    1.9731 H         1 <0>         0.4392
@<TRIPOS>BOND
     1    1    6 ar
     2    1    2 ar
     3    1   24 1
     4    2    3 ar
     5    2   25 1
     6    3    4 ar
     7    3   26 1
     8    4    5 ar
     9    4    7 1
    10    5    6 ar
    11    5   27 1
    12    6   28 1
    13    7    8 1
    14    7   29 1
    15    7   30 1
    16    8   13 1
    17    8    9 1
    18    8   42 1
    19    9   10 1
    20    9   31 1
    21    9   32 1
    22   10   11 1
    23   10   33 1
    24   10   34 1
    25   11   12 1
    26   11   14 1
    27   12   13 1
    28   12   35 1
    29   12   36 1
    30   13   37 1
    31   13   38 1
    32   14   19 ar
    33   14   15 ar
    34   15   16 ar
    35   15   20 1
    36   16   17 ar
    37   16   39 1
    38   17   18 ar
    39   17   40 1
    40   18   19 ar
    41   18   41 1
    42   20   21 1
    43   20   22 1
    44   20   23 1
@<TRIPOS>MOLECULE
ZINC29044738
   41    43     0     0     0
SMALL
USER_CHARGES
1-benzyl-4-[3-(trifluoromethyl)-2-pyridyl]piperazine
@<TRIPOS>ATOM
      1 C1          0.2325    4.3885    0.1257 C.ar      1 <0>        -0.1198
      2 C2          1.4097    3.6645    0.0981 C.ar      1 <0>        -0.1207
      3 C3          1.3711    2.2830    0.0724 C.ar      1 <0>        -0.1155
      4 C4          0.1552    1.6254    0.0739 C.ar      1 <0>        -0.0788
      5 C5         -1.0222    2.3494    0.0957 C.ar      1 <0>        -0.0981
      6 C6         -0.9835    3.7309    0.1268 C.ar      1 <0>        -0.1207
      7 C7          0.1131    0.1192    0.0455 C.3       1 <0>         0.0927
      8 N1          0.1155   -0.3968    1.4209 N.3       1 <0>        -0.5323
      9 C8          1.3878   -0.0984    2.0931 C.3       1 <0>         0.0540
     10 C9          1.3203   -0.5805    3.5441 C.3       1 <0>         0.0641
     11 N2          1.0422   -2.0233    3.5658 N.pl3     1 <0>        -0.4948
     12 C10        -0.2301   -2.3217    2.8936 C.3       1 <0>         0.0643
     13 C11        -0.1626   -1.8396    1.4426 C.3       1 <0>         0.0573
     14 C12         1.0445   -2.5116    4.8672 C.ar      1 <0>         0.3484
     15 C13         1.9542   -3.4994    5.2315 C.ar      1 <0>        -0.2136
     16 C14         1.9454   -3.9760    6.5297 C.ar      1 <0>        -0.0238
     17 C15         1.0236   -3.4470    7.4238 C.ar      1 <0>        -0.1771
     18 C16         0.1499   -2.4686    6.9944 C.ar      1 <0>         0.1426
     19 N3          0.1846   -2.0287    5.7506 N.ar      1 <0>        -0.5049
     20 C17         2.9354   -4.0427    4.2250 C.3       1 <0>         0.5264
     21 F1          3.6757   -5.0773    4.8070 F         1 <0>        -0.1819
     22 F2          2.2405   -4.5341    3.1146 F         1 <0>        -0.1678
     23 F3          3.8008   -3.0213    3.8190 F         1 <0>        -0.1699
     24 H1          0.2626    5.4679    0.1462 H         1 <0>         0.1207
     25 H2          2.3597    4.1783    0.0970 H         1 <0>         0.1212
     26 H3          2.2909    1.7173    0.0509 H         1 <0>         0.1184
     27 H4         -1.9722    1.8358    0.0924 H         1 <0>         0.1218
     28 H5         -1.9033    4.2965    0.1480 H         1 <0>         0.1216
     29 H6         -0.8009   -0.2124   -0.4689 H         1 <0>         0.0862
     30 H7          0.9946   -0.2622   -0.4907 H         1 <0>         0.0462
     31 H8          2.2076   -0.6144    1.5720 H         1 <0>         0.0456
     32 H9          1.5668    0.9868    2.0742 H         1 <0>         0.0903
     33 H10         2.2819   -0.3839    4.0409 H         1 <0>         0.0806
     34 H11         0.5184   -0.0436    4.0720 H         1 <0>         0.0641
     35 H12        -0.4091   -3.4069    2.9125 H         1 <0>         0.0823
     36 H13        -1.0500   -1.8057    3.4147 H         1 <0>         0.0635
     37 H14        -1.1240   -2.0352    0.9451 H         1 <0>         0.0874
     38 H15         0.6395   -2.3756    0.9141 H         1 <0>         0.0477
     39 H16         2.6399   -4.7422    6.8413 H         1 <0>         0.1539
     40 H17         0.9911   -3.7974    8.4449 H         1 <0>         0.1507
     41 H18        -0.5684   -2.0545    7.6864 H         1 <0>         0.1675
@<TRIPOS>BOND
     1    1    6 ar
     2    1    2 ar
     3    1   24 1
     4    2    3 ar
     5    2   25 1
     6    3    4 ar
     7    3   26 1
     8    4    5 ar
     9    4    7 1
    10    5    6 ar
    11    5   27 1
    12    6   28 1
    13    7    8 1
    14    7   29 1
    15    7   30 1
    16    8   13 1
    17    8    9 1
    18    9   10 1
    19    9   31 1
    20    9   32 1
    21   10   11 1
    22   10   33 1
    23   10   34 1
    24   11   12 1
    25   11   14 1
    26   12   13 1
    27   12   35 1
    28   12   36 1
    29   13   37 1
    30   13   38 1
    31   14   19 ar
    32   14   15 ar
    33   15   16 ar
    34   15   20 1
    35   16   17 ar
    36   16   39 1
    37   17   18 ar
    38   17   40 1
    39   18   19 ar
    40   18   41 1
    41   20   21 1
    42   20   22 1
    43   20   23 1
@<TRIPOS>MOLECULE
ZINC02078264
   56    58     0     0     0
SMALL
USER_CHARGES
[2-ethoxy-4-[(2-methoxy-4-methyl-benzoyl)aminoiminomethyl]phenyl] 4-chlorobenzoate
@<TRIPOS>ATOM
      1 C1         -0.0533    0.9731   -0.0000 C.3       1 <0>        -0.1530
      2 C2         -0.7604    1.4940    1.2529 C.3       1 <0>         0.0519
      3 O1         -0.0586    1.0492    2.4155 O.3       1 <0>        -0.3071
      4 C3         -0.5596    1.4279    3.6215 C.ar      1 <0>         0.1310
      5 C4         -1.6990    2.2086    3.6824 C.ar      1 <0>        -0.1721
      6 C5         -2.2112    2.5955    4.9233 C.ar      1 <0>        -0.0044
      7 C6         -1.5694    2.1914    6.0970 C.ar      1 <0>        -0.1023
      8 C7         -0.4336    1.4129    6.0285 C.ar      1 <0>        -0.0787
      9 C8          0.0720    1.0243    4.7961 C.ar      1 <0>         0.0640
     10 O2          1.1891    0.2525    4.7344 O.3       1 <0>        -0.2769
     11 C9          2.3549    0.8822    4.4909 C.2       1 <0>         0.5088
     12 O3          2.3901    2.0954    4.4357 O.2       1 <0>        -0.4820
     13 C10         3.5899    0.0980    4.2911 C.ar      1 <0>        -0.1192
     14 C11         3.5538   -1.2966    4.3596 C.ar      1 <0>        -0.0468
     15 C12         4.7094   -2.0235    4.1665 C.ar      1 <0>        -0.1231
     16 C13         5.9066   -1.3731    3.9168 C.ar      1 <0>        -0.0015
     17 C14         5.9500    0.0100    3.8533 C.ar      1 <0>        -0.1215
     18 C15         4.8001    0.7479    4.0385 C.ar      1 <0>        -0.0401
     19 Cl1         7.3586   -2.2951    3.6819 Cl        1 <0>        -0.0552
     20 C16        -3.4255    3.4283    4.9943 C.2       1 <0>         0.0992
     21 N1         -3.9001    3.7868    6.1481 N.2       1 <0>        -0.2101
     22 N2         -5.0541    4.5783    6.2156 N.am      1 <0>        -0.5824
     23 C17        -5.5469    4.9506    7.4135 C.2       1 <0>         0.5795
     24 O4         -4.9896    4.5994    8.4360 O.2       1 <0>        -0.4771
     25 C18        -6.7617    5.7838    7.4846 C.ar      1 <0>        -0.1814
     26 C19        -7.4051    6.1895    6.3124 C.ar      1 <0>        -0.0434
     27 C20        -8.5400    6.9675    6.3857 C.ar      1 <0>        -0.1668
     28 C21        -9.0470    7.3499    7.6171 C.ar      1 <0>        -0.0116
     29 C22        -8.4213    6.9561    8.7831 C.ar      1 <0>        -0.2207
     30 C23        -7.2810    6.1684    8.7284 C.ar      1 <0>         0.1972
     31 O5         -6.6683    5.7760    9.8733 O.3       1 <0>        -0.2810
     32 C24        -7.2548    6.2064   11.1033 C.3       1 <0>         0.0197
     33 C25       -10.2892    8.2005    7.6842 C.3       1 <0>        -0.1239
     34 H1         -0.0360   -0.1166    0.0192 H         1 <0>         0.0680
     35 H2          0.9682    1.3524   -0.0249 H         1 <0>         0.0667
     36 H3         -0.5886    1.3124   -0.8868 H         1 <0>         0.0812
     37 H4         -0.7777    2.5837    1.2337 H         1 <0>         0.0650
     38 H5         -1.7819    1.1147    1.2778 H         1 <0>         0.0663
     39 H6         -2.1917    2.5190    2.7728 H         1 <0>         0.1423
     40 H7         -1.9633    2.4886    7.0577 H         1 <0>         0.1481
     41 H8          0.0613    1.1010    6.9364 H         1 <0>         0.1444
     42 H9          2.6218   -1.8047    4.5587 H         1 <0>         0.1501
     43 H10         4.6818   -3.1021    4.2141 H         1 <0>         0.1452
     44 H11         6.8864    0.5114    3.6579 H         1 <0>         0.1460
     45 H12         4.8350    1.8262    3.9880 H         1 <0>         0.1487
     46 H13        -3.9203    3.7401    4.0864 H         1 <0>         0.1238
     47 H14        -5.4985    4.8584    5.4001 H         1 <0>         0.3849
     48 H15        -7.0136    5.8935    5.3504 H         1 <0>         0.1304
     49 H16        -9.0367    7.2803    5.4792 H         1 <0>         0.1332
     50 H17        -8.8226    7.2582    9.7391 H         1 <0>         0.1386
     51 H18        -6.6681    5.8245   11.9388 H         1 <0>         0.1058
     52 H19        -7.2692    7.2957   11.1374 H         1 <0>         0.0582
     53 H20        -8.2744    5.8271   11.1720 H         1 <0>         0.0582
     54 H21       -11.1682    7.5573    7.7252 H         1 <0>         0.0799
     55 H22       -10.2541    8.8251    8.5768 H         1 <0>         0.0717
     56 H23       -10.3438    8.8343    6.7991 H         1 <0>         0.0743
@<TRIPOS>BOND
     1    1    2 1
     2    1   34 1
     3    1   35 1
     4    1   36 1
     5    2    3 1
     6    2   37 1
     7    2   38 1
     8    3    4 1
     9    4    9 ar
    10    4    5 ar
    11    5    6 ar
    12    5   39 1
    13    6    7 ar
    14    6   20 1
    15    7    8 ar
    16    7   40 1
    17    8    9 ar
    18    8   41 1
    19    9   10 1
    20   10   11 1
    21   11   12 2
    22   11   13 1
    23   13   18 ar
    24   13   14 ar
    25   14   15 ar
    26   14   42 1
    27   15   16 ar
    28   15   43 1
    29   16   17 ar
    30   16   19 1
    31   17   18 ar
    32   17   44 1
    33   18   45 1
    34   20   21 2
    35   20   46 1
    36   21   22 1
    37   22   23 am
    38   22   47 1
    39   23   24 2
    40   23   25 1
    41   25   30 ar
    42   25   26 ar
    43   26   27 ar
    44   26   48 1
    45   27   28 ar
    46   27   49 1
    47   28   29 ar
    48   28   33 1
    49   29   30 ar
    50   29   50 1
    51   30   31 1
    52   31   32 1
    53   32   51 1
    54   32   52 1
    55   32   53 1
    56   33   54 1
    57   33   55 1
    58   33   56 1
@<TRIPOS>MOLECULE
ZINC05383892
   51    53     0     0     0
SMALL
USER_CHARGES

@<TRIPOS>ATOM
      1 C1          0.0507    1.5566    0.0255 C.3       1 <0>        -0.1397
      2 C2          0.0560    0.0266    0.0202 C.3       1 <0>        -0.0390
      3 C3          0.8028   -0.4851    1.2536 C.3       1 <0>        -0.1412
      4 C4         -1.3845   -0.4884    0.0461 C.3       1 <0>        -0.1478
      5 C5          0.7443   -0.4690   -1.2254 C.ar      1 <0>        -0.0105
      6 C6          0.0562   -1.2583   -2.1278 C.ar      1 <0>        -0.1415
      7 C7          0.6877   -1.7130   -3.2704 C.ar      1 <0>        -0.0171
      8 C8          2.0071   -1.3780   -3.5107 C.ar      1 <0>        -0.6829
      9 C9          2.6949   -0.5879   -2.6088 C.ar      1 <0>        -0.0175
     10 C10         2.0622   -0.1297   -1.4683 C.ar      1 <0>        -0.1359
     11 S1          2.8123   -1.9585   -4.9665 S.o2      1 <0>         2.6892
     12 O1          4.2056   -1.9579   -4.6876 O.2       1 <0>        -0.9519
     13 O2          2.1177   -3.1287   -5.3756 O.2       1 <0>        -0.9519
     14 N1          2.5656   -0.8244   -6.1478 N.pl3     1 <0>        -0.9953
     15 C11         1.3905   -0.9033   -7.0268 C.3       1 <0>         0.1032
     16 C12         0.6255    0.4233   -6.9427 C.3       1 <0>         0.1042
     17 N2          1.5776    1.5271   -7.1304 N.pl3     1 <0>        -0.6228
     18 C13         2.7527    1.6060   -6.2514 C.3       1 <0>         0.1046
     19 C14         3.5147    0.2825   -6.3319 C.3       1 <0>         0.1035
     20 C15         1.3694    2.4841   -8.1272 C.ar      1 <0>         0.2251
     21 C16         0.3203    2.3363   -9.0254 C.ar      1 <0>        -0.1889
     22 C17         0.1166    3.2839  -10.0092 C.ar      1 <0>        -0.0583
     23 C18         0.9569    4.3796  -10.1010 C.ar      1 <0>        -0.0933
     24 C19         2.0029    4.5293   -9.2075 C.ar      1 <0>        -0.0583
     25 C20         2.2078    3.5878   -8.2181 C.ar      1 <0>        -0.1887
     26 Cl1         0.6986    5.5682  -11.3396 Cl        1 <0>        -0.0787
     27 H1          1.0769    1.9235    0.0071 H         1 <0>         0.0591
     28 H2         -0.4813    1.9212   -0.8532 H         1 <0>         0.0576
     29 H3         -0.4472    1.9151    0.9265 H         1 <0>         0.0641
     30 H4          0.3049   -0.1266    2.1545 H         1 <0>         0.0643
     31 H5          0.8065   -1.5751    1.2498 H         1 <0>         0.0587
     32 H6          1.8290   -0.1182    1.2352 H         1 <0>         0.0595
     33 H7         -1.9166   -0.1239   -0.8326 H         1 <0>         0.0606
     34 H8         -1.3808   -1.5784    0.0423 H         1 <0>         0.0611
     35 H9         -1.8824   -0.1299    0.9470 H         1 <0>         0.0634
     36 H10        -0.9746   -1.5201   -1.9400 H         1 <0>         0.1375
     37 H11         0.1503   -2.3303   -3.9751 H         1 <0>         0.1384
     38 H12         3.7259   -0.3265   -2.7964 H         1 <0>         0.1384
     39 H13         2.5985    0.4906   -0.7655 H         1 <0>         0.1321
     40 H14         1.7127   -1.0754   -8.0538 H         1 <0>         0.0834
     41 H15         0.7448   -1.7192   -6.7019 H         1 <0>         0.1026
     42 H16        -0.1336    0.4581   -7.7242 H         1 <0>         0.0984
     43 H17         0.1518    0.5111   -5.9649 H         1 <0>         0.0704
     44 H18         3.3984    2.4218   -6.5764 H         1 <0>         0.0984
     45 H19         2.4305    1.7780   -5.2245 H         1 <0>         0.0697
     46 H20         4.2715    0.2496   -5.5481 H         1 <0>         0.1028
     47 H21         3.9917    0.1969   -7.3082 H         1 <0>         0.0831
     48 H22        -0.3354    1.4810   -8.9547 H         1 <0>         0.1321
     49 H23        -0.6990    3.1695  -10.7079 H         1 <0>         0.1321
     50 H24         2.6572    5.3854   -9.2814 H         1 <0>         0.1321
     51 H25         3.0216    3.7074   -7.5183 H         1 <0>         0.1317
@<TRIPOS>BOND
     1    1    2 1
     2    1   27 1
     3    1   28 1
     4    1   29 1
     5    2    3 1
     6    2    4 1
     7    2    5 1
     8    3   30 1
     9    3   31 1
    10    3   32 1
    11    4   33 1
    12    4   34 1
    13    4   35 1
    14    5   10 ar
    15    5    6 ar
    16    6    7 ar
    17    6   36 1
    18    7    8 ar
    19    7   37 1
    20    8    9 ar
    21    8   11 1
    22    9   10 ar
    23    9   38 1
    24   10   39 1
    25   11   12 2
    26   11   13 2
    27   11   14 1
    28   14   19 1
    29   14   15 1
    30   15   16 1
    31   15   40 1
    32   15   41 1
    33   16   17 1
    34   16   42 1
    35   16   43 1
    36   17   18 1
    37   17   20 1
    38   18   19 1
    39   18   44 1
    40   18   45 1
    41   19   46 1
    42   19   47 1
    43   20   25 ar
    44   20   21 ar
    45   21   22 ar
    46   21   48 1
    47   22   23 ar
    48   22   49 1
    49   23   24 ar
    50   23   26 1
    51   24   25 ar
    52   24   50 1
    53   25   51 1
@<TRIPOS>MOLECULE
ZINC05092562
   53    55     0     0     0
SMALL
USER_CHARGES

@<TRIPOS>ATOM
      1 C1          0.0507    1.5566    0.0255 C.3       1 <0>        -0.1397
      2 C2          0.0560    0.0266    0.0202 C.3       1 <0>        -0.0393
      3 C3          0.8028   -0.4851    1.2536 C.3       1 <0>        -0.1414
      4 C4         -1.3845   -0.4884    0.0461 C.3       1 <0>        -0.1480
      5 C5          0.7443   -0.4690   -1.2254 C.ar      1 <0>        -0.0095
      6 C6          0.0562   -1.2583   -2.1278 C.ar      1 <0>        -0.1413
      7 C7          0.6877   -1.7130   -3.2704 C.ar      1 <0>        -0.0174
      8 C8          2.0071   -1.3780   -3.5107 C.ar      1 <0>        -0.6839
      9 C9          2.6949   -0.5879   -2.6088 C.ar      1 <0>        -0.0178
     10 C10         2.0622   -0.1297   -1.4683 C.ar      1 <0>        -0.1356
     11 S1          2.8123   -1.9585   -4.9665 S.o2      1 <0>         2.6891
     12 O1          4.2056   -1.9579   -4.6876 O.2       1 <0>        -0.9502
     13 O2          2.1177   -3.1287   -5.3756 O.2       1 <0>        -0.9501
     14 N1          2.5656   -0.8244   -6.1478 N.pl3     1 <0>        -0.9970
     15 C11         1.3905   -0.9033   -7.0268 C.3       1 <0>         0.1031
     16 C12         0.6255    0.4233   -6.9427 C.3       1 <0>         0.0974
     17 N2          1.5776    1.5271   -7.1304 N.pl3     1 <0>        -0.6086
     18 C13         2.7527    1.6060   -6.2514 C.3       1 <0>         0.0978
     19 C14         3.5147    0.2825   -6.3319 C.3       1 <0>         0.1034
     20 C15         1.3695    2.4836   -8.1267 C.ar      1 <0>         0.2696
     21 C16         0.3204    2.3361   -9.0251 C.ar      1 <0>        -0.2016
     22 C17         0.1172    3.2840  -10.0087 C.ar      1 <0>        -0.0009
     23 C18         0.9568    4.3790  -10.0999 C.ar      1 <0>        -0.1131
     24 C19         2.0021    4.5289   -9.2071 C.ar      1 <0>        -0.0009
     25 C20         2.2078    3.5875   -8.2179 C.ar      1 <0>        -0.2013
     26 N3          0.7363    5.3926  -11.1556 N.pl3     1 <0>         0.0443
     27 O3         -0.1770    5.2627  -11.9370 O.2       1 <0>        -0.1728
     28 O4          1.4695    6.3505  -11.2365 O.3       1 <0>        -0.1730
     29 H1          1.0769    1.9235    0.0071 H         1 <0>         0.0591
     30 H2         -0.4813    1.9212   -0.8532 H         1 <0>         0.0573
     31 H3         -0.4472    1.9151    0.9265 H         1 <0>         0.0645
     32 H4          0.3049   -0.1266    2.1545 H         1 <0>         0.0647
     33 H5          0.8065   -1.5751    1.2498 H         1 <0>         0.0589
     34 H6          1.8290   -0.1182    1.2352 H         1 <0>         0.0596
     35 H7         -1.9166   -0.1239   -0.8326 H         1 <0>         0.0604
     36 H8         -1.3808   -1.5784    0.0423 H         1 <0>         0.0613
     37 H9         -1.8824   -0.1299    0.9470 H         1 <0>         0.0638
     38 H10        -0.9746   -1.5201   -1.9400 H         1 <0>         0.1380
     39 H11         0.1503   -2.3303   -3.9751 H         1 <0>         0.1386
     40 H12         3.7259   -0.3265   -2.7964 H         1 <0>         0.1386
     41 H13         2.5985    0.4906   -0.7655 H         1 <0>         0.1325
     42 H14         1.7127   -1.0754   -8.0538 H         1 <0>         0.0855
     43 H15         0.7448   -1.7192   -6.7019 H         1 <0>         0.1066
     44 H16        -0.1336    0.4581   -7.7242 H         1 <0>         0.1023
     45 H17         0.1518    0.5111   -5.9649 H         1 <0>         0.0784
     46 H18         3.3984    2.4218   -6.5764 H         1 <0>         0.1023
     47 H19         2.4305    1.7780   -5.2245 H         1 <0>         0.0777
     48 H20         4.2715    0.2496   -5.5481 H         1 <0>         0.1069
     49 H21         3.9917    0.1969   -7.3082 H         1 <0>         0.0850
     50 H22        -0.3355    1.4809   -8.9547 H         1 <0>         0.1463
     51 H23        -0.6981    3.1698  -10.7078 H         1 <0>         0.1523
     52 H24         2.6562    5.3852   -9.2813 H         1 <0>         0.1522
     53 H25         3.0219    3.7073   -7.5184 H         1 <0>         0.1459
@<TRIPOS>BOND
     1    1    2 1
     2    1   29 1
     3    1   30 1
     4    1   31 1
     5    2    3 1
     6    2    4 1
     7    2    5 1
     8    3   32 1
     9    3   33 1
    10    3   34 1
    11    4   35 1
    12    4   36 1
    13    4   37 1
    14    5   10 ar
    15    5    6 ar
    16    6    7 ar
    17    6   38 1
    18    7    8 ar
    19    7   39 1
    20    8    9 ar
    21    8   11 1
    22    9   10 ar
    23    9   40 1
    24   10   41 1
    25   11   12 2
    26   11   13 2
    27   11   14 1
    28   14   19 1
    29   14   15 1
    30   15   16 1
    31   15   42 1
    32   15   43 1
    33   16   17 1
    34   16   44 1
    35   16   45 1
    36   17   18 1
    37   17   20 1
    38   18   19 1
    39   18   46 1
    40   18   47 1
    41   19   48 1
    42   19   49 1
    43   20   25 ar
    44   20   21 ar
    45   21   22 ar
    46   21   50 1
    47   22   23 ar
    48   22   51 1
    49   23   24 ar
    50   23   26 1
    51   24   25 ar
    52   24   52 1
    53   25   53 1
    54   26   27 2
    55   26   28 1
@<TRIPOS>MOLECULE
ZINC02051048
   51    56     0     0     0
SMALL
USER_CHARGES
(5-methyl-3-BLAHyl-benzofuran-2-yl)-phenyl-methanone
@<TRIPOS>ATOM
      1 C1          3.4439   11.3187   -0.5779 C.3       1 <0>        -0.1149
      2 C2          2.8029    9.9609   -0.4485 C.ar      1 <0>        -0.0977
      3 C3          1.4213    9.8549   -0.3698 C.ar      1 <0>        -0.0755
      4 C4          0.8155    8.6228   -0.2511 C.ar      1 <0>        -0.1062
      5 C5          1.5923    7.4697   -0.2092 C.ar      1 <0>         0.0676
      6 C6          2.9907    7.5848   -0.2894 C.ar      1 <0>        -0.1262
      7 C7          3.5855    8.8409   -0.4089 C.ar      1 <0>        -0.0594
      8 C8          3.5108    6.2113   -0.2182 C.2       1 <0>        -0.0383
      9 C9          2.3960    5.3964   -0.1027 C.2       1 <0>        -0.0338
     10 O1          1.2844    6.1615   -0.1059 O.3       1 <0>        -0.1689
     11 C10         2.4201    3.9379    0.0001 C.2       1 <0>         0.4735
     12 O2          3.4835    3.3512    0.0873 O.2       1 <0>        -0.4188
     13 C11         1.1530    3.1756   -0.0018 C.ar      1 <0>        -0.1690
     14 C12         1.1744    1.7798   -0.0317 C.ar      1 <0>        -0.0556
     15 C13        -0.0112    1.0748   -0.0329 C.ar      1 <0>        -0.1336
     16 C14        -1.2200    1.7480   -0.0098 C.ar      1 <0>        -0.0815
     17 C15        -1.2484    3.1311    0.0252 C.ar      1 <0>        -0.1326
     18 C16        -0.0702    3.8483    0.0267 C.ar      1 <0>        -0.0688
     19 C17         4.9257    5.7885   -0.2616 C.ar      1 <0>        -0.0784
     20 C18         5.4048    5.0185   -1.3329 C.ar      1 <0>        -0.0207
     21 C19         6.7308    4.6526   -1.3277 C.ar      1 <0>        -0.1755
     22 C20         7.5511    5.0565   -0.2667 C.ar      1 <0>         0.1955
     23 N1          7.0669    5.7801    0.7308 N.ar      1 <0>        -0.4665
     24 C21         5.8049    6.1550    0.7600 C.ar      1 <0>         0.1337
     25 C22         8.9742    4.6470   -0.3091 C.ar      1 <0>        -0.1221
     26 C23         9.7832    4.7068    0.8184 C.ar      1 <0>        -0.0446
     27 C24        11.1015    4.3028    0.7343 C.ar      1 <0>        -0.1513
     28 C25        11.6138    3.8422   -0.4666 C.ar      1 <0>        -0.0724
     29 C26        10.8167    3.7829   -1.5943 C.ar      1 <0>        -0.1465
     30 C27         9.4937    4.1856   -1.5271 C.ar      1 <0>         0.1414
     31 O3          8.6946    4.1409   -2.6216 O.3       1 <0>        -0.3099
     32 C28         7.3151    3.8216   -2.4379 C.3       1 <0>         0.1173
     33 H1          3.6512   11.7187    0.4146 H         1 <0>         0.0745
     34 H2          4.3762   11.2286   -1.1353 H         1 <0>         0.0688
     35 H3          2.7679   11.9907   -1.1066 H         1 <0>         0.0710
     36 H4          0.8143   10.7476   -0.4016 H         1 <0>         0.1410
     37 H5         -0.2605    8.5526   -0.1910 H         1 <0>         0.1394
     38 H6          4.6602    8.9282   -0.4704 H         1 <0>         0.1299
     39 H7          2.1171    1.2533   -0.0542 H         1 <0>         0.1355
     40 H8          0.0039   -0.0048   -0.0563 H         1 <0>         0.1325
     41 H9         -2.1455    1.1913   -0.0153 H         1 <0>         0.1303
     42 H10        -2.1952    3.6502    0.0473 H         1 <0>         0.1317
     43 H11        -0.0937    4.9278    0.0496 H         1 <0>         0.1447
     44 H12         4.7504    4.7218   -2.1392 H         1 <0>         0.1378
     45 H13         5.4442    6.7494    1.5864 H         1 <0>         0.1618
     46 H14         9.3840    5.0669    1.7551 H         1 <0>         0.1373
     47 H15        11.7347    4.3467    1.6081 H         1 <0>         0.1310
     48 H16        12.6452    3.5269   -0.5229 H         1 <0>         0.1338
     49 H17        11.2255    3.4231   -2.5270 H         1 <0>         0.1372
     50 H18         7.2195    2.7653   -2.1867 H         1 <0>         0.0804
     51 H19         6.7742    4.0230   -3.3625 H         1 <0>         0.1211
@<TRIPOS>BOND
     1    1    2 1
     2    1   33 1
     3    1   34 1
     4    1   35 1
     5    2    7 ar
     6    2    3 ar
     7    3    4 ar
     8    3   36 1
     9    4    5 ar
    10    4   37 1
    11    5   10 1
    12    5    6 ar
    13    6    7 ar
    14    6    8 1
    15    7   38 1
    16    8    9 2
    17    8   19 1
    18    9   10 1
    19    9   11 1
    20   11   12 2
    21   11   13 1
    22   13   18 ar
    23   13   14 ar
    24   14   15 ar
    25   14   39 1
    26   15   16 ar
    27   15   40 1
    28   16   17 ar
    29   16   41 1
    30   17   18 ar
    31   17   42 1
    32   18   43 1
    33   19   24 ar
    34   19   20 ar
    35   20   21 ar
    36   20   44 1
    37   21   32 1
    38   21   22 ar
    39   22   23 ar
    40   22   25 1
    41   23   24 ar
    42   24   45 1
    43   25   30 ar
    44   25   26 ar
    45   26   27 ar
    46   26   46 1
    47   27   28 ar
    48   27   47 1
    49   28   29 ar
    50   28   48 1
    51   29   30 ar
    52   29   49 1
    53   30   31 1
    54   31   32 1
    55   32   50 1
    56   32   51 1
@<TRIPOS>MOLECULE
ZINC20405015
   44    46     0     0     0
SMALL
USER_CHARGES

@<TRIPOS>ATOM
      1 C1          0.0043    1.5253    0.0613 C.3       1 <0>        -0.1263
      2 C2          0.0296    0.0256    0.2080 C.ar      1 <0>        -0.0274
      3 C3         -0.0950   -0.7802   -0.9082 C.ar      1 <0>        -0.1413
      4 C4         -0.0718   -2.1558   -0.7736 C.ar      1 <0>        -0.0155
      5 C5          0.0766   -2.7255    0.4771 C.ar      1 <0>        -0.6838
      6 C6          0.2022   -1.9196    1.5932 C.ar      1 <0>        -0.0154
      7 C7          0.1832   -0.5440    1.4581 C.ar      1 <0>        -0.1413
      8 S1          0.1051   -4.4789    0.6488 S.o2      1 <0>         2.6896
      9 O1         -0.2927   -4.7629    1.9831 O.2       1 <0>        -0.9533
     10 O2         -0.5782   -5.0086   -0.4790 O.2       1 <0>        -0.9533
     11 N1          1.6843   -4.9585    0.5136 N.pl3     1 <0>        -0.9924
     12 C8          2.2544   -5.2941   -0.7988 C.3       1 <0>         0.1048
     13 C9          3.5051   -4.4355   -1.0239 C.3       1 <0>         0.1332
     14 N2          4.3619   -4.5327    0.1663 N.pl3     1 <0>        -0.6656
     15 C10         3.7918   -4.1972    1.4786 C.3       1 <0>         0.1331
     16 C11         2.5426   -5.0504    1.7030 C.3       1 <0>         0.1047
     17 C12         5.6874   -4.9353    0.0527 C.ar      1 <0>         0.4318
     18 C13         6.6820   -3.9838   -0.1510 C.ar      1 <0>        -0.2407
     19 C14         7.9967   -4.3983   -0.2622 C.ar      1 <0>        -0.0223
     20 C15         8.2741   -5.7556   -0.1655 C.ar      1 <0>        -0.1785
     21 C16         7.2380   -6.6447    0.0371 C.ar      1 <0>         0.1439
     22 N3          5.9931   -6.2202    0.1448 N.ar      1 <0>        -0.4890
     23 C17         6.3312   -2.5215   -0.2497 C.3       1 <0>         0.5223
     24 F1          7.4967   -1.7751   -0.4541 F         1 <0>        -0.1791
     25 F2          5.4562   -2.3232   -1.3232 F         1 <0>        -0.1721
     26 F3          5.7151   -2.1086    0.9365 F         1 <0>        -0.1720
     27 H1          1.0184    1.8920   -0.0970 H         1 <0>         0.0798
     28 H2         -0.6175    1.7964   -0.7919 H         1 <0>         0.0734
     29 H3         -0.4064    1.9720    0.9667 H         1 <0>         0.0733
     30 H4         -0.2110   -0.3352   -1.8853 H         1 <0>         0.1327
     31 H5         -0.1699   -2.7854   -1.6456 H         1 <0>         0.1387
     32 H6          0.3178   -2.3647    2.5704 H         1 <0>         0.1387
     33 H7          0.2851    0.0856    2.3297 H         1 <0>         0.1327
     34 H8          2.5263   -6.3494   -0.8205 H         1 <0>         0.0837
     35 H9          1.5226   -5.0862   -1.5795 H         1 <0>         0.0987
     36 H10         4.0475   -4.8008   -1.8959 H         1 <0>         0.0831
     37 H11         3.2128   -3.3971   -1.1803 H         1 <0>         0.0686
     38 H12         4.5236   -4.4051    2.2593 H         1 <0>         0.0834
     39 H13         3.5199   -3.1419    1.5004 H         1 <0>         0.0681
     40 H14         2.0012   -4.6816    2.5742 H         1 <0>         0.0989
     41 H15         2.8356   -6.0879    1.8635 H         1 <0>         0.0834
     42 H16         8.7897   -3.6825   -0.4209 H         1 <0>         0.1509
     43 H17         9.2903   -6.1119   -0.2484 H         1 <0>         0.1500
     44 H18         7.4493   -7.7012    0.1125 H         1 <0>         0.1678
@<TRIPOS>BOND
     1    1    2 1
     2    1   27 1
     3    1   28 1
     4    1   29 1
     5    2    7 ar
     6    2    3 ar
     7    3    4 ar
     8    3   30 1
     9    4    5 ar
    10    4   31 1
    11    5    6 ar
    12    5    8 1
    13    6    7 ar
    14    6   32 1
    15    7   33 1
    16    8    9 2
    17    8   10 2
    18    8   11 1
    19   11   16 1
    20   11   12 1
    21   12   13 1
    22   12   34 1
    23   12   35 1
    24   13   14 1
    25   13   36 1
    26   13   37 1
    27   14   15 1
    28   14   17 1
    29   15   16 1
    30   15   38 1
    31   15   39 1
    32   16   40 1
    33   16   41 1
    34   17   22 ar
    35   17   18 ar
    36   18   19 ar
    37   18   23 1
    38   19   20 ar
    39   19   42 1
    40   20   21 ar
    41   20   43 1
    42   21   22 ar
    43   21   44 1
    44   23   24 1
    45   23   25 1
    46   23   26 1
