@<TRIPOS>MOLECULE
ZINC19203131
   79    83     0     0     0
SMALL
USER_CHARGES

@<TRIPOS>ATOM
      1 C1          0.4728    1.2638   -2.5373 C.3       1 <0>        -0.1453
      2 C2          0.5659   -0.2603   -2.5689 C.3       1 <0>        -0.0436
      3 C3         -0.7274   -0.8397   -3.1412 C.3       1 <0>        -0.1021
      4 C4         -1.9076   -0.5242   -2.2273 C.3       1 <0>        -0.0883
      5 C5         -1.6737   -1.0494   -0.8135 C.3       1 <0>        -0.1254
      6 C6         -0.3635   -0.5044   -0.2441 C.3       1 <0>        -0.0766
      7 C7          0.8019   -0.8177   -1.1676 C.3       1 <0>        -0.0495
      8 H1          0.9219   -1.9079   -1.2407 H         1 <0>         0.0798
      9 C8          2.0968   -0.2452   -0.6259 C.2       1 <0>        -0.0068
     10 C9          2.0888    0.2608    0.6067 C.2       1 <0>        -0.2597
     11 C10         3.3159    0.8078    1.2119 C.2       1 <0>         0.3996
     12 O1          3.2472    1.4848    2.2154 O.2       1 <0>        -0.4514
     13 C11         4.6120    0.4416    0.5262 C.3       1 <0>        -0.1125
     14 H2          4.7766   -0.6430    0.7099 H         1 <0>         0.0950
     15 C12         5.8177    1.1540    1.1304 C.3       1 <0>        -0.0230
     16 C13         6.0278    0.6085    2.5540 C.3       1 <0>        -0.1166
     17 C14         7.2812    1.2327    3.1599 C.3       1 <0>        -0.1468
     18 C15         8.5107    0.8346    2.3542 C.3       1 <0>         0.1188
     19 H3          8.6616   -0.2474    2.4399 H         1 <0>         0.0474
     20 C16         8.3805    1.1993    0.8761 C.3       1 <0>        -0.0368
     21 C17         7.0445    0.7997    0.2951 C.3       1 <0>        -0.0597
     22 H4          7.0507   -0.3175    0.2270 H         1 <0>         0.0593
     23 C18         6.8452    1.2956   -1.1367 C.3       1 <0>        -0.1137
     24 C19         5.7031    0.4800   -1.7608 C.3       1 <0>        -0.1071
     25 C20         4.4163    0.6494   -0.9686 C.3       1 <0>        -0.0216
     26 C21         3.3288   -0.2993   -1.4852 C.3       1 <0>        -0.0139
     27 C22         3.0390   -0.0304   -2.9542 C.3       1 <0>        -0.1046
     28 C23         1.7502   -0.6848   -3.4418 C.3       1 <0>        -0.1101
     29 C24         3.8613   -1.7371   -1.3874 C.3       1 <0>        -0.1491
     30 C25         3.8884    2.0744   -1.2110 C.3       1 <0>        -0.1707
     31 C26         9.4833    0.4010    0.1348 C.3       1 <0>        -0.1463
     32 C27         8.6956    2.6818    0.6756 C.3       1 <0>        -0.1327
     33 O2          9.6631    1.4926    2.8961 O.3       1 <0>        -0.5663
     34 C28         5.6034    2.6605    1.2285 C.3       1 <0>        -0.1601
     35 C29        -1.6538   -2.5782   -0.8159 C.3       1 <0>        -0.1185
     36 C30        -2.8131   -0.5861    0.0688 C.2       1 <0>         0.4997
     37 O3         -3.9583   -0.9123   -0.1929 O.co2     1 <0>        -0.7001
     38 O4         -2.5855    0.1133    1.0412 O.co2     1 <0>        -0.6966
     39 H5          1.4030    1.6767   -2.1470 H         1 <0>         0.0565
     40 H6          0.3044    1.6385   -3.5470 H         1 <0>         0.0486
     41 H7         -0.3555    1.5640   -1.8956 H         1 <0>         0.0641
     42 H8         -0.9070   -0.3913   -4.1254 H         1 <0>         0.0521
     43 H9         -0.6208   -1.9161   -3.2703 H         1 <0>         0.0580
     44 H10        -2.0885    0.5497   -2.1934 H         1 <0>         0.0539
     45 H11        -2.8078   -1.0027   -2.6337 H         1 <0>         0.0579
     46 H12        -0.4517    0.5698   -0.0832 H         1 <0>         0.0694
     47 H13        -0.1860   -0.9801    0.7303 H         1 <0>         0.0545
     48 H14         1.1756    0.2770    1.1841 H         1 <0>         0.1443
     49 H15         5.1612    0.8568    3.1640 H         1 <0>         0.0820
     50 H16         6.1422   -0.4741    2.5041 H         1 <0>         0.0567
     51 H17         7.1963    2.3129    3.2228 H         1 <0>         0.0774
     52 H18         7.3962    0.8516    4.1861 H         1 <0>         0.0560
     53 H19         6.6122    2.3509   -1.1698 H         1 <0>         0.0709
     54 H20         7.7484    1.1145   -1.7252 H         1 <0>         0.0629
     55 H21         5.5508    0.8257   -2.7879 H         1 <0>         0.0676
     56 H22         6.0226   -0.5618   -1.7899 H         1 <0>         0.0668
     57 H23         3.0207    1.0230   -3.2073 H         1 <0>         0.0738
     58 H24         3.8698   -0.4674   -3.5442 H         1 <0>         0.0569
     59 H25         1.8467   -1.7704   -3.4156 H         1 <0>         0.0606
     60 H26         1.5557   -0.3753   -4.4732 H         1 <0>         0.0615
     61 H27         3.1022   -2.4310   -1.7484 H         1 <0>         0.0616
     62 H28         4.7605   -1.8337   -1.9958 H         1 <0>         0.0639
     63 H29         4.0989   -1.9667   -0.3487 H         1 <0>         0.0560
     64 H30         4.6488    2.7983   -0.9179 H         1 <0>         0.0676
     65 H31         3.6551    2.2005   -2.2683 H         1 <0>         0.0645
     66 H32         2.9874    2.2339   -0.6186 H         1 <0>         0.0600
     67 H33         9.3261   -0.6663    0.2905 H         1 <0>         0.0486
     68 H34         9.4381    0.6231   -0.9314 H         1 <0>         0.0555
     69 H35        10.4611    0.6848    0.5239 H         1 <0>         0.0593
     70 H36         9.7493    2.8614    0.8889 H         1 <0>         0.0584
     71 H37         8.4806    2.9627   -0.3554 H         1 <0>         0.0517
     72 H38         8.0815    3.2782    1.3503 H         1 <0>         0.0569
     73 H39         9.8421    1.2742    3.8210 H         1 <0>         0.3732
     74 H40         4.6128    2.8608    1.6367 H         1 <0>         0.0742
     75 H41         6.3602    3.0933    1.8827 H         1 <0>         0.0601
     76 H42         5.6841    3.1044    0.2362 H         1 <0>         0.0592
     77 H43        -0.8518   -2.9301   -1.4649 H         1 <0>         0.0380
     78 H44        -1.4862   -2.9410    0.1982 H         1 <0>         0.0413
     79 H45        -2.6091   -2.9534   -1.1829 H         1 <0>         0.0539
@<TRIPOS>BOND
     1    1    2 1
     2    1   39 1
     3    1   40 1
     4    1   41 1
     5    2    7 1
     6    2   28 1
     7    2    3 1
     8    3    4 1
     9    3   42 1
    10    3   43 1
    11    4    5 1
    12    4   44 1
    13    4   45 1
    14    5    6 1
    15    5   35 1
    16    5   36 1
    17    6    7 1
    18    6   46 1
    19    6   47 1
    20    7    8 1
    21    7    9 1
    22    9   26 1
    23    9   10 2
    24   10   11 1
    25   10   48 1
    26   11   12 2
    27   11   13 1
    28   13   14 1
    29   13   25 1
    30   13   15 1
    31   15   21 1
    32   15   16 1
    33   15   34 1
    34   16   17 1
    35   16   49 1
    36   16   50 1
    37   17   18 1
    38   17   51 1
    39   17   52 1
    40   18   19 1
    41   18   20 1
    42   18   33 1
    43   20   21 1
    44   20   31 1
    45   20   32 1
    46   21   22 1
    47   21   23 1
    48   23   24 1
    49   23   53 1
    50   23   54 1
    51   24   25 1
    52   24   55 1
    53   24   56 1
    54   25   26 1
    55   25   30 1
    56   26   27 1
    57   26   29 1
    58   27   28 1
    59   27   57 1
    60   27   58 1
    61   28   59 1
    62   28   60 1
    63   29   61 1
    64   29   62 1
    65   29   63 1
    66   30   64 1
    67   30   65 1
    68   30   66 1
    69   31   67 1
    70   31   68 1
    71   31   69 1
    72   32   70 1
    73   32   71 1
    74   32   72 1
    75   33   73 1
    76   34   74 1
    77   34   75 1
    78   34   76 1
    79   35   77 1
    80   35   78 1
    81   35   79 1
    82   36   37 2
    83   36   38 1
@<TRIPOS>MOLECULE
ZINC19203131
   79    83     0     0     0
SMALL
USER_CHARGES

@<TRIPOS>ATOM
      1 C1          0.6456    1.7280   -2.5152 C.3       1 <0>        -0.1468
      2 C2          0.6518    0.1970   -2.6000 C.3       1 <0>        -0.0447
      3 C3         -0.6848   -0.2429   -3.1979 C.3       1 <0>        -0.1006
      4 C4         -0.7983   -1.7627   -3.2148 C.3       1 <0>        -0.0867
      5 C5         -0.6469   -2.3346   -1.8057 C.3       1 <0>        -0.1308
      6 C6          0.6905   -1.8984   -1.2096 C.3       1 <0>        -0.0666
      7 C7          0.8269   -0.3802   -1.1995 C.3       1 <0>        -0.0489
      8 H1          0.0653    0.0529   -0.5359 H         1 <0>         0.1118
      9 C8          2.1956   -0.0004   -0.6658 C.2       1 <0>         0.0093
     10 C9          2.2431    0.3732    0.6187 C.2       1 <0>        -0.2654
     11 C10         3.5050    0.7729    1.2574 C.2       1 <0>         0.4015
     12 O1          3.4908    1.2728    2.3648 O.2       1 <0>        -0.4605
     13 C11         4.7755    0.5041    0.4842 C.3       1 <0>        -0.1130
     14 H2          4.9710   -0.5882    0.5585 H         1 <0>         0.0967
     15 C12         5.9968    1.1756    1.1081 C.3       1 <0>        -0.0223
     16 C13         6.2668    0.5019    2.4653 C.3       1 <0>        -0.1186
     17 C14         7.5457    1.0708    3.0731 C.3       1 <0>        -0.1465
     18 C15         8.7380    0.7505    2.1811 C.3       1 <0>         0.1179
     19 H3          8.8771   -0.3354    2.1410 H         1 <0>         0.0474
     20 C16         8.5467    1.2746    0.7575 C.3       1 <0>        -0.0367
     21 C17         7.1909    0.9192    0.1935 C.3       1 <0>        -0.0601
     22 H4          7.2045   -0.1851    0.0186 H         1 <0>         0.0594
     23 C18         6.9293    1.5468   -1.1745 C.3       1 <0>        -0.1134
     24 C19         5.7696    0.7824   -1.8319 C.3       1 <0>        -0.1067
     25 C20         4.5187    0.8570   -0.9725 C.3       1 <0>        -0.0239
     26 C21         3.4148   -0.0527   -1.5342 C.3       1 <0>        -0.0148
     27 C22         3.1328    0.2991   -2.9871 C.3       1 <0>        -0.1033
     28 C23         1.8055   -0.2685   -3.4816 C.3       1 <0>        -0.1081
     29 C24         3.9437   -1.4937   -1.5089 C.3       1 <0>        -0.1536
     30 C25         3.9623    2.2877   -1.0594 C.3       1 <0>        -0.1702
     31 C26         9.6271    0.5811   -0.1099 C.3       1 <0>        -0.1461
     32 C27         8.8355    2.7751    0.7129 C.3       1 <0>        -0.1331
     33 O2          9.9195    1.3359    2.7401 O.3       1 <0>        -0.5661
     34 C28         5.7635    2.6614    1.3574 C.3       1 <0>        -0.1571
     35 C29        -0.6693   -3.8687   -1.8928 C.3       1 <0>        -0.1216
     36 C30        -1.7831   -1.8866   -0.9274 C.2       1 <0>         0.5075
     37 O3         -2.9311   -2.1716   -1.2230 O.co2     1 <0>        -0.7014
     38 O4         -1.5560   -1.2384    0.0799 O.co2     1 <0>        -0.6930
     39 H5          1.5894    2.0723   -2.0923 H         1 <0>         0.0573
     40 H6          0.5207    2.1467   -3.5138 H         1 <0>         0.0482
     41 H7         -0.1776    2.0534   -1.8792 H         1 <0>         0.0546
     42 H8         -1.5018    0.1991   -2.6316 H         1 <0>         0.0653
     43 H9         -0.7422    0.1284   -4.2285 H         1 <0>         0.0478
     44 H10        -1.7739   -2.0497   -3.6162 H         1 <0>         0.0592
     45 H11        -0.0202   -2.1807   -3.8586 H         1 <0>         0.0444
     46 H12         0.7656   -2.2770   -0.1853 H         1 <0>         0.0555
     47 H13         1.4905   -2.3449   -1.8038 H         1 <0>         0.0434
     48 H14         1.3291    0.3819    1.1968 H         1 <0>         0.1347
     49 H15         5.4279    0.6968    3.1338 H         1 <0>         0.0852
     50 H16         6.3728   -0.5717    2.3148 H         1 <0>         0.0565
     51 H17         7.4651    2.1408    3.2332 H         1 <0>         0.0764
     52 H18         7.7039    0.5997    4.0543 H         1 <0>         0.0559
     53 H19         6.6826    2.5986   -1.0936 H         1 <0>         0.0701
     54 H20         7.8089    1.4405   -1.8139 H         1 <0>         0.0628
     55 H21         5.5698    1.2324   -2.8096 H         1 <0>         0.0677
     56 H22         6.0904   -0.2480   -1.9838 H         1 <0>         0.0670
     57 H23         3.1728    1.3627   -3.1865 H         1 <0>         0.0715
     58 H24         3.9326   -0.1572   -3.6049 H         1 <0>         0.0561
     59 H25         1.8481   -1.3584   -3.4851 H         1 <0>         0.0668
     60 H26         1.6326    0.0715   -4.5080 H         1 <0>         0.0575
     61 H27         3.1774   -2.1687   -1.8900 H         1 <0>         0.0693
     62 H28         4.8340   -1.5650   -2.1336 H         1 <0>         0.0628
     63 H29         4.1952   -1.7705   -0.4850 H         1 <0>         0.0558
     64 H30         4.7333    2.9963   -0.7568 H         1 <0>         0.0655
     65 H31         3.6583    2.4976   -2.0849 H         1 <0>         0.0648
     66 H32         3.1011    2.3834   -0.3983 H         1 <0>         0.0605
     67 H33         9.4879   -0.4992   -0.0686 H         1 <0>         0.0487
     68 H34         9.5371    0.9199   -1.1420 H         1 <0>         0.0555
     69 H35        10.6165    0.8347    0.2707 H         1 <0>         0.0594
     70 H36         9.8913    2.9483    0.9212 H         1 <0>         0.0585
     71 H37         8.5919    3.1627   -0.2763 H         1 <0>         0.0516
     72 H38         8.2291    3.2842    1.4620 H         1 <0>         0.0568
     73 H39        10.1330    1.0190    3.6284 H         1 <0>         0.3731
     74 H40         4.7879    2.8030    1.8225 H         1 <0>         0.0701
     75 H41         6.5404    3.0452    2.0186 H         1 <0>         0.0597
     76 H42         5.7954    3.1983    0.4094 H         1 <0>         0.0596
     77 H43         0.1537   -4.2090   -2.5213 H         1 <0>         0.0357
     78 H44        -0.5621   -4.2909   -0.8937 H         1 <0>         0.0427
     79 H45        -1.6154   -4.1942   -2.3252 H         1 <0>         0.0551
@<TRIPOS>BOND
     1    1    2 1
     2    1   39 1
     3    1   40 1
     4    1   41 1
     5    2    7 1
     6    2   28 1
     7    2    3 1
     8    3    4 1
     9    3   42 1
    10    3   43 1
    11    4    5 1
    12    4   44 1
    13    4   45 1
    14    5    6 1
    15    5   35 1
    16    5   36 1
    17    6    7 1
    18    6   46 1
    19    6   47 1
    20    7    8 1
    21    7    9 1
    22    9   26 1
    23    9   10 2
    24   10   11 1
    25   10   48 1
    26   11   12 2
    27   11   13 1
    28   13   14 1
    29   13   25 1
    30   13   15 1
    31   15   21 1
    32   15   16 1
    33   15   34 1
    34   16   17 1
    35   16   49 1
    36   16   50 1
    37   17   18 1
    38   17   51 1
    39   17   52 1
    40   18   19 1
    41   18   20 1
    42   18   33 1
    43   20   21 1
    44   20   31 1
    45   20   32 1
    46   21   22 1
    47   21   23 1
    48   23   24 1
    49   23   53 1
    50   23   54 1
    51   24   25 1
    52   24   55 1
    53   24   56 1
    54   25   26 1
    55   25   30 1
    56   26   27 1
    57   26   29 1
    58   27   28 1
    59   27   57 1
    60   27   58 1
    61   28   59 1
    62   28   60 1
    63   29   61 1
    64   29   62 1
    65   29   63 1
    66   30   64 1
    67   30   65 1
    68   30   66 1
    69   31   67 1
    70   31   68 1
    71   31   69 1
    72   32   70 1
    73   32   71 1
    74   32   72 1
    75   33   73 1
    76   34   74 1
    77   34   75 1
    78   34   76 1
    79   35   77 1
    80   35   78 1
    81   35   79 1
    82   36   37 2
    83   36   38 1
