@<TRIPOS>MOLECULE
ZINC38407010
   89    93     0     0     0
SMALL
USER_CHARGES

@<TRIPOS>ATOM
      1 C1          0.6478    1.7221   -2.5122 C.3       1 <0>        -0.1467
      2 C2          0.6556    0.1905   -2.5968 C.3       1 <0>        -0.0450
      3 C3         -0.6827   -0.2509   -3.1888 C.3       1 <0>        -0.1006
      4 C4         -0.7928   -1.7712   -3.2105 C.3       1 <0>        -0.0862
      5 C5         -0.6371   -2.3454   -1.8031 C.3       1 <0>        -0.1304
      6 C6          0.7005   -1.9051   -1.2097 C.3       1 <0>        -0.0675
      7 C7          0.8315   -0.3866   -1.1956 C.3       1 <0>        -0.0476
      8 H1          0.0685    0.0442   -0.5339 H         1 <0>         0.1106
      9 C8          2.1989   -0.0002   -0.6629 C.2       1 <0>         0.0054
     10 C9          2.2453    0.3774    0.6206 C.2       1 <0>        -0.2616
     11 C10         3.5059    0.7839    1.2581 C.2       1 <0>         0.4006
     12 O1          3.4910    1.2855    2.3648 O.2       1 <0>        -0.4574
     13 C11         4.7763    0.5184    0.4842 C.3       1 <0>        -0.1132
     14 H2          4.9758   -0.5735    0.5633 H         1 <0>         0.0972
     15 C12         5.9960    1.1950    1.1055 C.3       1 <0>        -0.0234
     16 C13         6.2683    0.5253    2.4642 C.3       1 <0>        -0.1142
     17 C14         7.5461    1.0979    3.0710 C.3       1 <0>        -0.1323
     18 C15         8.7391    0.7751    2.1807 C.3       1 <0>         0.0985
     19 H3          8.8803   -0.3107    2.1485 H         1 <0>         0.0767
     20 C16         8.5469    1.2899    0.7539 C.3       1 <0>        -0.0403
     21 C17         7.1903    0.9337    0.1926 C.3       1 <0>        -0.0584
     22 H4          7.2015   -0.1739    0.0254 H         1 <0>         0.0601
     23 C18         6.9329    1.5494   -1.1811 C.3       1 <0>        -0.1117
     24 C19         5.7710    0.7830   -1.8320 C.3       1 <0>        -0.1065
     25 C20         4.5199    0.8635   -0.9738 C.3       1 <0>        -0.0232
     26 C21         3.4173   -0.0497   -1.5321 C.3       1 <0>        -0.0141
     27 C22         3.1344    0.2972   -2.9857 C.3       1 <0>        -0.1030
     28 C23         1.8081   -0.2727   -3.4807 C.3       1 <0>        -0.1069
     29 C24         3.9488   -1.4898   -1.5042 C.3       1 <0>        -0.1543
     30 C25         3.9650    2.2942   -1.0698 C.3       1 <0>        -0.1690
     31 C26         8.8384    2.7892    0.6971 C.3       1 <0>        -0.1371
     32 C27         9.6250    0.5868   -0.1090 C.3       1 <0>        -0.1498
     33 O2          9.9194    1.3679    2.7358 O.3       1 <0>        -0.3468
     34 C28        10.6238    0.6251    3.6040 C.2       1 <0>         0.4554
     35 O3         10.2533   -0.4902    3.8845 O.2       1 <0>        -0.5140
     36 C29        11.8770    1.1822    4.2288 C.3       1 <0>        -0.0853
     37 C30        12.4827    0.1411    5.1723 C.3       1 <0>        -0.1714
     38 C31        13.7358    0.6982    5.7971 C.2       1 <0>         0.4936
     39 O4         14.1098    1.8236    5.5140 O.co2     1 <0>        -0.6991
     40 O5         14.3757    0.0235    6.5856 O.co2     1 <0>        -0.7017
     41 C32         5.7630    2.6811    1.3485 C.3       1 <0>        -0.1559
     42 C33        -0.6520   -3.8794   -1.8940 C.3       1 <0>        -0.1214
     43 C34        -1.7745   -1.9038   -0.9231 C.2       1 <0>         0.5079
     44 O6         -2.9215   -2.1932   -1.2183 O.co2     1 <0>        -0.7037
     45 O7         -1.5493   -1.2566    0.0853 O.co2     1 <0>        -0.6916
     46 H5          1.5912    2.0674   -2.0895 H         1 <0>         0.0588
     47 H6          0.5224    2.1405   -3.5109 H         1 <0>         0.0472
     48 H7         -0.1758    2.0466   -1.8762 H         1 <0>         0.0539
     49 H8         -1.4956    0.1827   -2.6082 H         1 <0>         0.0644
     50 H9         -0.7536    0.1284   -4.2137 H         1 <0>         0.0474
     51 H10        -1.7700   -2.0580   -3.6093 H         1 <0>         0.0579
     52 H11        -0.0180   -2.1859   -3.8591 H         1 <0>         0.0444
     53 H12         0.7828   -2.2879   -0.1892 H         1 <0>         0.0559
     54 H13         1.4995   -2.3441   -1.8111 H         1 <0>         0.0440
     55 H14         1.3320    0.3823    1.2002 H         1 <0>         0.1337
     56 H15         5.4297    0.7133    3.1320 H         1 <0>         0.0863
     57 H16         6.3820   -0.5479    2.3121 H         1 <0>         0.0573
     58 H17         7.4645    2.1684    3.2297 H         1 <0>         0.0773
     59 H18         7.7045    0.6287    4.0534 H         1 <0>         0.0619
     60 H19         6.6949    2.6021   -1.1136 H         1 <0>         0.0706
     61 H20         7.8131    1.4274   -1.8182 H         1 <0>         0.0633
     62 H21         5.5722    1.2244   -2.8138 H         1 <0>         0.0665
     63 H22         6.0922   -0.2486   -1.9753 H         1 <0>         0.0666
     64 H23         3.1713    1.3608   -3.1891 H         1 <0>         0.0712
     65 H24         3.9353   -0.1570   -3.6025 H         1 <0>         0.0560
     66 H25         1.8540   -1.3620   -3.4920 H         1 <0>         0.0665
     67 H26         1.6331    0.0737   -4.5057 H         1 <0>         0.0558
     68 H27         3.1835   -2.1670   -1.8836 H         1 <0>         0.0680
     69 H28         4.8389   -1.5608   -2.1293 H         1 <0>         0.0631
     70 H29         4.2012   -1.7642   -0.4800 H         1 <0>         0.0569
     71 H30         4.7366    3.0039   -0.7712 H         1 <0>         0.0668
     72 H31         3.6615    2.4981   -2.0966 H         1 <0>         0.0632
     73 H32         3.1037    2.3949   -0.4095 H         1 <0>         0.0595
     74 H33         9.8947    2.9620    0.9035 H         1 <0>         0.0626
     75 H34         8.5951    3.1693   -0.2950 H         1 <0>         0.0534
     76 H35         8.2334    3.3054    1.4425 H         1 <0>         0.0596
     77 H36         9.4828   -0.4927   -0.0595 H         1 <0>         0.0505
     78 H37         9.5351    0.9180   -1.1436 H         1 <0>         0.0584
     79 H38        10.6153    0.8406    0.2690 H         1 <0>         0.0593
     80 H39        12.5959    1.4254    3.4464 H         1 <0>         0.1016
     81 H40        11.6329    2.0836    4.7910 H         1 <0>         0.1023
     82 H41        11.7638   -0.1022    5.9546 H         1 <0>         0.0655
     83 H42        12.7268   -0.7603    4.6101 H         1 <0>         0.0649
     84 H43         4.7879    2.8246    1.8140 H         1 <0>         0.0688
     85 H44         6.5406    3.0678    2.0072 H         1 <0>         0.0624
     86 H45         5.7938    3.2138    0.3980 H         1 <0>         0.0589
     87 H46         0.1720   -4.2141   -2.5241 H         1 <0>         0.0359
     88 H47        -0.5417   -4.3036   -0.8960 H         1 <0>         0.0429
     89 H48        -1.5969   -4.2086   -2.3263 H         1 <0>         0.0540
@<TRIPOS>BOND
     1    1    2 1
     2    1   46 1
     3    1   47 1
     4    1   48 1
     5    2    7 1
     6    2   28 1
     7    2    3 1
     8    3    4 1
     9    3   49 1
    10    3   50 1
    11    4    5 1
    12    4   51 1
    13    4   52 1
    14    5    6 1
    15    5   42 1
    16    5   43 1
    17    6    7 1
    18    6   53 1
    19    6   54 1
    20    7    8 1
    21    7    9 1
    22    9   26 1
    23    9   10 2
    24   10   11 1
    25   10   55 1
    26   11   12 2
    27   11   13 1
    28   13   14 1
    29   13   25 1
    30   13   15 1
    31   15   21 1
    32   15   16 1
    33   15   41 1
    34   16   17 1
    35   16   56 1
    36   16   57 1
    37   17   18 1
    38   17   58 1
    39   17   59 1
    40   18   19 1
    41   18   20 1
    42   18   33 1
    43   20   21 1
    44   20   31 1
    45   20   32 1
    46   21   22 1
    47   21   23 1
    48   23   24 1
    49   23   60 1
    50   23   61 1
    51   24   25 1
    52   24   62 1
    53   24   63 1
    54   25   26 1
    55   25   30 1
    56   26   27 1
    57   26   29 1
    58   27   28 1
    59   27   64 1
    60   27   65 1
    61   28   66 1
    62   28   67 1
    63   29   68 1
    64   29   69 1
    65   29   70 1
    66   30   71 1
    67   30   72 1
    68   30   73 1
    69   31   74 1
    70   31   75 1
    71   31   76 1
    72   32   77 1
    73   32   78 1
    74   32   79 1
    75   33   34 1
    76   34   35 2
    77   34   36 1
    78   36   37 1
    79   36   80 1
    80   36   81 1
    81   37   38 1
    82   37   82 1
    83   37   83 1
    84   38   39 2
    85   38   40 1
    86   41   84 1
    87   41   85 1
    88   41   86 1
    89   42   87 1
    90   42   88 1
    91   42   89 1
    92   43   44 2
    93   43   45 1
