@<TRIPOS>MOLECULE
ZINC00904743
   51    55     0     0     0
SMALL
USER_CHARGES

@<TRIPOS>ATOM
      1 C1         -0.3237    0.5487   -0.9185 C.ar      1 <0>        -0.0926
      2 C2          0.7347    1.4381   -0.8688 C.ar      1 <0>        -0.1230
      3 C3          2.0179    0.9767   -0.6574 C.ar      1 <0>        -0.0711
      4 C4          2.2465   -0.3891   -0.4932 C.ar      1 <0>        -0.0668
      5 C5          1.1754   -1.2807   -0.5438 C.ar      1 <0>        -0.0726
      6 C6         -0.1032   -0.8073   -0.7564 C.ar      1 <0>        -0.1201
      7 C7          3.6218   -0.8910   -0.2663 C.ar      1 <0>         0.2309
      8 C8          3.8821   -1.8556    0.7278 C.ar      1 <0>         0.0625
      9 N1          5.1291   -2.2806    0.9008 N.ar      1 <0>        -0.1596
     10 N2          6.0830   -1.8179    0.1713 N.ar      1 <0>        -0.2934
     11 C9          5.8608   -0.9086   -0.7712 C.ar      1 <0>         0.2163
     12 N3          4.6386   -0.4451   -1.0004 N.ar      1 <0>        -0.4412
     13 S1          7.2091   -0.3135   -1.7369 S.3       1 <0>         0.1155
     14 C10         8.6444   -1.2132   -1.0881 C.3       1 <0>        -0.1647
     15 C11         9.8821   -0.7920   -1.8377 C.2       1 <0>         0.5480
     16 O1          9.8036    0.0338   -2.7225 O.2       1 <0>        -0.4981
     17 N4         11.0762   -1.3331   -1.5249 N.am      1 <0>        -0.5456
     18 C12        12.3458   -1.0003   -2.1765 C.3       1 <0>         0.1081
     19 C13        13.4000   -1.8713   -1.4740 C.3       1 <0>        -0.0879
     20 C14        12.6200   -2.6567   -0.4439 C.ar      1 <0>        -0.1295
     21 C15        11.2860   -2.2898   -0.5269 C.ar      1 <0>         0.1338
     22 C16        10.3648   -2.8834    0.3377 C.ar      1 <0>        -0.1587
     23 C17        10.7810   -3.8177    1.2623 C.ar      1 <0>        -0.0827
     24 C18        12.1147   -4.1737    1.3400 C.ar      1 <0>        -0.1365
     25 C19        13.0317   -3.5965    0.4810 C.ar      1 <0>        -0.0732
     26 C20         2.7826   -2.3869    1.5670 C.ar      1 <0>        -0.0484
     27 C21         1.8364   -1.5197    2.1121 C.ar      1 <0>        -0.0817
     28 C22         0.8144   -2.0205    2.8925 C.ar      1 <0>        -0.1179
     29 C23         0.7279   -3.3797    3.1349 C.ar      1 <0>        -0.0996
     30 C24         1.6637   -4.2449    2.5968 C.ar      1 <0>        -0.1208
     31 C25         2.6868   -3.7566    1.8101 C.ar      1 <0>        -0.0801
     32 H1         -1.3268    0.9150   -1.0801 H         1 <0>         0.1291
     33 H2          0.5564    2.4957   -0.9961 H         1 <0>         0.1314
     34 H3          2.8435    1.6719   -0.6195 H         1 <0>         0.1294
     35 H4          1.3464   -2.3396   -0.4177 H         1 <0>         0.1268
     36 H5         -0.9335   -1.4969   -0.7962 H         1 <0>         0.1310
     37 H6          8.7666   -0.9870   -0.0289 H         1 <0>         0.1351
     38 H7          8.4895   -2.2846   -1.2154 H         1 <0>         0.1350
     39 H8         12.3010   -1.2434   -3.2382 H         1 <0>         0.0883
     40 H9         12.5758    0.0563   -2.0392 H         1 <0>         0.0880
     41 H10        13.8731   -2.5455   -2.1879 H         1 <0>         0.0952
     42 H11        14.1481   -1.2449   -0.9881 H         1 <0>         0.0952
     43 H12         9.3216   -2.6094    0.2823 H         1 <0>         0.1364
     44 H13        10.0628   -4.2727    1.9283 H         1 <0>         0.1326
     45 H14        12.4383   -4.9056    2.0653 H         1 <0>         0.1301
     46 H15        14.0741   -3.8727    0.5410 H         1 <0>         0.1287
     47 H16         1.9034   -0.4583    1.9242 H         1 <0>         0.1245
     48 H17         0.0810   -1.3499    3.3153 H         1 <0>         0.1291
     49 H18        -0.0733   -3.7670    3.7469 H         1 <0>         0.1275
     50 H19         1.5909   -5.3051    2.7895 H         1 <0>         0.1296
     51 H20         3.4142   -4.4334    1.3869 H         1 <0>         0.1274
@<TRIPOS>BOND
     1    1    6 ar
     2    1    2 ar
     3    1   32 1
     4    2    3 ar
     5    2   33 1
     6    3    4 ar
     7    3   34 1
     8    4    5 ar
     9    4    7 1
    10    5    6 ar
    11    5   35 1
    12    6   36 1
    13    7   12 ar
    14    7    8 ar
    15    8    9 ar
    16    8   26 1
    17    9   10 ar
    18   10   11 ar
    19   11   12 ar
    20   11   13 1
    21   13   14 1
    22   14   15 1
    23   14   37 1
    24   14   38 1
    25   15   16 2
    26   15   17 am
    27   17   21 1
    28   17   18 1
    29   18   19 1
    30   18   39 1
    31   18   40 1
    32   19   20 1
    33   19   41 1
    34   19   42 1
    35   20   25 ar
    36   20   21 ar
    37   21   22 ar
    38   22   23 ar
    39   22   43 1
    40   23   24 ar
    41   23   44 1
    42   24   25 ar
    43   24   45 1
    44   25   46 1
    45   26   31 ar
    46   26   27 ar
    47   27   28 ar
    48   27   47 1
    49   28   29 ar
    50   28   48 1
    51   29   30 ar
    52   29   49 1
    53   30   31 ar
    54   30   50 1
    55   31   51 1
@<TRIPOS>MOLECULE
ZINC34169081
   84    88     0     0     0
SMALL
USER_CHARGES

@<TRIPOS>ATOM
      1 C1         -1.0579    1.5685    0.5011 C.3       1 <0>        -0.1475
      2 C2         -0.7226    0.1104    0.3212 C.2       1 <0>         0.4546
      3 O1         -0.7022   -0.6273    1.2779 O.2       1 <0>        -0.5129
      4 O2         -0.4465   -0.3689   -0.9018 O.3       1 <0>        -0.3444
      5 C3         -0.1362   -1.7651   -0.9989 C.3       1 <0>         0.1022
      6 H1          0.3337   -2.0784   -0.0599 H         1 <0>         0.0790
      7 C4         -1.4239   -2.5527   -1.1996 C.3       1 <0>        -0.1316
      8 C5         -1.1115   -4.0352   -1.3821 C.3       1 <0>        -0.1161
      9 C6         -0.2752   -4.2293   -2.6605 C.3       1 <0>        -0.0233
     10 C7          1.0160   -3.4306   -2.5118 C.3       1 <0>        -0.0605
     11 H2          1.5704   -3.9114   -1.6657 H         1 <0>         0.0620
     12 C8          0.8575   -1.9749   -2.1411 C.3       1 <0>        -0.0395
     13 C9          2.2252   -1.4597   -1.6239 C.3       1 <0>        -0.1504
     14 C10         0.4743   -1.0974   -3.3329 C.3       1 <0>        -0.1377
     15 C11         1.8942   -3.6408   -3.7444 C.3       1 <0>        -0.1125
     16 C12         2.3434   -5.1107   -3.7549 C.3       1 <0>        -0.1084
     17 C13         1.1410   -6.0402   -3.8125 C.3       1 <0>        -0.0235
     18 C14         0.0954   -5.7067   -2.7597 C.3       1 <0>        -0.1127
     19 H3          0.4997   -5.9795   -1.7601 H         1 <0>         0.0972
     20 C15        -1.1069   -6.5902   -2.9986 C.2       1 <0>         0.4023
     21 O3         -2.2535   -6.1981   -2.9053 O.2       1 <0>        -0.4590
     22 C16        -0.8375   -7.9956   -3.3316 C.2       1 <0>        -0.2642
     23 C17         0.3966   -8.4208   -3.6305 C.2       1 <0>         0.0093
     24 C18         1.5818   -7.5047   -3.6576 C.3       1 <0>        -0.0133
     25 C19         2.5849   -7.8659   -4.7445 C.3       1 <0>        -0.1049
     26 C20         2.7681   -9.3730   -4.9020 C.3       1 <0>        -0.1075
     27 C21         1.4337  -10.0580   -5.1742 C.3       1 <0>        -0.0468
     28 C22         0.5316   -9.8969   -3.9534 C.3       1 <0>        -0.0430
     29 H4         -0.4644  -10.2930   -4.1903 H         1 <0>         0.0890
     30 C23         1.1081  -10.6368   -2.7525 C.3       1 <0>        -0.0725
     31 C24         1.3197  -12.1187   -3.0592 C.3       1 <0>        -0.1303
     32 C25         2.2192  -12.2757   -4.2834 C.3       1 <0>        -0.0834
     33 C26         1.6426  -11.5391   -5.4850 C.3       1 <0>        -0.1002
     34 C27         2.0111  -12.7749   -1.8535 C.3       1 <0>        -0.1228
     35 C28        -0.0024  -12.8013   -3.2854 C.2       1 <0>         0.5073
     36 O4         -0.0734  -13.7587   -4.0370 O.co2     1 <0>        -0.6990
     37 O5         -1.0024  -12.3970   -2.7170 O.co2     1 <0>        -0.6978
     38 C29         0.7547   -9.4130   -6.3885 C.3       1 <0>        -0.1469
     39 C30         2.3007   -7.6330   -2.3083 C.3       1 <0>        -0.1541
     40 C31         0.5127   -5.9326   -5.2111 C.3       1 <0>        -0.1685
     41 C32        -1.1116   -3.7666   -3.8471 C.3       1 <0>        -0.1575
     42 H5         -0.1431    2.1316    0.6863 H         1 <0>         0.1025
     43 H6         -1.5396    1.9446   -0.4015 H         1 <0>         0.0932
     44 H7         -1.7336    1.6841    1.3486 H         1 <0>         0.1005
     45 H8         -2.0485   -2.4388   -0.3001 H         1 <0>         0.0607
     46 H9         -1.9884   -2.1593   -2.0385 H         1 <0>         0.0785
     47 H10        -0.5408   -4.3997   -0.5286 H         1 <0>         0.0590
     48 H11        -2.0386   -4.5976   -1.4709 H         1 <0>         0.0891
     49 H12         2.5171   -2.0279   -0.7407 H         1 <0>         0.0520
     50 H13         2.9784   -1.5849   -2.4018 H         1 <0>         0.0620
     51 H14         2.1417   -0.4040   -1.3655 H         1 <0>         0.0555
     52 H15         0.5887   -0.0476   -3.0629 H         1 <0>         0.0591
     53 H16         1.1234   -1.3282   -4.1776 H         1 <0>         0.0574
     54 H17        -0.5625   -1.2909   -3.6080 H         1 <0>         0.0606
     55 H18         1.3672   -3.4049   -4.6592 H         1 <0>         0.0717
     56 H19         2.7884   -3.0163   -3.6800 H         1 <0>         0.0637
     57 H20         2.9782   -5.2737   -4.6304 H         1 <0>         0.0692
     58 H21         2.9375   -5.2782   -2.8571 H         1 <0>         0.0686
     59 H22        -1.6530   -8.7068   -3.3348 H         1 <0>         0.1329
     60 H23         2.3596   -7.4271   -5.7078 H         1 <0>         0.0730
     61 H24         3.5678   -7.4491   -4.4442 H         1 <0>         0.0567
     62 H25         3.4442   -9.5622   -5.7445 H         1 <0>         0.0584
     63 H26         3.2220   -9.7871   -4.0017 H         1 <0>         0.0679
     64 H27         2.0740  -10.2084   -2.4753 H         1 <0>         0.0471
     65 H28         0.4280  -10.5404   -1.9023 H         1 <0>         0.0634
     66 H29         3.2130  -11.8825   -4.0555 H         1 <0>         0.0389
     67 H30         2.3163  -13.3391   -4.5230 H         1 <0>         0.0615
     68 H31         0.6917  -11.9825   -5.7814 H         1 <0>         0.0700
     69 H32         2.3362  -11.6264   -6.3277 H         1 <0>         0.0475
     70 H33         1.3823  -12.6649   -0.9699 H         1 <0>         0.0481
     71 H34         2.1692  -13.8339   -2.0573 H         1 <0>         0.0487
     72 H35         2.9720  -12.2912   -1.6780 H         1 <0>         0.0383
     73 H36         1.3976   -9.5177   -7.2624 H         1 <0>         0.0498
     74 H37        -0.1982   -9.9075   -6.5771 H         1 <0>         0.0537
     75 H38         0.5820   -8.3554   -6.1890 H         1 <0>         0.0571
     76 H39         1.5901   -7.4596   -1.5001 H         1 <0>         0.0562
     77 H40         2.7208   -8.6343   -2.2142 H         1 <0>         0.0692
     78 H41         3.1018   -6.8960   -2.2520 H         1 <0>         0.0646
     79 H42         1.1974   -6.3490   -5.9500 H         1 <0>         0.0668
     80 H43        -0.4253   -6.4874   -5.2317 H         1 <0>         0.0589
     81 H44         0.3205   -4.8852   -5.4435 H         1 <0>         0.0657
     82 H45        -1.5401   -2.7881   -3.6301 H         1 <0>         0.0602
     83 H46        -0.4796   -3.6983   -4.7325 H         1 <0>         0.0605
     84 H47        -1.9136   -4.4825   -4.0275 H         1 <0>         0.0713
@<TRIPOS>BOND
     1    1    2 1
     2    1   42 1
     3    1   43 1
     4    1   44 1
     5    2    3 2
     6    2    4 1
     7    4    5 1
     8    5    6 1
     9    5   12 1
    10    5    7 1
    11    7    8 1
    12    7   45 1
    13    7   46 1
    14    8    9 1
    15    8   47 1
    16    8   48 1
    17    9   18 1
    18    9   10 1
    19    9   41 1
    20   10   11 1
    21   10   12 1
    22   10   15 1
    23   12   13 1
    24   12   14 1
    25   13   49 1
    26   13   50 1
    27   13   51 1
    28   14   52 1
    29   14   53 1
    30   14   54 1
    31   15   16 1
    32   15   55 1
    33   15   56 1
    34   16   17 1
    35   16   57 1
    36   16   58 1
    37   17   24 1
    38   17   18 1
    39   17   40 1
    40   18   19 1
    41   18   20 1
    42   20   21 2
    43   20   22 1
    44   22   23 2
    45   22   59 1
    46   23   28 1
    47   23   24 1
    48   24   25 1
    49   24   39 1
    50   25   26 1
    51   25   60 1
    52   25   61 1
    53   26   27 1
    54   26   62 1
    55   26   63 1
    56   27   33 1
    57   27   28 1
    58   27   38 1
    59   28   29 1
    60   28   30 1
    61   30   31 1
    62   30   64 1
    63   30   65 1
    64   31   32 1
    65   31   34 1
    66   31   35 1
    67   32   33 1
    68   32   66 1
    69   32   67 1
    70   33   68 1
    71   33   69 1
    72   34   70 1
    73   34   71 1
    74   34   72 1
    75   35   36 2
    76   35   37 1
    77   38   73 1
    78   38   74 1
    79   38   75 1
    80   39   76 1
    81   39   77 1
    82   39   78 1
    83   40   79 1
    84   40   80 1
    85   40   81 1
    86   41   82 1
    87   41   83 1
    88   41   84 1
@<TRIPOS>MOLECULE
ZINC04782861
   76    79     0     0     0
SMALL
USER_CHARGES
4-(3-acetoxy-4,4,10,13,14-pentamethyl-7,11-dioxo-2,3,5,6,12,15,16,17-octahydro-1H-cyclopenta[a]phenanthren-17-yl)pentanoic acid
@<TRIPOS>ATOM
      1 C1          1.6467    3.6223    0.9552 C.3       1 <0>        -0.1537
      2 C2          0.3124    4.0571    0.3456 C.3       1 <0>        -0.0911
      3 H1          0.2039    3.6142   -0.6445 H         1 <0>         0.0741
      4 C3          0.2780    5.5822    0.2287 C.3       1 <0>        -0.0931
      5 C4          1.3461    6.0418   -0.7656 C.3       1 <0>        -0.1573
      6 C5          1.3121    7.5440   -0.8807 C.2       1 <0>         0.4567
      7 O1          0.5153    8.1816   -0.2338 O.co2     1 <0>        -0.6425
      8 C6         -0.8355    3.5880    1.2430 C.3       1 <0>        -0.0670
      9 H2         -0.6975    3.9566    2.2560 H         1 <0>         0.0770
     10 C7         -2.1929    4.0600    0.6642 C.3       1 <0>        -0.1223
     11 C8         -3.0937    2.7998    0.5561 C.3       1 <0>        -0.0961
     12 C9         -2.4175    1.7986    1.4981 C.3       1 <0>        -0.0312
     13 C10        -0.9188    2.0607    1.2307 C.3       1 <0>        -0.0473
     14 C11        -0.1117    1.3297    2.2821 C.3       1 <0>        -0.1450
     15 C12        -0.4798   -0.1435    2.1799 C.2       1 <0>         0.3958
     16 O2          0.3417   -0.9562    2.5560 O.2       1 <0>        -0.4415
     17 C13        -1.7851   -0.5664    1.6415 C.2       1 <0>        -0.1115
     18 C14        -2.7113    0.3536    1.2735 C.2       1 <0>        -0.0897
     19 C15        -3.9985   -0.0410    0.6786 C.2       1 <0>         0.3849
     20 O3         -4.8260    0.7914    0.3703 O.2       1 <0>        -0.4262
     21 C16        -4.2874   -1.5133    0.4541 C.3       1 <0>        -0.1496
     22 C17        -3.5836   -2.2652    1.5880 C.3       1 <0>        -0.0594
     23 H3         -3.9098   -1.7591    2.5317 H         1 <0>         0.0716
     24 C18        -2.0854   -2.0458    1.4978 C.3       1 <0>        -0.0075
     25 C19        -1.3528   -2.8429    2.5715 C.3       1 <0>        -0.1092
     26 C20        -1.7380   -4.3214    2.4903 C.3       1 <0>        -0.1348
     27 C21        -3.2335   -4.4833    2.7283 C.3       1 <0>         0.1022
     28 H4         -3.4824   -4.1181    3.7288 H         1 <0>         0.0846
     29 C22        -4.0477   -3.7010    1.6961 C.3       1 <0>        -0.0412
     30 C23        -4.0242   -4.4304    0.3530 C.3       1 <0>        -0.1423
     31 C24        -5.5130   -3.7021    2.1934 C.3       1 <0>        -0.1523
     32 O4         -3.5864   -5.8920    2.6458 O.3       1 <0>        -0.3481
     33 C25        -3.5346   -6.6009    3.7844 C.2       1 <0>         0.4565
     34 O5         -3.2059   -6.0642    4.8158 O.2       1 <0>        -0.5137
     35 C26        -3.8866   -8.0662    3.7764 C.3       1 <0>        -0.1478
     36 C27        -1.5394   -2.4614    0.1292 C.3       1 <0>        -0.1500
     37 C28        -0.5245    1.5606   -0.1655 C.3       1 <0>        -0.1530
     38 C29        -2.7887    2.1625    2.9401 C.3       1 <0>        -0.1380
     39 H5          1.6975    2.5338    0.9797 H         1 <0>         0.0504
     40 H6          2.4662    4.0108    0.3505 H         1 <0>         0.0599
     41 H7          1.7270    4.0127    1.9697 H         1 <0>         0.0522
     42 H8         -0.7047    5.8976   -0.1220 H         1 <0>         0.0629
     43 H9          0.4750    6.0259    1.2046 H         1 <0>         0.0577
     44 H10         2.3288    5.7264   -0.4148 H         1 <0>         0.0630
     45 H11         1.1490    5.5981   -1.7415 H         1 <0>         0.0592
     46 H12        -2.0441    4.4980   -0.3243 H         1 <0>         0.0741
     47 H13        -2.6494    4.7946    1.3276 H         1 <0>         0.0675
     48 H14        -3.1286    2.4246   -0.4636 H         1 <0>         0.0666
     49 H15        -4.1043    3.0251    0.9092 H         1 <0>         0.0726
     50 H16         0.8636    1.4480    2.0955 H         1 <0>         0.0932
     51 H17        -0.2908    1.7080    3.2831 H         1 <0>         0.1070
     52 H18        -3.9392   -1.7884   -0.4420 H         1 <0>         0.1008
     53 H19        -5.3695   -1.6674    0.5081 H         1 <0>         0.1026
     54 H20        -0.2736   -2.7725    2.4121 H         1 <0>         0.1053
     55 H21        -1.6025   -2.4521    3.5574 H         1 <0>         0.0643
     56 H22        -1.4553   -4.7402    1.5292 H         1 <0>         0.0786
     57 H23        -1.1939   -4.8669    3.2722 H         1 <0>         0.0677
     58 H24        -4.5513   -5.3799    0.4459 H         1 <0>         0.0659
     59 H25        -4.5132   -3.8157   -0.4028 H         1 <0>         0.0595
     60 H26        -2.9913   -4.6156    0.0582 H         1 <0>         0.0627
     61 H27        -5.5651   -3.2244    3.1718 H         1 <0>         0.0547
     62 H28        -6.1367   -3.1536    1.4876 H         1 <0>         0.0635
     63 H29        -5.8695   -4.7293    2.2713 H         1 <0>         0.0627
     64 H30        -4.1557   -8.3697    2.7647 H         1 <0>         0.0905
     65 H31        -3.0287   -8.6478    4.1141 H         1 <0>         0.1036
     66 H32        -4.7298   -8.2410    4.4446 H         1 <0>         0.1034
     67 H33        -0.4889   -2.1800    0.0564 H         1 <0>         0.0624
     68 H34        -1.6354   -3.5408    0.0123 H         1 <0>         0.0727
     69 H35        -2.1053   -1.9592   -0.6555 H         1 <0>         0.0597
     70 H36        -0.7338    0.4936   -0.2417 H         1 <0>         0.0476
     71 H37         0.5394    1.7346   -0.3267 H         1 <0>         0.0707
     72 H38        -1.0990    2.0984   -0.9197 H         1 <0>         0.0685
     73 H39        -2.5818    3.2186    3.1130 H         1 <0>         0.0739
     74 H40        -3.8489    1.9686    3.1023 H         1 <0>         0.0582
     75 H41        -2.1992    1.5591    3.6304 H         1 <0>         0.0538
     76 O6          2.1671    8.1737   -1.7019 O.co2     1 <0>        -0.7806
@<TRIPOS>BOND
     1    1    2 1
     2    1   39 1
     3    1   40 1
     4    1   41 1
     5    2    3 1
     6    2    4 1
     7    2    8 1
     8    4    5 1
     9    4   42 1
    10    4   43 1
    11    5    6 1
    12    5   44 1
    13    5   45 1
    14    6    7 2
    15    6   76 1
    16    8    9 1
    17    8   13 1
    18    8   10 1
    19   10   11 1
    20   10   46 1
    21   10   47 1
    22   11   12 1
    23   11   48 1
    24   11   49 1
    25   12   18 1
    26   12   13 1
    27   12   38 1
    28   13   14 1
    29   13   37 1
    30   14   15 1
    31   14   50 1
    32   14   51 1
    33   15   16 2
    34   15   17 1
    35   17   24 1
    36   17   18 2
    37   18   19 1
    38   19   20 2
    39   19   21 1
    40   21   22 1
    41   21   52 1
    42   21   53 1
    43   22   23 1
    44   22   29 1
    45   22   24 1
    46   24   25 1
    47   24   36 1
    48   25   26 1
    49   25   54 1
    50   25   55 1
    51   26   27 1
    52   26   56 1
    53   26   57 1
    54   27   28 1
    55   27   29 1
    56   27   32 1
    57   29   30 1
    58   29   31 1
    59   30   58 1
    60   30   59 1
    61   30   60 1
    62   31   61 1
    63   31   62 1
    64   31   63 1
    65   32   33 1
    66   33   34 2
    67   33   35 1
    68   35   64 1
    69   35   65 1
    70   35   66 1
    71   36   67 1
    72   36   68 1
    73   36   69 1
    74   37   70 1
    75   37   71 1
    76   37   72 1
    77   38   73 1
    78   38   74 1
    79   38   75 1
@<TRIPOS>MOLECULE
ZINC19203131
   79    83     0     0     0
SMALL
USER_CHARGES

@<TRIPOS>ATOM
      1 C1          0.4728    1.2638   -2.5373 C.3       1 <0>        -0.1453
      2 C2          0.5659   -0.2603   -2.5689 C.3       1 <0>        -0.0436
      3 C3         -0.7274   -0.8397   -3.1412 C.3       1 <0>        -0.1021
      4 C4         -1.9076   -0.5242   -2.2273 C.3       1 <0>        -0.0883
      5 C5         -1.6737   -1.0494   -0.8135 C.3       1 <0>        -0.1254
      6 C6         -0.3635   -0.5044   -0.2441 C.3       1 <0>        -0.0766
      7 C7          0.8019   -0.8177   -1.1676 C.3       1 <0>        -0.0495
      8 H1          0.9219   -1.9079   -1.2407 H         1 <0>         0.0798
      9 C8          2.0968   -0.2452   -0.6259 C.2       1 <0>        -0.0068
     10 C9          2.0888    0.2608    0.6067 C.2       1 <0>        -0.2597
     11 C10         3.3159    0.8078    1.2119 C.2       1 <0>         0.3996
     12 O1          3.2472    1.4848    2.2154 O.2       1 <0>        -0.4514
     13 C11         4.6120    0.4416    0.5262 C.3       1 <0>        -0.1125
     14 H2          4.7766   -0.6430    0.7099 H         1 <0>         0.0950
     15 C12         5.8177    1.1540    1.1304 C.3       1 <0>        -0.0230
     16 C13         6.0278    0.6085    2.5540 C.3       1 <0>        -0.1166
     17 C14         7.2812    1.2327    3.1599 C.3       1 <0>        -0.1468
     18 C15         8.5107    0.8346    2.3542 C.3       1 <0>         0.1188
     19 H3          8.6616   -0.2474    2.4399 H         1 <0>         0.0474
     20 C16         8.3805    1.1993    0.8761 C.3       1 <0>        -0.0368
     21 C17         7.0445    0.7997    0.2951 C.3       1 <0>        -0.0597
     22 H4          7.0507   -0.3175    0.2270 H         1 <0>         0.0593
     23 C18         6.8452    1.2956   -1.1367 C.3       1 <0>        -0.1137
     24 C19         5.7031    0.4800   -1.7608 C.3       1 <0>        -0.1071
     25 C20         4.4163    0.6494   -0.9686 C.3       1 <0>        -0.0216
     26 C21         3.3288   -0.2993   -1.4852 C.3       1 <0>        -0.0139
     27 C22         3.0390   -0.0304   -2.9542 C.3       1 <0>        -0.1046
     28 C23         1.7502   -0.6848   -3.4418 C.3       1 <0>        -0.1101
     29 C24         3.8613   -1.7371   -1.3874 C.3       1 <0>        -0.1491
     30 C25         3.8884    2.0744   -1.2110 C.3       1 <0>        -0.1707
     31 C26         9.4833    0.4010    0.1348 C.3       1 <0>        -0.1463
     32 C27         8.6956    2.6818    0.6756 C.3       1 <0>        -0.1327
     33 O2          9.6631    1.4926    2.8961 O.3       1 <0>        -0.5663
     34 C28         5.6034    2.6605    1.2285 C.3       1 <0>        -0.1601
     35 C29        -1.6538   -2.5782   -0.8159 C.3       1 <0>        -0.1185
     36 C30        -2.8131   -0.5861    0.0688 C.2       1 <0>         0.4997
     37 O3         -3.9583   -0.9123   -0.1929 O.co2     1 <0>        -0.7001
     38 O4         -2.5855    0.1133    1.0412 O.co2     1 <0>        -0.6966
     39 H5          1.4030    1.6767   -2.1470 H         1 <0>         0.0565
     40 H6          0.3044    1.6385   -3.5470 H         1 <0>         0.0486
     41 H7         -0.3555    1.5640   -1.8956 H         1 <0>         0.0641
     42 H8         -0.9070   -0.3913   -4.1254 H         1 <0>         0.0521
     43 H9         -0.6208   -1.9161   -3.2703 H         1 <0>         0.0580
     44 H10        -2.0885    0.5497   -2.1934 H         1 <0>         0.0539
     45 H11        -2.8078   -1.0027   -2.6337 H         1 <0>         0.0579
     46 H12        -0.4517    0.5698   -0.0832 H         1 <0>         0.0694
     47 H13        -0.1860   -0.9801    0.7303 H         1 <0>         0.0545
     48 H14         1.1756    0.2770    1.1841 H         1 <0>         0.1443
     49 H15         5.1612    0.8568    3.1640 H         1 <0>         0.0820
     50 H16         6.1422   -0.4741    2.5041 H         1 <0>         0.0567
     51 H17         7.1963    2.3129    3.2228 H         1 <0>         0.0774
     52 H18         7.3962    0.8516    4.1861 H         1 <0>         0.0560
     53 H19         6.6122    2.3509   -1.1698 H         1 <0>         0.0709
     54 H20         7.7484    1.1145   -1.7252 H         1 <0>         0.0629
     55 H21         5.5508    0.8257   -2.7879 H         1 <0>         0.0676
     56 H22         6.0226   -0.5618   -1.7899 H         1 <0>         0.0668
     57 H23         3.0207    1.0230   -3.2073 H         1 <0>         0.0738
     58 H24         3.8698   -0.4674   -3.5442 H         1 <0>         0.0569
     59 H25         1.8467   -1.7704   -3.4156 H         1 <0>         0.0606
     60 H26         1.5557   -0.3753   -4.4732 H         1 <0>         0.0615
     61 H27         3.1022   -2.4310   -1.7484 H         1 <0>         0.0616
     62 H28         4.7605   -1.8337   -1.9958 H         1 <0>         0.0639
     63 H29         4.0989   -1.9667   -0.3487 H         1 <0>         0.0560
     64 H30         4.6488    2.7983   -0.9179 H         1 <0>         0.0676
     65 H31         3.6551    2.2005   -2.2683 H         1 <0>         0.0645
     66 H32         2.9874    2.2339   -0.6186 H         1 <0>         0.0600
     67 H33         9.3261   -0.6663    0.2905 H         1 <0>         0.0486
     68 H34         9.4381    0.6231   -0.9314 H         1 <0>         0.0555
     69 H35        10.4611    0.6848    0.5239 H         1 <0>         0.0593
     70 H36         9.7493    2.8614    0.8889 H         1 <0>         0.0584
     71 H37         8.4806    2.9627   -0.3554 H         1 <0>         0.0517
     72 H38         8.0815    3.2782    1.3503 H         1 <0>         0.0569
     73 H39         9.8421    1.2742    3.8210 H         1 <0>         0.3732
     74 H40         4.6128    2.8608    1.6367 H         1 <0>         0.0742
     75 H41         6.3602    3.0933    1.8827 H         1 <0>         0.0601
     76 H42         5.6841    3.1044    0.2362 H         1 <0>         0.0592
     77 H43        -0.8518   -2.9301   -1.4649 H         1 <0>         0.0380
     78 H44        -1.4862   -2.9410    0.1982 H         1 <0>         0.0413
     79 H45        -2.6091   -2.9534   -1.1829 H         1 <0>         0.0539
@<TRIPOS>BOND
     1    1    2 1
     2    1   39 1
     3    1   40 1
     4    1   41 1
     5    2    7 1
     6    2   28 1
     7    2    3 1
     8    3    4 1
     9    3   42 1
    10    3   43 1
    11    4    5 1
    12    4   44 1
    13    4   45 1
    14    5    6 1
    15    5   35 1
    16    5   36 1
    17    6    7 1
    18    6   46 1
    19    6   47 1
    20    7    8 1
    21    7    9 1
    22    9   26 1
    23    9   10 2
    24   10   11 1
    25   10   48 1
    26   11   12 2
    27   11   13 1
    28   13   14 1
    29   13   25 1
    30   13   15 1
    31   15   21 1
    32   15   16 1
    33   15   34 1
    34   16   17 1
    35   16   49 1
    36   16   50 1
    37   17   18 1
    38   17   51 1
    39   17   52 1
    40   18   19 1
    41   18   20 1
    42   18   33 1
    43   20   21 1
    44   20   31 1
    45   20   32 1
    46   21   22 1
    47   21   23 1
    48   23   24 1
    49   23   53 1
    50   23   54 1
    51   24   25 1
    52   24   55 1
    53   24   56 1
    54   25   26 1
    55   25   30 1
    56   26   27 1
    57   26   29 1
    58   27   28 1
    59   27   57 1
    60   27   58 1
    61   28   59 1
    62   28   60 1
    63   29   61 1
    64   29   62 1
    65   29   63 1
    66   30   64 1
    67   30   65 1
    68   30   66 1
    69   31   67 1
    70   31   68 1
    71   31   69 1
    72   32   70 1
    73   32   71 1
    74   32   72 1
    75   33   73 1
    76   34   74 1
    77   34   75 1
    78   34   76 1
    79   35   77 1
    80   35   78 1
    81   35   79 1
    82   36   37 2
    83   36   38 1
@<TRIPOS>MOLECULE
ZINC19203131
   79    83     0     0     0
SMALL
USER_CHARGES

@<TRIPOS>ATOM
      1 C1          0.6456    1.7280   -2.5152 C.3       1 <0>        -0.1468
      2 C2          0.6518    0.1970   -2.6000 C.3       1 <0>        -0.0447
      3 C3         -0.6848   -0.2429   -3.1979 C.3       1 <0>        -0.1006
      4 C4         -0.7983   -1.7627   -3.2148 C.3       1 <0>        -0.0867
      5 C5         -0.6469   -2.3346   -1.8057 C.3       1 <0>        -0.1308
      6 C6          0.6905   -1.8984   -1.2096 C.3       1 <0>        -0.0666
      7 C7          0.8269   -0.3802   -1.1995 C.3       1 <0>        -0.0489
      8 H1          0.0653    0.0529   -0.5359 H         1 <0>         0.1118
      9 C8          2.1956   -0.0004   -0.6658 C.2       1 <0>         0.0093
     10 C9          2.2431    0.3732    0.6187 C.2       1 <0>        -0.2654
     11 C10         3.5050    0.7729    1.2574 C.2       1 <0>         0.4015
     12 O1          3.4908    1.2728    2.3648 O.2       1 <0>        -0.4605
     13 C11         4.7755    0.5041    0.4842 C.3       1 <0>        -0.1130
     14 H2          4.9710   -0.5882    0.5585 H         1 <0>         0.0967
     15 C12         5.9968    1.1756    1.1081 C.3       1 <0>        -0.0223
     16 C13         6.2668    0.5019    2.4653 C.3       1 <0>        -0.1186
     17 C14         7.5457    1.0708    3.0731 C.3       1 <0>        -0.1465
     18 C15         8.7380    0.7505    2.1811 C.3       1 <0>         0.1179
     19 H3          8.8771   -0.3354    2.1410 H         1 <0>         0.0474
     20 C16         8.5467    1.2746    0.7575 C.3       1 <0>        -0.0367
     21 C17         7.1909    0.9192    0.1935 C.3       1 <0>        -0.0601
     22 H4          7.2045   -0.1851    0.0186 H         1 <0>         0.0594
     23 C18         6.9293    1.5468   -1.1745 C.3       1 <0>        -0.1134
     24 C19         5.7696    0.7824   -1.8319 C.3       1 <0>        -0.1067
     25 C20         4.5187    0.8570   -0.9725 C.3       1 <0>        -0.0239
     26 C21         3.4148   -0.0527   -1.5342 C.3       1 <0>        -0.0148
     27 C22         3.1328    0.2991   -2.9871 C.3       1 <0>        -0.1033
     28 C23         1.8055   -0.2685   -3.4816 C.3       1 <0>        -0.1081
     29 C24         3.9437   -1.4937   -1.5089 C.3       1 <0>        -0.1536
     30 C25         3.9623    2.2877   -1.0594 C.3       1 <0>        -0.1702
     31 C26         9.6271    0.5811   -0.1099 C.3       1 <0>        -0.1461
     32 C27         8.8355    2.7751    0.7129 C.3       1 <0>        -0.1331
     33 O2          9.9195    1.3359    2.7401 O.3       1 <0>        -0.5661
     34 C28         5.7635    2.6614    1.3574 C.3       1 <0>        -0.1571
     35 C29        -0.6693   -3.8687   -1.8928 C.3       1 <0>        -0.1216
     36 C30        -1.7831   -1.8866   -0.9274 C.2       1 <0>         0.5075
     37 O3         -2.9311   -2.1716   -1.2230 O.co2     1 <0>        -0.7014
     38 O4         -1.5560   -1.2384    0.0799 O.co2     1 <0>        -0.6930
     39 H5          1.5894    2.0723   -2.0923 H         1 <0>         0.0573
     40 H6          0.5207    2.1467   -3.5138 H         1 <0>         0.0482
     41 H7         -0.1776    2.0534   -1.8792 H         1 <0>         0.0546
     42 H8         -1.5018    0.1991   -2.6316 H         1 <0>         0.0653
     43 H9         -0.7422    0.1284   -4.2285 H         1 <0>         0.0478
     44 H10        -1.7739   -2.0497   -3.6162 H         1 <0>         0.0592
     45 H11        -0.0202   -2.1807   -3.8586 H         1 <0>         0.0444
     46 H12         0.7656   -2.2770   -0.1853 H         1 <0>         0.0555
     47 H13         1.4905   -2.3449   -1.8038 H         1 <0>         0.0434
     48 H14         1.3291    0.3819    1.1968 H         1 <0>         0.1347
     49 H15         5.4279    0.6968    3.1338 H         1 <0>         0.0852
     50 H16         6.3728   -0.5717    2.3148 H         1 <0>         0.0565
     51 H17         7.4651    2.1408    3.2332 H         1 <0>         0.0764
     52 H18         7.7039    0.5997    4.0543 H         1 <0>         0.0559
     53 H19         6.6826    2.5986   -1.0936 H         1 <0>         0.0701
     54 H20         7.8089    1.4405   -1.8139 H         1 <0>         0.0628
     55 H21         5.5698    1.2324   -2.8096 H         1 <0>         0.0677
     56 H22         6.0904   -0.2480   -1.9838 H         1 <0>         0.0670
     57 H23         3.1728    1.3627   -3.1865 H         1 <0>         0.0715
     58 H24         3.9326   -0.1572   -3.6049 H         1 <0>         0.0561
     59 H25         1.8481   -1.3584   -3.4851 H         1 <0>         0.0668
     60 H26         1.6326    0.0715   -4.5080 H         1 <0>         0.0575
     61 H27         3.1774   -2.1687   -1.8900 H         1 <0>         0.0693
     62 H28         4.8340   -1.5650   -2.1336 H         1 <0>         0.0628
     63 H29         4.1952   -1.7705   -0.4850 H         1 <0>         0.0558
     64 H30         4.7333    2.9963   -0.7568 H         1 <0>         0.0655
     65 H31         3.6583    2.4976   -2.0849 H         1 <0>         0.0648
     66 H32         3.1011    2.3834   -0.3983 H         1 <0>         0.0605
     67 H33         9.4879   -0.4992   -0.0686 H         1 <0>         0.0487
     68 H34         9.5371    0.9199   -1.1420 H         1 <0>         0.0555
     69 H35        10.6165    0.8347    0.2707 H         1 <0>         0.0594
     70 H36         9.8913    2.9483    0.9212 H         1 <0>         0.0585
     71 H37         8.5919    3.1627   -0.2763 H         1 <0>         0.0516
     72 H38         8.2291    3.2842    1.4620 H         1 <0>         0.0568
     73 H39        10.1330    1.0190    3.6284 H         1 <0>         0.3731
     74 H40         4.7879    2.8030    1.8225 H         1 <0>         0.0701
     75 H41         6.5404    3.0452    2.0186 H         1 <0>         0.0597
     76 H42         5.7954    3.1983    0.4094 H         1 <0>         0.0596
     77 H43         0.1537   -4.2090   -2.5213 H         1 <0>         0.0357
     78 H44        -0.5621   -4.2909   -0.8937 H         1 <0>         0.0427
     79 H45        -1.6154   -4.1942   -2.3252 H         1 <0>         0.0551
@<TRIPOS>BOND
     1    1    2 1
     2    1   39 1
     3    1   40 1
     4    1   41 1
     5    2    7 1
     6    2   28 1
     7    2    3 1
     8    3    4 1
     9    3   42 1
    10    3   43 1
    11    4    5 1
    12    4   44 1
    13    4   45 1
    14    5    6 1
    15    5   35 1
    16    5   36 1
    17    6    7 1
    18    6   46 1
    19    6   47 1
    20    7    8 1
    21    7    9 1
    22    9   26 1
    23    9   10 2
    24   10   11 1
    25   10   48 1
    26   11   12 2
    27   11   13 1
    28   13   14 1
    29   13   25 1
    30   13   15 1
    31   15   21 1
    32   15   16 1
    33   15   34 1
    34   16   17 1
    35   16   49 1
    36   16   50 1
    37   17   18 1
    38   17   51 1
    39   17   52 1
    40   18   19 1
    41   18   20 1
    42   18   33 1
    43   20   21 1
    44   20   31 1
    45   20   32 1
    46   21   22 1
    47   21   23 1
    48   23   24 1
    49   23   53 1
    50   23   54 1
    51   24   25 1
    52   24   55 1
    53   24   56 1
    54   25   26 1
    55   25   30 1
    56   26   27 1
    57   26   29 1
    58   27   28 1
    59   27   57 1
    60   27   58 1
    61   28   59 1
    62   28   60 1
    63   29   61 1
    64   29   62 1
    65   29   63 1
    66   30   64 1
    67   30   65 1
    68   30   66 1
    69   31   67 1
    70   31   68 1
    71   31   69 1
    72   32   70 1
    73   32   71 1
    74   32   72 1
    75   33   73 1
    76   34   74 1
    77   34   75 1
    78   34   76 1
    79   35   77 1
    80   35   78 1
    81   35   79 1
    82   36   37 2
    83   36   38 1
@<TRIPOS>MOLECULE
ZINC13370827
   81    85     0     0     0
SMALL
USER_CHARGES

@<TRIPOS>ATOM
      1 C1          0.9898    2.0312   -2.4999 C.3       1 <0>        -0.1471
      2 C2          0.9295    0.5003   -2.5907 C.3       1 <0>        -0.0443
      3 C3         -0.4157    0.1247   -3.2116 C.3       1 <0>        -0.1024
      4 C4         -0.6025   -1.3881   -3.2343 C.3       1 <0>        -0.0882
      5 C5         -0.5041   -1.9664   -1.8232 C.3       1 <0>        -0.1306
      6 C6          0.8437   -1.5973   -1.2053 C.3       1 <0>        -0.0649
      7 C7          1.0558   -0.0878   -1.1892 C.3       1 <0>        -0.0510
      8 H1          0.3078    0.3828   -0.5365 H         1 <0>         0.1140
      9 C8          2.4339    0.2223   -0.6339 C.2       1 <0>         0.0178
     10 C9          2.4842    0.5787    0.6553 C.2       1 <0>        -0.2721
     11 C10         3.7557    0.9099    1.3148 C.2       1 <0>         0.4039
     12 O1          3.7518    1.3870    2.4323 O.2       1 <0>        -0.4639
     13 C11         5.0222    0.6019    0.5494 C.3       1 <0>        -0.1140
     14 H2          5.1726   -0.4992    0.6128 H         1 <0>         0.1000
     15 C12         6.2640    1.2139    1.1926 C.3       1 <0>        -0.0244
     16 C13         6.4958    0.5096    2.5412 C.3       1 <0>        -0.1205
     17 C14         7.7970    1.0061    3.1652 C.3       1 <0>        -0.1380
     18 C15         8.9768    0.6404    2.2729 C.3       1 <0>         0.0371
     19 H3          9.0537   -0.4505    2.2080 H         1 <0>         0.1403
     20 C16         8.8197    1.2076    0.8616 C.3       1 <0>        -0.0581
     21 C17         7.4528    0.9201    0.2835 C.3       1 <0>        -0.0646
     22 H4          7.4197   -0.1833    0.0942 H         1 <0>         0.0745
     23 C18         7.2340    1.5733   -1.0795 C.3       1 <0>        -0.1144
     24 C19         6.0468    0.8705   -1.7554 C.3       1 <0>        -0.1089
     25 C20         4.7935    0.9833   -0.9041 C.3       1 <0>        -0.0251
     26 C21         3.6605    0.1249   -1.4877 C.3       1 <0>        -0.0154
     27 C22         3.4153    0.5001   -2.9411 C.3       1 <0>        -0.1042
     28 C23         2.0737   -0.0105   -3.4593 C.3       1 <0>        -0.1098
     29 C24         4.1256   -1.3374   -1.4687 C.3       1 <0>        -0.1538
     30 C25         4.2961    2.4360   -0.9779 C.3       1 <0>        -0.1719
     31 C26         9.8768    0.4904   -0.0148 C.3       1 <0>        -0.1683
     32 C27         9.1686    2.6953    0.8544 C.3       1 <0>        -0.1777
     33 N1         10.2193    1.1614    2.8660 N.4       1 <0>        -0.6402
     34 C28         6.0899    2.7035    1.4614 C.3       1 <0>        -0.1612
     35 C29        -0.5998   -3.4982   -1.9126 C.3       1 <0>        -0.1224
     36 C30        -1.6329   -1.4624   -0.9663 C.2       1 <0>         0.5071
     37 O2         -2.7878   -1.6911   -1.2832 O.co2     1 <0>        -0.6968
     38 O3         -1.3929   -0.8253    0.0451 O.co2     1 <0>        -0.6953
     39 H5          1.9408    2.3319   -2.0603 H         1 <0>         0.0541
     40 H6          0.9000    2.4582   -3.4988 H         1 <0>         0.0501
     41 H7          0.1714    2.3907   -1.8762 H         1 <0>         0.0562
     42 H8         -1.2193    0.6016   -2.6541 H         1 <0>         0.0666
     43 H9         -0.4415    0.5026   -4.2399 H         1 <0>         0.0499
     44 H10        -1.5855   -1.6252   -3.6514 H         1 <0>         0.0614
     45 H11         0.1617   -1.8431   -3.8677 H         1 <0>         0.0447
     46 H12         0.8834   -1.9803   -0.1819 H         1 <0>         0.0554
     47 H13         1.6311   -2.0804   -1.7877 H         1 <0>         0.0422
     48 H14         1.5646    0.6247    1.2238 H         1 <0>         0.1380
     49 H15         5.6640    0.7301    3.2087 H         1 <0>         0.1053
     50 H16         6.5548   -0.5657    2.3735 H         1 <0>         0.0702
     51 H17         7.7675    2.0763    3.3422 H         1 <0>         0.0917
     52 H18         7.9274    0.5115    4.1387 H         1 <0>         0.0839
     53 H19         7.0391    2.6338   -0.9911 H         1 <0>         0.0744
     54 H20         8.1135    1.4290   -1.7125 H         1 <0>         0.0661
     55 H21         5.8732    1.3456   -2.7270 H         1 <0>         0.0743
     56 H22         6.3246   -0.1691   -1.9249 H         1 <0>         0.0700
     57 H23         3.4997    1.5636   -3.1302 H         1 <0>         0.0720
     58 H24         4.2056    0.0197   -3.5515 H         1 <0>         0.0565
     59 H25         2.0721   -1.1007   -3.4715 H         1 <0>         0.0683
     60 H26         1.9298    0.3450   -4.4856 H         1 <0>         0.0604
     61 H27         3.3356   -1.9752   -1.8652 H         1 <0>         0.0733
     62 H28         5.0199   -1.4422   -2.0830 H         1 <0>         0.0625
     63 H29         4.3518   -1.6335   -0.4443 H         1 <0>         0.0542
     64 H30         5.0927    3.1093   -0.6613 H         1 <0>         0.0622
     65 H31         4.0084    2.6700   -2.0028 H         1 <0>         0.0691
     66 H32         3.4345    2.5588   -0.3216 H         1 <0>         0.0638
     67 H33         9.6914   -0.5837   -0.0017 H         1 <0>         0.0718
     68 H34         9.8100    0.8582   -1.0387 H         1 <0>         0.0844
     69 H35        10.8729    0.6920    0.3794 H         1 <0>         0.0508
     70 H36        10.2306    2.8205    1.0657 H         1 <0>         0.0530
     71 H37         8.9406    3.1173   -0.1244 H         1 <0>         0.0921
     72 H38         8.5834    3.2094    1.6169 H         1 <0>         0.0762
     73 H39        10.3509    0.7566    3.7808 H         1 <0>         0.4341
     74 H40        11.0010    0.9196    2.2756 H         1 <0>         0.4311
     75 H41         5.1176    2.8784    1.9219 H         1 <0>         0.0796
     76 H42         6.8770    3.0458    2.1332 H         1 <0>         0.0519
     77 H43         6.1507    3.2519    0.5213 H         1 <0>         0.0668
     78 H44         0.2167   -3.8780   -2.5269 H         1 <0>         0.0357
     79 H45        -0.5310   -3.9255   -0.9122 H         1 <0>         0.0429
     80 H46        -1.5528   -3.7771   -2.3621 H         1 <0>         0.0570
     81 H47        10.1577    2.1652    2.9481 H         1 <0>         0.4310
@<TRIPOS>BOND
     1    1    2 1
     2    1   39 1
     3    1   40 1
     4    1   41 1
     5    2    7 1
     6    2   28 1
     7    2    3 1
     8    3    4 1
     9    3   42 1
    10    3   43 1
    11    4    5 1
    12    4   44 1
    13    4   45 1
    14    5    6 1
    15    5   35 1
    16    5   36 1
    17    6    7 1
    18    6   46 1
    19    6   47 1
    20    7    8 1
    21    7    9 1
    22    9   26 1
    23    9   10 2
    24   10   11 1
    25   10   48 1
    26   11   12 2
    27   11   13 1
    28   13   14 1
    29   13   25 1
    30   13   15 1
    31   15   21 1
    32   15   16 1
    33   15   34 1
    34   16   17 1
    35   16   49 1
    36   16   50 1
    37   17   18 1
    38   17   51 1
    39   17   52 1
    40   18   19 1
    41   18   20 1
    42   18   33 1
    43   20   21 1
    44   20   31 1
    45   20   32 1
    46   21   22 1
    47   21   23 1
    48   23   24 1
    49   23   53 1
    50   23   54 1
    51   24   25 1
    52   24   55 1
    53   24   56 1
    54   25   26 1
    55   25   30 1
    56   26   27 1
    57   26   29 1
    58   27   28 1
    59   27   57 1
    60   27   58 1
    61   28   59 1
    62   28   60 1
    63   29   61 1
    64   29   62 1
    65   29   63 1
    66   30   64 1
    67   30   65 1
    68   30   66 1
    69   31   67 1
    70   31   68 1
    71   31   69 1
    72   32   70 1
    73   32   71 1
    74   32   72 1
    75   33   73 1
    76   33   74 1
    77   33   81 1
    78   34   75 1
    79   34   76 1
    80   34   77 1
    81   35   78 1
    82   35   79 1
    83   35   80 1
    84   36   37 2
    85   36   38 1
@<TRIPOS>MOLECULE
ZINC38557853
   77    81     0     0     0
SMALL
USER_CHARGES

@<TRIPOS>ATOM
      1 C1          0.6314    2.3512   -0.7504 C.3       1 <0>        -0.1462
      2 C2          0.5135    0.8226   -0.7939 C.3       1 <0>        -0.0452
      3 C3         -0.9672    0.4714   -0.9368 C.3       1 <0>        -0.1011
      4 C4         -1.1769   -1.0372   -0.8835 C.3       1 <0>        -0.0870
      5 C5         -0.6333   -1.6148    0.4229 C.3       1 <0>        -0.1305
      6 C6          0.8472   -1.2641    0.5667 C.3       1 <0>        -0.0666
      7 C7          1.0729    0.2411    0.5012 C.3       1 <0>        -0.0486
      8 H1          0.5792    0.7267    1.3535 H         1 <0>         0.1116
      9 C8          2.5598    0.5368    0.5794 C.2       1 <0>         0.0096
     10 C9          3.0187    0.9277    1.7740 C.2       1 <0>        -0.2654
     11 C10         4.4374    1.2485    1.9851 C.2       1 <0>         0.4019
     12 O1          4.7908    1.7738    3.0223 O.2       1 <0>        -0.4599
     13 C11         5.3922    0.8679    0.8770 C.3       1 <0>        -0.1125
     14 H2          5.5205   -0.2359    0.9325 H         1 <0>         0.0984
     15 C12         6.7882    1.4498    1.0839 C.3       1 <0>        -0.0261
     16 C13         7.3998    0.7521    2.3138 C.3       1 <0>        -0.1178
     17 C14         8.7930    1.3123    2.5878 C.3       1 <0>        -0.1646
     18 C15         9.6528    1.1551    1.3614 C.2       1 <0>         0.3709
     19 O2         10.8073    0.7879    1.4809 O.2       1 <0>        -0.4655
     20 C16         9.1109    1.4471   -0.0167 C.3       1 <0>        -0.0910
     21 C17         7.6398    1.1044   -0.1345 C.3       1 <0>        -0.0621
     22 H3          7.5748   -0.0046   -0.2505 H         1 <0>         0.0673
     23 C18         7.0113    1.6973   -1.3950 C.3       1 <0>        -0.1130
     24 C19         5.6642    1.0007   -1.6337 C.3       1 <0>        -0.1089
     25 C20         4.7337    1.2132   -0.4494 C.3       1 <0>        -0.0238
     26 C21         3.4478    0.3890   -0.6171 C.3       1 <0>        -0.0144
     27 C22         2.7563    0.7516   -1.9228 C.3       1 <0>        -0.1037
     28 C23         1.3072    0.2754   -1.9746 C.3       1 <0>        -0.1081
     29 C24         3.8543   -1.0887   -0.7129 C.3       1 <0>        -0.1540
     30 C25         4.2965    2.6871   -0.4342 C.3       1 <0>        -0.1689
     31 C26         9.8969    0.5502   -1.0038 C.3       1 <0>        -0.1395
     32 C27         9.4087    2.9001   -0.3924 C.3       1 <0>        -0.1400
     33 C28         6.7550    2.9491    1.3512 C.3       1 <0>        -0.1608
     34 C29        -0.7732   -3.1445    0.3793 C.3       1 <0>        -0.1217
     35 C30        -1.4142   -1.0921    1.5974 C.2       1 <0>         0.5074
     36 O3         -2.6126   -1.3030    1.6752 O.co2     1 <0>        -0.7013
     37 O4         -0.8489   -0.4575    2.4716 O.co2     1 <0>        -0.6931
     38 H4          1.6794    2.6320   -0.6453 H         1 <0>         0.0569
     39 H5          0.2332    2.7728   -1.6733 H         1 <0>         0.0482
     40 H6          0.0655    2.7353    0.0983 H         1 <0>         0.0547
     41 H7         -1.5343    0.9643   -0.1488 H         1 <0>         0.0651
     42 H8         -1.3231    0.8485   -1.9017 H         1 <0>         0.0482
     43 H9         -2.2462   -1.2567   -0.9551 H         1 <0>         0.0591
     44 H10        -0.6689   -1.5083   -1.7279 H         1 <0>         0.0445
     45 H11         1.2138   -1.6469    1.5226 H         1 <0>         0.0555
     46 H12         1.3921   -1.7615   -0.2385 H         1 <0>         0.0434
     47 H13         2.3278    1.0085    2.6028 H         1 <0>         0.1354
     48 H14         6.7593    0.9214    3.1777 H         1 <0>         0.0938
     49 H15         7.4656   -0.3178    2.1147 H         1 <0>         0.0617
     50 H16         8.7482    2.3540    2.8963 H         1 <0>         0.1048
     51 H17         9.2453    0.7415    3.4129 H         1 <0>         0.0853
     52 H18         6.8651    2.7650   -1.3083 H         1 <0>         0.0723
     53 H19         7.6525    1.4939   -2.2575 H         1 <0>         0.0637
     54 H20         5.2117    1.4214   -2.5366 H         1 <0>         0.0697
     55 H21         5.8631   -0.0570   -1.8047 H         1 <0>         0.0690
     56 H22         2.7981    1.8094   -2.1532 H         1 <0>         0.0718
     57 H23         3.2971    0.2407   -2.7437 H         1 <0>         0.0564
     58 H24         1.2750   -0.8144   -1.9709 H         1 <0>         0.0673
     59 H25         0.8500    0.6288   -2.9059 H         1 <0>         0.0574
     60 H26         2.9748   -1.6940   -0.9322 H         1 <0>         0.0690
     61 H27         4.5885   -1.2127   -1.5090 H         1 <0>         0.0641
     62 H28         4.2883   -1.4083    0.2346 H         1 <0>         0.0558
     63 H29         5.1783    3.3276   -0.4237 H         1 <0>         0.0660
     64 H30         3.7037    2.8994   -1.3240 H         1 <0>         0.0657
     65 H31         3.6973    2.8791    0.4559 H         1 <0>         0.0606
     66 H32         9.7462   -0.4971   -0.7421 H         1 <0>         0.0541
     67 H33         9.5393    0.7263   -2.0183 H         1 <0>         0.0630
     68 H34        10.9586    0.7900   -0.9461 H         1 <0>         0.0641
     69 H35        10.4777    3.0891   -0.2936 H         1 <0>         0.0572
     70 H36         9.1019    3.0791   -1.4229 H         1 <0>         0.0714
     71 H37         8.8589    3.5671    0.2715 H         1 <0>         0.0677
     72 H38         6.0207    3.1636    2.1277 H         1 <0>         0.0768
     73 H39         7.7396    3.2814    1.6806 H         1 <0>         0.0570
     74 H40         6.4811    3.4753    0.4368 H         1 <0>         0.0636
     75 H41        -0.2057   -3.5374   -0.4643 H         1 <0>         0.0359
     76 H42        -0.3890   -3.5710    1.3059 H         1 <0>         0.0427
     77 H43        -1.8242   -3.4102    0.2655 H         1 <0>         0.0550
@<TRIPOS>BOND
     1    1    2 1
     2    1   38 1
     3    1   39 1
     4    1   40 1
     5    2    7 1
     6    2   28 1
     7    2    3 1
     8    3    4 1
     9    3   41 1
    10    3   42 1
    11    4    5 1
    12    4   43 1
    13    4   44 1
    14    5    6 1
    15    5   34 1
    16    5   35 1
    17    6    7 1
    18    6   45 1
    19    6   46 1
    20    7    8 1
    21    7    9 1
    22    9   26 1
    23    9   10 2
    24   10   11 1
    25   10   47 1
    26   11   12 2
    27   11   13 1
    28   13   14 1
    29   13   25 1
    30   13   15 1
    31   15   21 1
    32   15   16 1
    33   15   33 1
    34   16   17 1
    35   16   48 1
    36   16   49 1
    37   17   18 1
    38   17   50 1
    39   17   51 1
    40   18   19 2
    41   18   20 1
    42   20   21 1
    43   20   31 1
    44   20   32 1
    45   21   22 1
    46   21   23 1
    47   23   24 1
    48   23   52 1
    49   23   53 1
    50   24   25 1
    51   24   54 1
    52   24   55 1
    53   25   26 1
    54   25   30 1
    55   26   27 1
    56   26   29 1
    57   27   28 1
    58   27   56 1
    59   27   57 1
    60   28   58 1
    61   28   59 1
    62   29   60 1
    63   29   61 1
    64   29   62 1
    65   30   63 1
    66   30   64 1
    67   30   65 1
    68   31   66 1
    69   31   67 1
    70   31   68 1
    71   32   69 1
    72   32   70 1
    73   32   71 1
    74   33   72 1
    75   33   73 1
    76   33   74 1
    77   34   75 1
    78   34   76 1
    79   34   77 1
    80   35   36 2
    81   35   37 1
