@<TRIPOS>MOLECULE
ZINC04098976
   69    68     0     0     0
SMALL
USER_CHARGES
1-[8-(8-guanidinooctylamino)octyl]guanidine
@<TRIPOS>ATOM
      1 C1          6.9240   -5.8749   -0.0956 C.3       1 <0>        -0.1220
      2 C2          5.5888   -5.1280   -0.0788 C.3       1 <0>        -0.1226
      3 C3          4.4395   -6.1380   -0.0733 C.3       1 <0>        -0.1190
      4 C4          3.1043   -5.3911   -0.0565 C.3       1 <0>        -0.1344
      5 C5          1.9551   -6.4011   -0.0509 C.3       1 <0>         0.0927
      6 N1          0.6765   -5.6859   -0.0348 N.pl3     1 <0>        -0.7014
      7 C6         -0.5045   -6.3895   -0.0273 C.cat     1 <0>         0.7395
      8 N2         -1.7044   -5.7183   -0.0180 N.pl3     1 <0>        -0.8045
      9 C7          8.0733   -4.8650   -0.1011 C.3       1 <0>        -0.1195
     10 C8          9.4085   -5.6118   -0.1179 C.3       1 <0>        -0.1509
     11 C9         10.5578   -4.6019   -0.1234 C.3       1 <0>        -0.0064
     12 C10        12.9687   -4.3790   -0.1454 C.3       1 <0>        -0.0064
     13 C11        14.2835   -5.1612   -0.1621 C.3       1 <0>        -0.1510
     14 C12        15.4593   -4.1823   -0.1681 C.3       1 <0>        -0.1195
     15 C13        16.7741   -4.9645   -0.1848 C.3       1 <0>        -0.1220
     16 C14        17.9499   -3.9856   -0.1908 C.3       1 <0>        -0.1225
     17 C15        19.2647   -4.7678   -0.2076 C.3       1 <0>        -0.1189
     18 C16        20.4406   -3.7889   -0.2136 C.3       1 <0>        -0.1345
     19 C17        21.7554   -4.5711   -0.2304 C.3       1 <0>         0.0927
     20 N3         22.8812   -3.6337   -0.2361 N.pl3     1 <0>        -0.7014
     21 C18        24.1712   -4.1089   -0.2510 C.cat     1 <0>         0.7395
     22 N4         25.2278   -3.2292   -0.2563 N.pl3     1 <0>        -0.8045
     23 H1          6.9988   -6.5055    0.7904 H         1 <0>         0.0681
     24 H2          6.9817   -6.4959   -0.9895 H         1 <0>         0.0681
     25 H3          5.5141   -4.4975   -0.9648 H         1 <0>         0.0680
     26 H4          5.5311   -4.5070    0.8151 H         1 <0>         0.0680
     27 H5          4.5144   -6.7686    0.8127 H         1 <0>         0.0716
     28 H6          4.4973   -6.7590   -0.9672 H         1 <0>         0.0716
     29 H7          3.0296   -4.7605   -0.9424 H         1 <0>         0.0821
     30 H8          3.0467   -4.7701    0.8374 H         1 <0>         0.0820
     31 H9          2.0299   -7.0317    0.8351 H         1 <0>         0.0916
     32 H10         2.0128   -7.0221   -0.9448 H         1 <0>         0.0916
     33 H11         0.6634   -4.7160   -0.0295 H         1 <0>         0.4336
     34 H12        -1.2672   -8.2782   -0.0302 H         1 <0>         0.4534
     35 H13        -2.5377   -6.2148   -0.0167 H         1 <0>         0.4407
     36 H14        -1.7176   -4.7484   -0.0126 H         1 <0>         0.4408
     37 H15         7.9986   -4.2344   -0.9871 H         1 <0>         0.0749
     38 H16         8.0156   -4.2439    0.7928 H         1 <0>         0.0749
     39 H17         9.4833   -6.2424    0.7680 H         1 <0>         0.0875
     40 H18         9.4662   -6.2329   -1.0118 H         1 <0>         0.0875
     41 H19        10.4831   -3.9713   -1.0094 H         1 <0>         0.1309
     42 H20        10.5001   -3.9808    0.7705 H         1 <0>         0.1310
     43 H21        12.9107   -3.7468   -1.0315 H         1 <0>         0.1310
     44 H22        12.9277   -3.7564    0.7484 H         1 <0>         0.1309
     45 H23        14.3416   -5.7933    0.7240 H         1 <0>         0.0875
     46 H24        14.3245   -5.7838   -1.0559 H         1 <0>         0.0875
     47 H25        15.4013   -3.5501   -1.0542 H         1 <0>         0.0749
     48 H26        15.4183   -3.5597    0.7257 H         1 <0>         0.0749
     49 H27        16.8322   -5.5966    0.7012 H         1 <0>         0.0681
     50 H28        16.8151   -5.5871   -1.0786 H         1 <0>         0.0681
     51 H29        17.8919   -3.3534   -1.0769 H         1 <0>         0.0680
     52 H30        17.9089   -3.3630    0.7030 H         1 <0>         0.0680
     53 H31        19.3229   -5.3999    0.6785 H         1 <0>         0.0716
     54 H32        19.3058   -5.3904   -1.1013 H         1 <0>         0.0716
     55 H33        20.3825   -3.1567   -1.0997 H         1 <0>         0.0820
     56 H34        20.3995   -3.1663    0.6801 H         1 <0>         0.0820
     57 H35        21.8135   -5.2032    0.6557 H         1 <0>         0.0915
     58 H36        21.7964   -5.1937   -1.1242 H         1 <0>         0.0916
     59 H37        22.7165   -2.6778   -0.2294 H         1 <0>         0.4336
     60 H38        25.2669   -5.8257   -0.2707 H         1 <0>         0.4534
     61 H39        25.0631   -2.2734   -0.2496 H         1 <0>         0.4408
     62 H40        26.1380   -3.5644   -0.2668 H         1 <0>         0.4408
     63 N5         -0.4187   -7.7119   -0.0353 N.pl3     1 <0>        -0.7957
     64 H41         0.5019   -8.1665   -0.0465 H         1 <0>         0.4540
     65 N6         11.8408   -5.3296   -0.1396 N.4       1 <0>        -0.5207
     66 H42        11.8873   -5.9154   -0.9816 H         1 <0>         0.4326
     67 H43        11.9034   -5.9244    0.6950 H         1 <0>         0.4326
     68 N7         24.3291   -5.4246   -0.2596 N.pl3     1 <0>        -0.7957
     69 H44        23.5074   -6.0402   -0.2550 H         1 <0>         0.4540
@<TRIPOS>BOND
     1    1    2 1
     2    1    9 1
     3    1   23 1
     4    1   24 1
     5    2    3 1
     6    2   25 1
     7    2   26 1
     8    3    4 1
     9    3   27 1
    10    3   28 1
    11    4    5 1
    12    4   29 1
    13    4   30 1
    14    5    6 1
    15    5   31 1
    16    5   32 1
    17    6    7 1
    18    6   33 1
    19    7    8 1
    20    7   63 2
    21    8   35 1
    22    8   36 1
    23    9   10 1
    24    9   37 1
    25    9   38 1
    26   10   11 1
    27   10   39 1
    28   10   40 1
    29   11   41 1
    30   11   42 1
    31   11   65 1
    32   12   13 1
    33   12   43 1
    34   12   44 1
    35   12   65 1
    36   13   14 1
    37   13   45 1
    38   13   46 1
    39   14   15 1
    40   14   47 1
    41   14   48 1
    42   15   16 1
    43   15   49 1
    44   15   50 1
    45   16   17 1
    46   16   51 1
    47   16   52 1
    48   17   18 1
    49   17   53 1
    50   17   54 1
    51   18   19 1
    52   18   55 1
    53   18   56 1
    54   19   20 1
    55   19   57 1
    56   19   58 1
    57   20   21 1
    58   20   59 1
    59   21   22 1
    60   21   68 2
    61   22   61 1
    62   22   62 1
    63   34   63 1
    64   60   68 1
    65   63   64 1
    66   65   66 1
    67   65   67 1
    68   68   69 1
@<TRIPOS>MOLECULE
ZINC13542842
   34    33     0     0     0
SMALL
USER_CHARGES
1-(7-aminoheptyl)guanidine
@<TRIPOS>ATOM
      1 C1          5.6688    4.5625   -0.0277 C.3       1 <0>        -0.1220
      2 C2          6.1175    6.0252   -0.0241 C.3       1 <0>        -0.1205
      3 C3          7.6460    6.0898   -0.0383 C.3       1 <0>        -0.1544
      4 C4          8.0948    7.5525   -0.0348 C.3       1 <0>        -0.0056
      5 C5          4.1402    4.4979   -0.0134 C.3       1 <0>        -0.1198
      6 C6          3.6915    3.0352   -0.0169 C.3       1 <0>        -0.1350
      7 C7          2.1629    2.9706   -0.0027 C.3       1 <0>         0.0930
      8 N1          1.7333    1.5701   -0.0061 N.pl3     1 <0>        -0.7008
      9 C8          0.3935    1.2620    0.0051 C.cat     1 <0>         0.7402
     10 N2         -0.5432    2.2684    0.0137 N.pl3     1 <0>        -0.8045
     11 H1          6.0620    4.0597    0.8559 H         1 <0>         0.0699
     12 H2          6.0450    4.0693   -0.9240 H         1 <0>         0.0699
     13 H3          5.7244    6.5280   -0.9076 H         1 <0>         0.0762
     14 H4          5.7414    6.5185    0.8721 H         1 <0>         0.0762
     15 H5          8.0392    5.5870    0.8452 H         1 <0>         0.0879
     16 H6          8.0222    5.5965   -0.9346 H         1 <0>         0.0883
     17 H7          7.7016    8.0553   -0.9184 H         1 <0>         0.1347
     18 H8          7.7186    8.0458    0.8615 H         1 <0>         0.1319
     19 H9          9.9384    7.1083   -0.8362 H         1 <0>         0.4379
     20 H10         9.8840    8.5709   -0.0464 H         1 <0>         0.4428
     21 H11         3.7470    5.0007   -0.8970 H         1 <0>         0.0732
     22 H12         3.7640    4.9911    0.8829 H         1 <0>         0.0732
     23 H13         4.0847    2.5324    0.8666 H         1 <0>         0.0815
     24 H14         4.0677    2.5420   -0.9132 H         1 <0>         0.0815
     25 H15         1.7698    3.4734   -0.8862 H         1 <0>         0.0909
     26 H16         1.7868    3.4638    0.8936 H         1 <0>         0.0908
     27 H17         2.3942    0.8601   -0.0162 H         1 <0>         0.4346
     28 H18        -0.9109   -0.3024    0.0091 H         1 <0>         0.4544
     29 H19        -1.4885    2.0510    0.0175 H         1 <0>         0.4403
     30 H20        -0.2587    3.1957    0.0160 H         1 <0>         0.4382
     31 N3          9.5674    7.6029   -0.0266 N.4       1 <0>        -0.6482
     32 H21         9.9157    7.1540    0.8287 H         1 <0>         0.4402
     33 N4          0.0703   -0.0231    0.0012 N.pl3     1 <0>        -0.7946
     34 H22         0.8073   -0.7379   -0.0097 H         1 <0>         0.4577
@<TRIPOS>BOND
     1    1    2 1
     2    1    5 1
     3    1   11 1
     4    1   12 1
     5    2    3 1
     6    2   13 1
     7    2   14 1
     8    3    4 1
     9    3   15 1
    10    3   16 1
    11    4   17 1
    12    4   18 1
    13    4   31 1
    14    5    6 1
    15    5   21 1
    16    5   22 1
    17    6    7 1
    18    6   23 1
    19    6   24 1
    20    7    8 1
    21    7   25 1
    22    7   26 1
    23    8    9 1
    24    8   27 1
    25    9   10 1
    26    9   33 2
    27   10   29 1
    28   10   30 1
    29   19   31 1
    30   20   31 1
    31   28   33 1
    32   31   32 1
    33   33   34 1
