@<TRIPOS>MOLECULE
ZINC01482680
   18    18     0     0     0
SMALL
USER_CHARGES
2-(1,3-dithiolan-2-ylidene)ethanamine
@<TRIPOS>ATOM
      1 C1         -2.5185   -1.5967    2.9982 C.3       1 <0>        -0.0880
      2 C2         -2.7781   -0.5854    4.1310 C.3       1 <0>        -0.1039
      3 S1         -1.9617    0.9905    3.7170 S.3       1 <0>        -0.1164
      4 C3         -1.1161    0.6995    2.1732 C.2       1 <0>        -0.0457
      5 C4         -0.7181    1.5718    1.2479 C.2       1 <0>        -0.1724
      6 C5         -0.0127    1.0858    0.0080 C.3       1 <0>         0.0487
      7 S2         -0.9543   -1.0837    2.2009 S.3       1 <0>        -0.1583
      8 H1         -2.4201   -2.6018    3.4084 H         1 <0>         0.1444
      9 H2         -3.3323   -1.5650    2.2737 H         1 <0>         0.1123
     10 H3         -2.3735   -0.9722    5.0663 H         1 <0>         0.1249
     11 H4         -3.8511   -0.4250    4.2354 H         1 <0>         0.1288
     12 H5         -0.9010    2.6271    1.3865 H         1 <0>         0.1622
     13 H6          0.0021   -0.0041    0.0020 H         1 <0>         0.1347
     14 H7          1.0099    1.4631    0.0003 H         1 <0>         0.1497
     15 H8         -0.8068    2.5779   -1.1674 H         1 <0>         0.4384
     16 H9         -0.2694    1.2597   -2.0273 H         1 <0>         0.4424
     17 N1         -0.7456    1.5611   -1.1787 N.4       1 <0>        -0.6419
     18 H10        -1.6942    1.1683   -1.1693 H         1 <0>         0.4402
@<TRIPOS>BOND
     1    1    7 1
     2    1    2 1
     3    1    8 1
     4    1    9 1
     5    2    3 1
     6    2   10 1
     7    2   11 1
     8    3    4 1
     9    4    5 2
    10    4    7 1
    11    5    6 1
    12    5   12 1
    13    6   13 1
    14    6   14 1
    15    6   17 1
    16   15   17 1
    17   16   17 1
    18   17   18 1
@<TRIPOS>MOLECULE
ZINC02568051
   24    25     0     0     0
SMALL
USER_CHARGES

@<TRIPOS>ATOM
      1 C1         -0.0167    1.3784    0.0096 C.ar      1 <0>        -0.0821
      2 C2          1.1695    2.0865    0.0021 C.ar      1 <0>        -0.1538
      3 C3          2.3802    1.4093   -0.0131 C.ar      1 <0>         0.1207
      4 C4          2.3963    0.0221   -0.0206 C.ar      1 <0>        -0.1492
      5 C5          1.2074   -0.6814   -0.0130 C.ar      1 <0>        -0.0644
      6 C6          0.0021   -0.0041    0.0020 C.ar      1 <0>        -0.1361
      7 C7         -1.2934   -0.7740    0.0107 C.3       1 <0>         0.1590
      8 N1         -1.7268   -1.0161   -1.3676 N.pl3     1 <0>        -0.4552
      9 C8         -2.5361   -0.1834   -2.1253 C.2       1 <0>        -0.0061
     10 C9         -2.7011   -0.7475   -3.3171 C.2       1 <0>        -0.0059
     11 N2         -1.9978   -1.9423   -3.3245 N.pl3     1 <0>        -0.5663
     12 C10        -1.4041   -2.0843   -2.1231 C.2       1 <0>         0.4653
     13 S1         -0.4155   -3.3956   -1.6393 S.2       1 <0>        -0.6296
     14 O1          3.5484    2.1036   -0.0209 O.3       1 <0>        -0.4998
     15 H1         -0.9594    1.9052    0.0259 H         1 <0>         0.1265
     16 H2          1.1543    3.1664    0.0076 H         1 <0>         0.1310
     17 H3          3.3375   -0.5074   -0.0328 H         1 <0>         0.1328
     18 H4          1.2194   -1.7613   -0.0189 H         1 <0>         0.1466
     19 H5         -1.1460   -1.7274    0.5180 H         1 <0>         0.1212
     20 H6         -2.0553   -0.1973    0.5352 H         1 <0>         0.1089
     21 H7         -2.9580    0.7573   -1.8036 H         1 <0>         0.1957
     22 H8         -3.2809   -0.3464   -4.1352 H         1 <0>         0.1992
     23 H9         -1.9403   -2.5652   -4.0658 H         1 <0>         0.4474
     24 H10         3.8951    2.3001    0.8601 H         1 <0>         0.3942
@<TRIPOS>BOND
     1    1    6 ar
     2    1    2 ar
     3    1   15 1
     4    2    3 ar
     5    2   16 1
     6    3    4 ar
     7    3   14 1
     8    4    5 ar
     9    4   17 1
    10    5    6 ar
    11    5   18 1
    12    6    7 1
    13    7   19 1
    14    7   20 1
    15    7    8 1
    16    8   12 1
    17    8    9 1
    18    9   21 1
    19    9   10 2
    20   10   22 1
    21   10   11 1
    22   11   12 1
    23   11   23 1
    24   12   13 2
    25   14   24 1
@<TRIPOS>MOLECULE
ZINC20583646
   22    23     0     0     0
SMALL
USER_CHARGES
4-[(3-fluorophenyl)methyl]-1,2,4-triazole-3-thiol
@<TRIPOS>ATOM
      1 C1          1.1744    1.7832    0.0004 C.ar      1 <0>        -0.0969
      2 C2          1.1559    3.1657    0.0076 C.ar      1 <0>        -0.1103
      3 C3         -0.0496    3.8418    0.0223 C.ar      1 <0>        -0.1040
      4 C4         -1.2382    3.1363    0.0304 C.ar      1 <0>        -0.1146
      5 C5         -1.2210    1.7521    0.0174 C.ar      1 <0>         0.0977
      6 C6         -0.0126    1.0758    0.0080 C.ar      1 <0>        -0.1383
      7 F1         -2.3822    1.0616    0.0187 F         1 <0>        -0.1336
      8 C7         -0.0680    5.3487    0.0302 C.3       1 <0>         0.1593
      9 N1         -0.0869    5.8440   -1.3484 N.pl3     1 <0>        -0.4723
     10 C8          0.9876    6.2254   -2.1036 C.2       1 <0>         0.2385
     11 N2          0.5320    6.5976   -3.2662 N.2       1 <0>        -0.3000
     12 N3         -0.7474    6.4785   -3.2975 N.pl3     1 <0>        -0.3992
     13 C9         -1.1803    6.0149   -2.1481 C.2       1 <0>         0.4499
     14 S1         -2.8558    5.6800   -1.7176 S.2       1 <0>        -0.6205
     15 H1          2.1169    1.2560   -0.0114 H         1 <0>         0.1371
     16 H2          2.0842    3.7177    0.0014 H         1 <0>         0.1310
     17 H3         -2.1800    3.6648    0.0415 H         1 <0>         0.1571
     18 H4          0.0021   -0.0041    0.0020 H         1 <0>         0.1385
     19 H5         -0.9657    5.7016    0.5590 H         1 <0>         0.1270
     20 H6          0.8304    5.7237    0.5423 H         1 <0>         0.1230
     21 H7          1.9696    6.2584   -1.9175 H         1 <0>         0.2212
     22 H8         -1.3033    6.7533   -4.2060 H         1 <0>         0.5094
@<TRIPOS>BOND
     1    1    6 ar
     2    1    2 ar
     3    1   15 1
     4    2    3 ar
     5    2   16 1
     6    3    4 ar
     7    3    8 1
     8    4    5 ar
     9    4   17 1
    10    5    6 ar
    11    5    7 1
    12    6   18 1
    13    8   19 1
    14    8   20 1
    15    8    9 1
    16    9   13 1
    17    9   10 1
    18   10   21 1
    19   10   11 2
    20   11   12 1
    21   12   13 1
    22   12   22 1
    23   13   14 2
@<TRIPOS>MOLECULE
ZINC20583646
   21    22     0     0     0
SMALL
USER_CHARGES
4-[(3-fluorophenyl)methyl]-1,2,4-triazole-3-thiol
@<TRIPOS>ATOM
      1 C1          1.1744    1.7832    0.0004 C.ar      1 <0>        -0.1039
      2 C2          1.1559    3.1657    0.0076 C.ar      1 <0>        -0.1158
      3 C3         -0.0496    3.8418    0.0223 C.ar      1 <0>        -0.0778
      4 C4         -1.2382    3.1363    0.0304 C.ar      1 <0>        -0.1099
      5 C5         -1.2210    1.7521    0.0174 C.ar      1 <0>         0.0914
      6 C6         -0.0126    1.0758    0.0080 C.ar      1 <0>        -0.1530
      7 F1         -2.3822    1.0616    0.0187 F         1 <0>        -0.1402
      8 C7         -0.0680    5.3487    0.0302 C.3       1 <0>         0.1599
      9 N1         -0.0869    5.8440   -1.3484 N.pl3     1 <0>        -0.4872
     10 C8          0.9876    6.2254   -2.1036 C.2       1 <0>         0.0983
     11 N2          0.5320    6.5976   -3.2662 N.2       1 <0>        -0.3092
     12 N3         -0.7474    6.4785   -3.2975 N.2       1 <0>        -0.3501
     13 C9         -1.1803    6.0149   -2.1481 C.2       1 <0>         0.3740
     14 S1         -2.8558    5.6800   -1.7176 S.3       1 <0>        -0.8087
     15 H1          2.1169    1.2560   -0.0114 H         1 <0>         0.1294
     16 H2          2.0842    3.7177    0.0014 H         1 <0>         0.1255
     17 H3         -2.1800    3.6648    0.0415 H         1 <0>         0.1591
     18 H4          0.0021   -0.0041    0.0020 H         1 <0>         0.1306
     19 H5         -0.9657    5.7016    0.5590 H         1 <0>         0.1076
     20 H6          0.8304    5.7237    0.5423 H         1 <0>         0.0942
     21 H7          1.9696    6.2584   -1.9175 H         1 <0>         0.1856
@<TRIPOS>BOND
     1    1    6 ar
     2    1    2 ar
     3    1   15 1
     4    2    3 ar
     5    2   16 1
     6    3    4 ar
     7    3    8 1
     8    4    5 ar
     9    4   17 1
    10    5    6 ar
    11    5    7 1
    12    6   18 1
    13    8   19 1
    14    8   20 1
    15    8    9 1
    16    9   13 1
    17    9   10 1
    18   10   21 1
    19   10   11 2
    20   11   12 1
    21   12   13 2
    22   13   14 1
@<TRIPOS>MOLECULE
ZINC01531682
   25    25     0     0     0
SMALL
USER_CHARGES

@<TRIPOS>ATOM
      1 C1         -0.0187    1.5258    0.0104 C.3       1 <0>        -0.1531
      2 C2          0.0021   -0.0041    0.0020 C.3       1 <0>        -0.1240
      3 C3         -1.4333   -0.5336    0.0129 C.3       1 <0>        -0.1160
      4 C4         -1.4126   -2.0635    0.0045 C.3       1 <0>        -0.0684
      5 C5         -2.8264   -2.5851    0.0152 C.ar      1 <0>        -0.1547
      6 C6         -3.4733   -2.8283    1.2166 C.ar      1 <0>        -0.0927
      7 C7         -4.7734   -3.3079    1.1822 C.ar      1 <0>        -0.1378
      8 C8         -5.3814   -3.5275   -0.0528 C.ar      1 <0>         0.0748
      9 N1         -4.7257   -3.2814   -1.1811 N.ar      1 <0>        -0.4444
     10 C9         -3.4944   -2.8209   -1.1767 C.ar      1 <0>         0.0824
     11 C10        -6.7683   -4.0396   -0.1071 C.2       1 <0>         0.5311
     12 O1         -7.3764   -4.2683    0.9285 O.co2     1 <0>        -0.6832
     13 O2         -7.3063   -4.2340   -1.1874 O.co2     1 <0>        -0.6609
     14 H1          1.0039    1.9031    0.0027 H         1 <0>         0.0510
     15 H2         -0.5459    1.8868   -0.8726 H         1 <0>         0.0537
     16 H3         -0.5289    1.8773    0.9072 H         1 <0>         0.0530
     17 H4          0.5123   -0.3556   -0.8948 H         1 <0>         0.0608
     18 H5          0.5293   -0.3651    0.8851 H         1 <0>         0.0598
     19 H6         -1.9435   -0.1821    0.9097 H         1 <0>         0.0621
     20 H7         -1.9605   -0.1726   -0.8702 H         1 <0>         0.0638
     21 H8         -0.9024   -2.4150   -0.8923 H         1 <0>         0.0698
     22 H9         -0.8854   -2.4246    0.8875 H         1 <0>         0.0675
     23 H10        -2.9757   -2.6486    2.1581 H         1 <0>         0.1239
     24 H11        -5.3075   -3.5088    2.0991 H         1 <0>         0.1382
     25 H12        -2.9946   -2.6282   -2.1145 H         1 <0>         0.1435
@<TRIPOS>BOND
     1    1    2 1
     2    1   14 1
     3    1   15 1
     4    1   16 1
     5    2    3 1
     6    2   17 1
     7    2   18 1
     8    3    4 1
     9    3   19 1
    10    3   20 1
    11    4    5 1
    12    4   21 1
    13    4   22 1
    14    5   10 ar
    15    5    6 ar
    16    6    7 ar
    17    6   23 1
    18    7    8 ar
    19    7   24 1
    20    8    9 ar
    21    8   11 1
    22    9   10 ar
    23   10   25 1
    24   11   12 2
    25   11   13 1
@<TRIPOS>MOLECULE
ZINC00004085
   23    24     0     0     0
SMALL
USER_CHARGES
1-[2-(2-thienyl)ethyl]-3H-imidazole-2-thione
@<TRIPOS>ATOM
      1 C1          1.5307    1.0163    4.2817 C.2       1 <0>        -0.1565
      2 C2          1.0090    1.6652    3.1782 C.2       1 <0>        -0.1429
      3 C3          0.0000    1.0800    2.4877 C.2       1 <0>        -0.1470
      4 S1         -0.2467   -0.4319    3.4045 S.3       1 <0>         0.0279
      5 C4          1.0178   -0.1859    4.6406 C.2       1 <0>        -0.1670
      6 C5         -0.7288    1.5792    1.2668 C.3       1 <0>        -0.0474
      7 C6         -0.0127    1.0858    0.0080 C.3       1 <0>         0.1220
      8 N1         -0.7213    1.5711   -1.1789 N.pl3     1 <0>        -0.4603
      9 C7         -1.6785    0.8725   -1.8986 C.2       1 <0>        -0.0082
     10 C8         -2.0844    1.6478   -2.8987 C.2       1 <0>        -0.0043
     11 N2         -1.3816    2.8407   -2.8259 N.pl3     1 <0>        -0.5662
     12 H1         -1.4710    3.5928   -3.4320 H         1 <0>         0.4479
     13 C9         -0.5526    2.7724   -1.7657 C.2       1 <0>         0.4634
     14 S2          0.5266    3.9987   -1.2531 S.2       1 <0>        -0.6273
     15 H2          2.3346    1.4608    4.8495 H         1 <0>         0.1362
     16 H3          1.3994    2.6242    2.8711 H         1 <0>         0.1388
     17 H4          1.2985   -0.8269    5.4633 H         1 <0>         0.1867
     18 H5         -0.7436    2.6691    1.2728 H         1 <0>         0.1042
     19 H6         -1.7514    1.2020    1.2746 H         1 <0>         0.0839
     20 H7          0.0021   -0.0041    0.0020 H         1 <0>         0.1035
     21 H8          1.0099    1.4631    0.0003 H         1 <0>         0.1151
     22 H9         -2.0334   -0.1244   -1.6830 H         1 <0>         0.1973
     23 H10        -2.8270    1.3919   -3.6400 H         1 <0>         0.2000
@<TRIPOS>BOND
     1    1    5 2
     2    1    2 1
     3    1   15 1
     4    2    3 2
     5    2   16 1
     6    3    4 1
     7    3    6 1
     8    4    5 1
     9    5   17 1
    10    6    7 1
    11    6   18 1
    12    6   19 1
    13    7    8 1
    14    7   20 1
    15    7   21 1
    16    8   13 1
    17    8    9 1
    18    9   10 2
    19    9   22 1
    20   10   11 1
    21   10   23 1
    22   11   12 1
    23   11   13 1
    24   13   14 2
@<TRIPOS>MOLECULE
ZINC00002698
   20    21     0     0     0
SMALL
USER_CHARGES
1-(2-thienylmethyl)imidazole-2-thiol
@<TRIPOS>ATOM
      1 C1         -0.0126    1.0758    0.0080 C.2       1 <0>        -0.1677
      2 C2         -1.2130    1.7610    0.0173 C.2       1 <0>        -0.1249
      3 C3         -1.1962    3.1163    0.0303 C.2       1 <0>        -0.1931
      4 S1          0.5548    3.4640    0.0154 S.3       1 <0>         0.0869
      5 C4          1.1459    1.7795    0.0007 C.2       1 <0>        -0.1652
      6 C5         -2.3549    4.0797    0.0459 C.3       1 <0>         0.1922
      7 N1         -2.7178    4.3848    1.4320 N.pl3     1 <0>        -0.4403
      8 C6         -3.6953    3.7656    2.1781 C.2       1 <0>        -0.0201
      9 C7         -3.6943    4.3502    3.3881 C.2       1 <0>        -0.0265
     10 N2         -2.7470    5.3030    3.3966 N.2       1 <0>        -0.4394
     11 C8         -2.1484    5.3303    2.2286 C.2       1 <0>         0.1768
     12 S2         -0.8343    6.4102    1.7689 S.3       1 <0>        -0.0228
     13 H1          0.0021   -0.0041    0.0020 H         1 <0>         0.1359
     14 H2         -2.1503    1.2245    0.0184 H         1 <0>         0.1325
     15 H3          2.1627    1.4156   -0.0113 H         1 <0>         0.1884
     16 H4         -2.0701    4.9990   -0.4659 H         1 <0>         0.1101
     17 H5         -3.2080    3.6302   -0.4625 H         1 <0>         0.1184
     18 H6         -4.3401    2.9625    1.8528 H         1 <0>         0.1825
     19 H7         -4.3440    4.0973    4.2129 H         1 <0>         0.1784
     20 H8         -1.5761    7.4945    1.2569 H         1 <0>         0.0980
@<TRIPOS>BOND
     1    1    5 2
     2    1    2 1
     3    1   13 1
     4    2    3 2
     5    2   14 1
     6    3    4 1
     7    3    6 1
     8    4    5 1
     9    5   15 1
    10    6    7 1
    11    6   16 1
    12    6   17 1
    13    7   11 1
    14    7    8 1
    15    8    9 2
    16    8   18 1
    17    9   10 1
    18    9   19 1
    19   10   11 2
    20   11   12 1
    21   12   20 1
@<TRIPOS>MOLECULE
ZINC00002698
   21    22     0     0     0
SMALL
USER_CHARGES
1-(2-thienylmethyl)imidazole-2-thiol
@<TRIPOS>ATOM
      1 C1         -0.0126    1.0758    0.0080 C.2       1 <0>        -0.1786
      2 C2         -1.2130    1.7610    0.0173 C.2       1 <0>        -0.0891
      3 C3         -1.1962    3.1163    0.0303 C.2       1 <0>        -0.2469
      4 S1          0.5548    3.4640    0.0154 S.3       1 <0>         0.0961
      5 C4          1.1459    1.7795    0.0007 C.2       1 <0>        -0.1317
      6 C5         -2.3549    4.0797    0.0459 C.3       1 <0>         0.1887
      7 N1         -2.7178    4.3848    1.4320 N.pl3     1 <0>        -0.3816
      8 C6         -3.6953    3.7656    2.1781 C.2       1 <0>         0.0440
      9 C7         -3.6943    4.3502    3.3881 C.2       1 <0>         0.0235
     10 C8         -2.1484    5.3303    2.2286 C.cat     1 <0>         0.2559
     11 S2         -0.8343    6.4102    1.7689 S.3       1 <0>         0.0316
     12 H1          0.0021   -0.0041    0.0020 H         1 <0>         0.1457
     13 H2         -2.1503    1.2245    0.0184 H         1 <0>         0.1389
     14 H3          2.1627    1.4156   -0.0113 H         1 <0>         0.1967
     15 H4         -2.0701    4.9990   -0.4659 H         1 <0>         0.1323
     16 H5         -3.2080    3.6302   -0.4625 H         1 <0>         0.1473
     17 H6         -4.3401    2.9625    1.8528 H         1 <0>         0.2288
     18 H7         -4.3440    4.0973    4.2129 H         1 <0>         0.2304
     19 H8         -1.5761    7.4945    1.2569 H         1 <0>         0.1394
     20 N2         -2.7472    5.3024    3.3958 N.pl3     1 <0>        -0.4548
     21 H9         -2.5262    5.9132    4.1910 H         1 <0>         0.4835
@<TRIPOS>BOND
     1    1    5 2
     2    1    2 1
     3    1   12 1
     4    2    3 2
     5    2   13 1
     6    3    4 1
     7    3    6 1
     8    4    5 1
     9    5   14 1
    10    6    7 1
    11    6   15 1
    12    6   16 1
    13    7   10 1
    14    7    8 1
    15    8    9 2
    16    8   17 1
    17    9   18 1
    18    9   20 1
    19   10   11 1
    20   10   20 2
    21   11   19 1
    22   20   21 1
@<TRIPOS>MOLECULE
ZINC27876220
   22    23     0     0     0
SMALL
USER_CHARGES
2,6-difluoro-4-[(3-sulfanyl-1,2,4-triazol-4-yl)methyl]phenol
@<TRIPOS>ATOM
      1 C1          3.2932   -0.1780    3.4722 C.ar      1 <0>        -0.1042
      2 C2          2.1400    0.3694    2.9412 C.ar      1 <0>        -0.0922
      3 C3          0.9968   -0.3993    2.8241 C.ar      1 <0>        -0.0760
      4 C4          1.0070   -1.7228    3.2277 C.ar      1 <0>         0.0820
      5 C5          2.1635   -2.2754    3.7613 C.ar      1 <0>         0.0991
      6 C6          3.3081   -1.4992    3.8828 C.ar      1 <0>         0.0168
      7 F1          4.4355   -2.0336    4.4012 F         1 <0>        -0.1365
      8 O1          2.1751   -3.5746    4.1637 O.3       1 <0>        -0.4937
      9 F2         -0.1089   -2.4749    3.1079 F         1 <0>        -0.1243
     10 C7          2.1272    1.8088    2.4950 C.3       1 <0>         0.1651
     11 N1          2.5208    1.8867    1.0860 N.pl3     1 <0>        -0.4888
     12 C8          3.7733    2.1228    0.5903 C.2       1 <0>         0.0982
     13 N2          3.6837    2.1156   -0.7096 N.2       1 <0>        -0.3081
     14 N3          2.4704    1.8875   -1.0670 N.2       1 <0>        -0.3491
     15 C9          1.7138    1.7353   -0.0050 C.2       1 <0>         0.3736
     16 S1         -0.0170    1.4058    0.0098 S.3       1 <0>        -0.8070
     17 H1          4.1834    0.4263    3.5661 H         1 <0>         0.1418
     18 H2          0.0963    0.0324    2.4130 H         1 <0>         0.1720
     19 H3          3.0920   -4.0113    4.5863 H         1 <0>         0.4367
     20 H4          1.1147    2.2213    2.6163 H         1 <0>         0.1121
     21 H5          2.8348    2.3884    3.1060 H         1 <0>         0.0968
     22 H6          4.6571    2.2837    1.0297 H         1 <0>         0.1858
@<TRIPOS>BOND
     1    1    6 ar
     2    1    2 ar
     3    1   17 1
     4    2    3 ar
     5    2   10 1
     6    3    4 ar
     7    3   18 1
     8    4    5 ar
     9    4    9 1
    10    5    6 ar
    11    5    8 1
    12    6    7 1
    13    8   19 1
    14   10   20 1
    15   10   21 1
    16   10   11 1
    17   11   15 1
    18   11   12 1
    19   12   22 1
    20   12   13 2
    21   13   14 1
    22   14   15 2
    23   15   16 1
@<TRIPOS>MOLECULE
ZINC27876220
   23    24     0     0     0
SMALL
USER_CHARGES
2,6-difluoro-4-[(3-sulfanyl-1,2,4-triazol-4-yl)methyl]phenol
@<TRIPOS>ATOM
      1 C1          3.2932   -0.1780    3.4722 C.ar      1 <0>        -0.0985
      2 C2          2.1400    0.3694    2.9412 C.ar      1 <0>        -0.1215
      3 C3          0.9968   -0.3993    2.8241 C.ar      1 <0>        -0.0796
      4 C4          1.0070   -1.7228    3.2277 C.ar      1 <0>         0.0845
      5 C5          2.1635   -2.2754    3.7613 C.ar      1 <0>         0.1166
      6 C6          3.3081   -1.4992    3.8828 C.ar      1 <0>         0.0221
      7 F1          4.4355   -2.0336    4.4012 F         1 <0>        -0.1291
      8 O1          2.1751   -3.5746    4.1637 O.3       1 <0>        -0.4885
      9 F2         -0.1089   -2.4749    3.1079 F         1 <0>        -0.1182
     10 C7          2.1272    1.8088    2.4950 C.3       1 <0>         0.1652
     11 N1          2.5208    1.8867    1.0860 N.pl3     1 <0>        -0.4740
     12 C8          3.7733    2.1228    0.5903 C.2       1 <0>         0.2381
     13 N2          3.6837    2.1156   -0.7096 N.2       1 <0>        -0.2991
     14 N3          2.4704    1.8875   -1.0670 N.pl3     1 <0>        -0.3989
     15 C9          1.7138    1.7353   -0.0050 C.2       1 <0>         0.4497
     16 S1         -0.0170    1.4058    0.0098 S.2       1 <0>        -0.6189
     17 H1          4.1834    0.4263    3.5661 H         1 <0>         0.1467
     18 H2          0.0963    0.0324    2.4130 H         1 <0>         0.1697
     19 H3          3.0920   -4.0113    4.5863 H         1 <0>         0.4464
     20 H4          1.1147    2.2213    2.6163 H         1 <0>         0.1311
     21 H5          2.8348    2.3884    3.1060 H         1 <0>         0.1250
     22 H6          4.6571    2.2837    1.0297 H         1 <0>         0.2213
     23 H7          2.2101    1.8463   -2.1350 H         1 <0>         0.5099
@<TRIPOS>BOND
     1    1    6 ar
     2    1    2 ar
     3    1   17 1
     4    2    3 ar
     5    2   10 1
     6    3    4 ar
     7    3   18 1
     8    4    5 ar
     9    4    9 1
    10    5    6 ar
    11    5    8 1
    12    6    7 1
    13    8   19 1
    14   10   20 1
    15   10   21 1
    16   10   11 1
    17   11   15 1
    18   11   12 1
    19   12   22 1
    20   12   13 2
    21   13   14 1
    22   14   15 1
    23   14   23 1
    24   15   16 2
@<TRIPOS>MOLECULE
ZINC27876220
   22    23     0     0     0
SMALL
USER_CHARGES
2,6-difluoro-4-[(3-sulfanyl-1,2,4-triazol-4-yl)methyl]phenol
@<TRIPOS>ATOM
      1 C1          3.2932   -0.1780    3.4722 C.ar      1 <0>        -0.0834
      2 C2          2.1400    0.3694    2.9412 C.ar      1 <0>        -0.2400
      3 C3          0.9968   -0.3993    2.8241 C.ar      1 <0>        -0.0637
      4 C4          1.0070   -1.7228    3.2277 C.ar      1 <0>        -0.0479
      5 C5          2.1635   -2.2754    3.7613 C.ar      1 <0>         0.2394
      6 C6          3.3081   -1.4992    3.8828 C.ar      1 <0>        -0.0537
      7 F1          4.4355   -2.0336    4.4012 F         1 <0>        -0.1537
      8 O1          2.1751   -3.5746    4.1637 O.3       1 <0>        -0.6849
      9 F2         -0.1089   -2.4749    3.1079 F         1 <0>        -0.1506
     10 C7          2.1272    1.8088    2.4950 C.3       1 <0>         0.1813
     11 N1          2.5208    1.8867    1.0860 N.pl3     1 <0>        -0.4593
     12 C8          3.7733    2.1228    0.5903 C.2       1 <0>         0.2399
     13 N2          3.6837    2.1156   -0.7096 N.2       1 <0>        -0.3160
     14 N3          2.4704    1.8875   -1.0670 N.pl3     1 <0>        -0.4039
     15 C9          1.7138    1.7353   -0.0050 C.2       1 <0>         0.4523
     16 S1         -0.0170    1.4058    0.0098 S.2       1 <0>        -0.6369
     17 H1          4.1834    0.4263    3.5661 H         1 <0>         0.1101
     18 H2          0.0963    0.0324    2.4130 H         1 <0>         0.1336
     19 H3          1.1147    2.2213    2.6163 H         1 <0>         0.1135
     20 H4          2.8348    2.3884    3.1060 H         1 <0>         0.1056
     21 H5          4.6571    2.2837    1.0297 H         1 <0>         0.2164
     22 H6          2.2101    1.8463   -2.1350 H         1 <0>         0.5019
@<TRIPOS>BOND
     1    1    6 ar
     2    1    2 ar
     3    1   17 1
     4    2    3 ar
     5    2   10 1
     6    3    4 ar
     7    3   18 1
     8    4    5 ar
     9    4    9 1
    10    5    6 ar
    11    5    8 1
    12    6    7 1
    13   10   19 1
    14   10   20 1
    15   10   11 1
    16   11   15 1
    17   11   12 1
    18   12   21 1
    19   12   13 2
    20   13   14 1
    21   14   15 1
    22   14   22 1
    23   15   16 2
@<TRIPOS>MOLECULE
ZINC27876220
   21    22     0     0     0
SMALL
USER_CHARGES
2,6-difluoro-4-[(3-sulfanyl-1,2,4-triazol-4-yl)methyl]phenol
@<TRIPOS>ATOM
      1 C1          3.2932   -0.1780    3.4722 C.ar      1 <0>        -0.0880
      2 C2          2.1400    0.3694    2.9412 C.ar      1 <0>        -0.2070
      3 C3          0.9968   -0.3993    2.8241 C.ar      1 <0>        -0.0609
      4 C4          1.0070   -1.7228    3.2277 C.ar      1 <0>        -0.0532
      5 C5          2.1635   -2.2754    3.7613 C.ar      1 <0>         0.2320
      6 C6          3.3081   -1.4992    3.8828 C.ar      1 <0>        -0.0646
      7 F1          4.4355   -2.0336    4.4012 F         1 <0>        -0.1611
      8 O1          2.1751   -3.5746    4.1637 O.3       1 <0>        -0.7125
      9 F2         -0.1089   -2.4749    3.1079 F         1 <0>        -0.1563
     10 C7          2.1272    1.8088    2.4950 C.3       1 <0>         0.1843
     11 N1          2.5208    1.8867    1.0860 N.pl3     1 <0>        -0.4766
     12 C8          3.7733    2.1228    0.5903 C.2       1 <0>         0.0984
     13 N2          3.6837    2.1156   -0.7096 N.2       1 <0>        -0.3231
     14 N3          2.4704    1.8875   -1.0670 N.2       1 <0>        -0.3608
     15 C9          1.7138    1.7353   -0.0050 C.2       1 <0>         0.3776
     16 S1         -0.0170    1.4058    0.0098 S.3       1 <0>        -0.8216
     17 H1          4.1834    0.4263    3.5661 H         1 <0>         0.1051
     18 H2          0.0963    0.0324    2.4130 H         1 <0>         0.1362
     19 H3          1.1147    2.2213    2.6163 H         1 <0>         0.0947
     20 H4          2.8348    2.3884    3.1060 H         1 <0>         0.0771
     21 H5          4.6571    2.2837    1.0297 H         1 <0>         0.1804
@<TRIPOS>BOND
     1    1    6 ar
     2    1    2 ar
     3    1   17 1
     4    2    3 ar
     5    2   10 1
     6    3    4 ar
     7    3   18 1
     8    4    5 ar
     9    4    9 1
    10    5    6 ar
    11    5    8 1
    12    6    7 1
    13   10   19 1
    14   10   20 1
    15   10   11 1
    16   11   15 1
    17   11   12 1
    18   12   21 1
    19   12   13 2
    20   13   14 1
    21   14   15 2
    22   15   16 1
@<TRIPOS>MOLECULE
ZINC00010251
   25    26     0     0     0
SMALL
USER_CHARGES

@<TRIPOS>ATOM
      1 C1         -0.0167    1.3775    0.0096 C.ar      1 <0>        -0.0968
      2 C2          1.1709    2.0856    0.0021 C.ar      1 <0>        -0.1165
      3 C3          2.3781    1.4125   -0.0130 C.ar      1 <0>        -0.0920
      4 C4          2.3993    0.0305   -0.0211 C.ar      1 <0>        -0.1214
      5 C5          1.2109   -0.6795   -0.0135 C.ar      1 <0>         0.0964
      6 C6          0.0021   -0.0041    0.0020 C.ar      1 <0>        -0.1455
      7 F1          1.2304   -2.0304   -0.0218 F         1 <0>        -0.1361
      8 C7          3.6716    2.1857   -0.0212 C.3       1 <0>         0.1786
      9 N1          4.1039    2.4289    1.3573 N.pl3     1 <0>        -0.5797
     10 C8          3.7365    3.5951    2.1728 C.3       1 <0>         0.0775
     11 C9          4.4466    3.3586    3.5183 C.3       1 <0>         0.0774
     12 N2          5.1498    2.0805    3.3392 N.pl3     1 <0>        -0.6909
     13 C10         4.9040    1.6094    2.0887 C.cat     1 <0>         0.5407
     14 S1          5.5216    0.1807    1.5117 S.3       1 <0>        -0.5802
     15 H1         -0.9592    1.9045    0.0259 H         1 <0>         0.1341
     16 H2          1.1553    3.1655    0.0076 H         1 <0>         0.1273
     17 H3          3.3426   -0.4952   -0.0336 H         1 <0>         0.1538
     18 H4         -0.9257   -0.5570    0.0082 H         1 <0>         0.1361
     19 H5          4.4351    1.6110   -0.5454 H         1 <0>         0.1157
     20 H6          3.5219    3.1388   -0.5286 H         1 <0>         0.1019
     21 H7          4.0962    4.5133    1.7084 H         1 <0>         0.0952
     22 H8          2.6565    3.6363    2.3140 H         1 <0>         0.0925
     23 H9          5.1578    4.1597    3.7199 H         1 <0>         0.0949
     24 H10         3.7180    3.2827    4.3255 H         1 <0>         0.0933
     25 H11         5.6985    1.6417    4.0080 H         1 <0>         0.4436
@<TRIPOS>BOND
     1    1    6 ar
     2    1    2 ar
     3    1   15 1
     4    2    3 ar
     5    2   16 1
     6    3    4 ar
     7    3    8 1
     8    4    5 ar
     9    4   17 1
    10    5    6 ar
    11    5    7 1
    12    6   18 1
    13    8    9 1
    14    8   19 1
    15    8   20 1
    16    9   13 1
    17    9   10 1
    18   10   11 1
    19   10   21 1
    20   10   22 1
    21   11   12 1
    22   11   23 1
    23   11   24 1
    24   12   13 2
    25   12   25 1
    26   13   14 1
@<TRIPOS>MOLECULE
ZINC29547030
   23    24     0     0     0
SMALL
USER_CHARGES
1-[2-(3-thienyl)ethyl]imidazole-2-thiol
@<TRIPOS>ATOM
      1 C1         -4.7971   -0.3979   -1.5258 C.2       1 <0>        -0.1550
      2 C2         -6.0980   -0.7782   -1.5136 C.2       1 <0>        -0.1727
      3 S1         -6.9392    0.7880   -1.3502 S.3       1 <0>         0.0397
      4 C3         -5.4998    1.8429   -1.3015 C.2       1 <0>        -0.1537
      5 C4         -4.4903    0.9451   -1.4113 C.2       1 <0>        -0.1289
      6 C5         -3.0550    1.4046   -1.4148 C.3       1 <0>        -0.0770
      7 C6         -2.5252    1.4333    0.0203 C.3       1 <0>         0.1190
      8 N1         -1.1300    1.8801    0.0169 N.pl3     1 <0>        -0.4468
      9 C7         -0.0126    1.0758    0.0080 C.2       1 <0>        -0.0066
     10 C8          1.0564    1.8902    0.0021 C.2       1 <0>        -0.0234
     11 N2          0.6200    3.1609    0.0126 N.pl3     1 <0>        -0.5331
     12 C9         -0.6926    3.1689    0.0249 C.2       1 <0>         0.4704
     13 S2         -1.7145    4.6042    0.0416 S.2       1 <0>        -0.6742
     14 H1         -4.0118   -1.1334   -1.6194 H         1 <0>         0.1326
     15 H2         -6.5171   -1.7708   -1.5886 H         1 <0>         0.1861
     16 H3         -5.4470    2.9177   -1.2090 H         1 <0>         0.1905
     17 H4         -2.4492    0.7102   -2.0155 H         1 <0>         0.0759
     18 H5         -2.9941    2.4137   -1.8484 H         1 <0>         0.0922
     19 H6         -3.1311    2.1276    0.6210 H         1 <0>         0.1146
     20 H7         -2.5860    0.4242    0.4539 H         1 <0>         0.1022
     21 H8          0.1145    0.0839    0.0055 H         1 <0>         0.1819
     22 H9          1.9789    1.5043   -0.0085 H         1 <0>         0.1829
     23 H10         1.3423    3.9905    0.0100 H         1 <0>         0.4832
@<TRIPOS>BOND
     1    1    5 1
     2    1    2 2
     3    1   14 1
     4    2    3 1
     5    2   15 1
     6    3    4 1
     7    4    5 2
     8    4   16 1
     9    5    6 1
    10    6    7 1
    11    6   17 1
    12    6   18 1
    13    7   19 1
    14    7   20 1
    15    7    8 1
    16    8   12 1
    17    8    9 1
    18    9   21 1
    19    9   10 2
    20   10   22 1
    21   10   11 1
    22   11   12 1
    23   11   23 1
    24   12   13 2
@<TRIPOS>MOLECULE
ZINC29549442
   23    24     0     0     0
SMALL
USER_CHARGES
1-[(5-methyl-2-thienyl)methyl]imidazole-2-thiol
@<TRIPOS>ATOM
      1 C1         -1.1555   -0.9689    0.0083 C.3       1 <0>        -0.0779
      2 C2          0.0021   -0.0041    0.0020 C.2       1 <0>        -0.1435
      3 C3          1.3319   -0.2664   -0.0121 C.2       1 <0>        -0.1805
      4 C4          2.2234    0.7899   -0.0149 C.2       1 <0>        -0.1205
      5 C5          1.7416    2.0568   -0.0035 C.2       1 <0>        -0.2067
      6 S1         -0.0221    1.7810    0.0118 S.3       1 <0>         0.1251
      7 C6          2.4984    3.3600   -0.0042 C.3       1 <0>         0.2042
      8 N1          2.7301    3.7895   -1.3855 N.pl3     1 <0>        -0.4470
      9 C7          3.8587    3.5541   -2.1381 C.2       1 <0>        -0.0040
     10 C8          3.6531    4.1186   -3.3402 C.2       1 <0>        -0.0228
     11 N2          2.4359    4.6876   -3.3375 N.pl3     1 <0>        -0.5339
     12 C9          1.8679    4.4920   -2.1703 C.2       1 <0>         0.4712
     13 S2          0.2640    5.0480   -1.6984 S.2       1 <0>        -0.6618
     14 H1         -0.7732   -2.0003   -0.0010 H         1 <0>         0.0810
     15 H2         -1.7780   -0.8005   -0.8828 H         1 <0>         0.0795
     16 H3         -1.7602   -0.8101    0.9134 H         1 <0>         0.0802
     17 H4          1.6894   -1.2854   -0.0213 H         1 <0>         0.1311
     18 H5          3.2880    0.6085   -0.0257 H         1 <0>         0.1297
     19 H6          1.9110    4.1254    0.5241 H         1 <0>         0.1253
     20 H7          3.4643    3.2234    0.5042 H         1 <0>         0.1234
     21 H8          4.7178    3.0783   -1.9495 H         1 <0>         0.1819
     22 H9          4.3592    4.0629   -4.0461 H         1 <0>         0.1829
     23 H10         2.0720    5.2123   -4.2332 H         1 <0>         0.4829
@<TRIPOS>BOND
     1    1    2 1
     2    1   14 1
     3    1   15 1
     4    1   16 1
     5    2    6 1
     6    2    3 2
     7    3    4 1
     8    3   17 1
     9    4    5 2
    10    4   18 1
    11    5    6 1
    12    5    7 1
    13    7   19 1
    14    7   20 1
    15    7    8 1
    16    8   12 1
    17    8    9 1
    18    9   21 1
    19    9   10 2
    20   10   22 1
    21   10   11 1
    22   11   12 1
    23   11   23 1
    24   12   13 2
@<TRIPOS>MOLECULE
ZINC00003741
   20    21     0     0     0
SMALL
USER_CHARGES

@<TRIPOS>ATOM
      1 C1         -0.0167    1.3781    0.0096 C.2       1 <0>        -0.1464
      2 C2          1.1597    2.0514    0.0020 C.2       1 <0>        -0.1777
      3 S1          2.3478    0.7191   -0.0165 S.3       1 <0>         0.0490
      4 C3          1.1962   -0.6452   -0.0128 C.2       1 <0>        -0.1162
      5 C4          0.0021   -0.0041    0.0020 C.2       1 <0>        -0.1721
      6 C5         -1.2859   -0.7864    0.0106 C.3       1 <0>         0.1750
      7 N1         -1.7170   -1.0325   -1.3677 N.pl3     1 <0>        -0.4535
      8 C6         -2.5342   -0.2076   -2.1253 C.2       1 <0>        -0.0047
      9 C7         -2.6938   -0.7732   -3.3172 C.2       1 <0>        -0.0071
     10 N2         -1.9790   -1.9611   -3.3247 N.pl3     1 <0>        -0.5661
     11 H1         -1.9147   -2.5829   -4.0664 H         1 <0>         0.4472
     12 C8         -1.3839   -2.0975   -2.1233 C.2       1 <0>         0.4653
     13 S2         -0.3828   -3.3993   -1.6396 S.2       1 <0>        -0.6324
     14 H2         -0.9545    1.9134    0.0259 H         1 <0>         0.1326
     15 H3          1.3332    3.1174    0.0058 H         1 <0>         0.1869
     16 H4          1.3986   -1.7060   -0.0210 H         1 <0>         0.1993
     17 H5         -1.1294   -1.7384    0.5178 H         1 <0>         0.1201
     18 H6         -2.0533   -0.2172    0.5351 H         1 <0>         0.1070
     19 H7         -2.9652    0.7290   -1.8035 H         1 <0>         0.1950
     20 H8         -3.2774   -0.3776   -4.1353 H         1 <0>         0.1989
@<TRIPOS>BOND
     1    1    5 1
     2    1    2 2
     3    1   14 1
     4    2    3 1
     5    2   15 1
     6    3    4 1
     7    4    5 2
     8    4   16 1
     9    5    6 1
    10    6    7 1
    11    6   17 1
    12    6   18 1
    13    7   12 1
    14    7    8 1
    15    8    9 2
    16    8   19 1
    17    9   10 1
    18    9   20 1
    19   10   11 1
    20   10   12 1
    21   12   13 2
@<TRIPOS>MOLECULE
ZINC00003741
   21    22     0     0     0
SMALL
USER_CHARGES
1-(3-thienylmethyl)imidazole-2-thiol
@<TRIPOS>ATOM
      1 C1         -0.0126    1.0758    0.0080 C.2       1 <0>        -0.1592
      2 C2          1.1459    1.7795    0.0007 C.2       1 <0>        -0.1592
      3 S1          0.5548    3.4640    0.0154 S.3       1 <0>         0.1045
      4 C3         -1.1962    3.1163    0.0303 C.2       1 <0>        -0.1455
      5 C4         -1.2130    1.7610    0.0173 C.2       1 <0>        -0.1790
      6 C5         -2.5209    1.0124    0.0189 C.3       1 <0>         0.1516
      7 N1         -2.9385    0.7618    1.4006 N.pl3     1 <0>        -0.3753
      8 C6         -2.7029   -0.3799    2.1331 C.2       1 <0>         0.0427
      9 C7         -3.2545   -0.1897    3.3437 C.2       1 <0>         0.0234
     10 C8         -3.6279    1.6159    2.2056 C.cat     1 <0>         0.2525
     11 S2         -4.1783    3.2304    1.7642 S.3       1 <0>         0.0250
     12 H1          0.0021   -0.0041    0.0020 H         1 <0>         0.1388
     13 H2          2.1627    1.4156   -0.0113 H         1 <0>         0.1948
     14 H3         -2.0266    3.8068    0.0414 H         1 <0>         0.1967
     15 H4         -3.2807    1.6072   -0.4881 H         1 <0>         0.1272
     16 H5         -2.3964    0.0625   -0.5010 H         1 <0>         0.1357
     17 H6         -2.1750   -1.2607    1.7986 H         1 <0>         0.2275
     18 H7         -3.2477   -0.8971    4.1598 H         1 <0>         0.2297
     19 H8         -5.4518    2.9212    1.2438 H         1 <0>         0.1409
     20 N2         -3.8152    1.0305    3.3648 N.pl3     1 <0>        -0.4557
     21 H9         -4.3128    1.4412    4.1635 H         1 <0>         0.4829
@<TRIPOS>BOND
     1    1    5 1
     2    1    2 2
     3    1   12 1
     4    2    3 1
     5    2   13 1
     6    3    4 1
     7    4    5 2
     8    4   14 1
     9    5    6 1
    10    6    7 1
    11    6   15 1
    12    6   16 1
    13    7   10 1
    14    7    8 1
    15    8    9 2
    16    8   17 1
    17    9   18 1
    18    9   20 1
    19   10   11 1
    20   10   20 2
    21   11   19 1
    22   20   21 1
@<TRIPOS>MOLECULE
ZINC00024727
   20    21     0     0     0
SMALL
USER_CHARGES

@<TRIPOS>ATOM
      1 C1         -0.0162    1.3409    0.0094 C.2       1 <0>        -0.2239
      2 C2          1.3313    1.7689   -0.0012 C.2       1 <0>        -0.1803
      3 C3          2.0923    0.6599   -0.0144 C.2       1 <0>        -0.0490
      4 O1          1.2819   -0.4111   -0.0124 O.3       1 <0>        -0.1509
      5 C4          0.0021   -0.0041    0.0020 C.2       1 <0>        -0.0178
      6 C5          3.5989    0.6249   -0.0294 C.3       1 <0>         0.1992
      7 N1          4.1006    0.6065    1.3469 N.pl3     1 <0>        -0.4621
      8 C6          4.4001    1.7179    2.1198 C.2       1 <0>        -0.0063
      9 C7          4.8253    1.2899    3.3038 C.2       1 <0>        -0.0038
     10 N2          4.7989   -0.0962    3.2909 N.pl3     1 <0>        -0.5674
     11 H1          5.0563   -0.6780    4.0232 H         1 <0>         0.4478
     12 C8          4.3465   -0.4936    2.0853 C.2       1 <0>         0.4657
     13 S1          4.1268   -2.1140    1.5785 S.2       1 <0>        -0.6163
     14 H2         -0.8920    1.9726    0.0252 H         1 <0>         0.1515
     15 H3          1.6822    2.7903    0.0004 H         1 <0>         0.1499
     16 H4         -0.8653   -0.6475    0.0072 H         1 <0>         0.2060
     17 H5          3.9364   -0.2706   -0.5512 H         1 <0>         0.1288
     18 H6          3.9777    1.5089   -0.5424 H         1 <0>         0.1317
     19 H7          4.3049    2.7492    1.8136 H         1 <0>         0.1973
     20 H8          5.1368    1.9119    4.1300 H         1 <0>         0.2001
@<TRIPOS>BOND
     1    1    5 2
     2    1    2 1
     3    1   14 1
     4    2    3 2
     5    2   15 1
     6    3    4 1
     7    3    6 1
     8    4    5 1
     9    5   16 1
    10    6    7 1
    11    6   17 1
    12    6   18 1
    13    7   12 1
    14    7    8 1
    15    8    9 2
    16    8   19 1
    17    9   10 1
    18    9   20 1
    19   10   11 1
    20   10   12 1
    21   12   13 2
@<TRIPOS>MOLECULE
ZINC00024727
   21    22     0     0     0
SMALL
USER_CHARGES
1-(2-furylmethyl)imidazole-2-thiol
@<TRIPOS>ATOM
      1 C1         -0.0162    1.3409    0.0094 C.2       1 <0>        -0.2214
      2 C2          1.3313    1.7689   -0.0012 C.2       1 <0>        -0.1452
      3 C3          2.0923    0.6599   -0.0144 C.2       1 <0>        -0.0927
      4 O1          1.2819   -0.4111   -0.0124 O.3       1 <0>        -0.1608
      5 C4          0.0021   -0.0041    0.0020 C.2       1 <0>         0.0070
      6 C5          3.5989    0.6249   -0.0297 C.3       1 <0>         0.1830
      7 N1          4.1009    0.6063    1.3465 N.pl3     1 <0>        -0.3860
      8 C6          4.4974    1.6962    2.0885 C.2       1 <0>         0.0437
      9 C7          4.8844    1.2331    3.2892 C.2       1 <0>         0.0235
     10 C8          4.2584   -0.4912    2.1360 C.cat     1 <0>         0.2589
     11 S1          3.8903   -2.1522    1.6777 S.3       1 <0>         0.0360
     12 H1         -0.8921    1.9727    0.0172 H         1 <0>         0.1604
     13 H2          1.6822    2.7903    0.0010 H         1 <0>         0.1568
     14 H3         -0.8653   -0.6475    0.0074 H         1 <0>         0.2159
     15 H4          3.9363   -0.2705   -0.5517 H         1 <0>         0.1356
     16 H5          3.9776    1.5090   -0.5427 H         1 <0>         0.1569
     17 H6          4.4970    2.7272    1.7669 H         1 <0>         0.2299
     18 H7          5.2531    1.8320    4.1089 H         1 <0>         0.2309
     19 H8          5.1346   -2.5390    1.1388 H         1 <0>         0.1384
     20 N2          4.7340   -0.1015    3.2952 N.pl3     1 <0>        -0.4550
     21 H9          4.9564   -0.7202    4.0838 H         1 <0>         0.4838
@<TRIPOS>BOND
     1    1    5 2
     2    1    2 1
     3    1   12 1
     4    2    3 2
     5    2   13 1
     6    3    4 1
     7    3    6 1
     8    4    5 1
     9    5   14 1
    10    6    7 1
    11    6   15 1
    12    6   16 1
    13    7   10 1
    14    7    8 1
    15    8    9 2
    16    8   17 1
    17    9   18 1
    18    9   20 1
    19   10   11 1
    20   10   20 2
    21   11   19 1
    22   20   21 1
@<TRIPOS>MOLECULE
ZINC29547560
   20    21     0     0     0
SMALL
USER_CHARGES
1-[(5-chloro-2-thienyl)methyl]imidazole-2-thiol
@<TRIPOS>ATOM
      1 C1          2.5852    4.5523    2.3121 C.2       1 <0>        -0.1198
      2 C2          2.5610    5.1233    3.5712 C.2       1 <0>        -0.1549
      3 C3          1.5538    5.9755    3.8869 C.2       1 <0>        -0.1259
      4 S1          0.6016    5.9971    2.3770 S.3       1 <0>         0.1835
      5 C4          1.6090    4.8698    1.4275 C.2       1 <0>        -0.1962
      6 C5          1.4194    4.3905    0.0114 C.3       1 <0>         0.2029
      7 N1          0.6033    3.1738    0.0128 N.pl3     1 <0>        -0.4487
      8 C6          1.0662    1.8772    0.0020 C.2       1 <0>        -0.0042
      9 C7         -0.0126    1.0758    0.0080 C.2       1 <0>        -0.0207
     10 N2         -1.1125    1.8474    0.0167 N.pl3     1 <0>        -0.5332
     11 C8         -0.7563    3.1108    0.0252 C.2       1 <0>         0.4708
     12 S2         -1.8520    4.4906    0.0415 S.2       1 <0>        -0.6598
     13 Cl1         1.2660    6.8251    5.3732 Cl        1 <0>         0.0184
     14 H1          3.3722    3.8659    2.0367 H         1 <0>         0.1400
     15 H2          3.3294    4.8908    4.2937 H         1 <0>         0.1417
     16 H3          0.9129    5.1711   -0.5752 H         1 <0>         0.1283
     17 H4          2.4003    4.1736   -0.4367 H         1 <0>         0.1279
     18 H5          1.9839    1.4802   -0.0085 H         1 <0>         0.1829
     19 H6          0.1024    0.0824    0.0056 H         1 <0>         0.1833
     20 H7         -2.1099    1.3834    0.0159 H         1 <0>         0.4838
@<TRIPOS>BOND
     1    1    5 2
     2    1    2 1
     3    1   14 1
     4    2    3 2
     5    2   15 1
     6    3    4 1
     7    3   13 1
     8    4    5 1
     9    5    6 1
    10    6   16 1
    11    6   17 1
    12    6    7 1
    13    7   11 1
    14    7    8 1
    15    8   18 1
    16    8    9 2
    17    9   19 1
    18    9   10 1
    19   10   11 1
    20   10   20 1
    21   11   12 2
@<TRIPOS>MOLECULE
ZINC13776323
   23    24     0     0     0
SMALL
USER_CHARGES
1-[(3-fluorophenyl)methyl]-3H-imidazole-2-thione
@<TRIPOS>ATOM
      1 C1          1.1744    1.7832    0.0004 C.ar      1 <0>        -0.0980
      2 C2          1.1559    3.1657    0.0076 C.ar      1 <0>        -0.1108
      3 C3         -0.0496    3.8418    0.0223 C.ar      1 <0>        -0.0988
      4 C4         -1.2382    3.1363    0.0304 C.ar      1 <0>        -0.1158
      5 C5         -1.2210    1.7521    0.0174 C.ar      1 <0>         0.0965
      6 C6         -0.0126    1.0758    0.0080 C.ar      1 <0>        -0.1409
      7 F1         -2.3822    1.0616    0.0187 F         1 <0>        -0.1347
      8 C7         -0.0680    5.3487    0.0302 C.3       1 <0>         0.1597
      9 N1         -0.0869    5.8440   -1.3484 N.pl3     1 <0>        -0.4570
     10 C8          1.0187    6.2308   -2.0903 C.2       1 <0>        -0.0068
     11 C9          0.5926    6.6146   -3.2891 C.2       1 <0>        -0.0048
     12 N2         -0.7873    6.4823   -3.3138 N.pl3     1 <0>        -0.5662
     13 H1         -1.3668    6.6934   -4.0625 H         1 <0>         0.4477
     14 C10        -1.1825    6.0089   -2.1156 C.2       1 <0>         0.4645
     15 S1         -2.7955    5.6747   -1.6493 S.2       1 <0>        -0.6250
     16 H2          2.1169    1.2560   -0.0114 H         1 <0>         0.1357
     17 H3          2.0842    3.7177    0.0014 H         1 <0>         0.1290
     18 H4         -2.1800    3.6648    0.0415 H         1 <0>         0.1575
     19 H5          0.0021   -0.0041    0.0020 H         1 <0>         0.1374
     20 H6         -0.9575    5.6984    0.5541 H         1 <0>         0.1204
     21 H7          0.8223    5.7203    0.5376 H         1 <0>         0.1139
     22 H8          2.0450    6.2196   -1.7543 H         1 <0>         0.1968
     23 H9          1.2113    6.9713   -4.0993 H         1 <0>         0.1995
@<TRIPOS>BOND
     1    1    6 ar
     2    1    2 ar
     3    1   16 1
     4    2    3 ar
     5    2   17 1
     6    3    4 ar
     7    3    8 1
     8    4    5 ar
     9    4   18 1
    10    5    6 ar
    11    5    7 1
    12    6   19 1
    13    8    9 1
    14    8   20 1
    15    8   21 1
    16    9   14 1
    17    9   10 1
    18   10   11 2
    19   10   22 1
    20   11   12 1
    21   11   23 1
    22   12   13 1
    23   12   14 1
    24   14   15 2
