@<TRIPOS>MOLECULE
ZINC02568051
   24    25     0     0     0
SMALL
USER_CHARGES

@<TRIPOS>ATOM
      1 C1         -0.0167    1.3784    0.0096 C.ar      1 <0>        -0.0821
      2 C2          1.1695    2.0865    0.0021 C.ar      1 <0>        -0.1538
      3 C3          2.3802    1.4093   -0.0131 C.ar      1 <0>         0.1207
      4 C4          2.3963    0.0221   -0.0206 C.ar      1 <0>        -0.1492
      5 C5          1.2074   -0.6814   -0.0130 C.ar      1 <0>        -0.0644
      6 C6          0.0021   -0.0041    0.0020 C.ar      1 <0>        -0.1361
      7 C7         -1.2934   -0.7740    0.0107 C.3       1 <0>         0.1590
      8 N1         -1.7268   -1.0161   -1.3676 N.pl3     1 <0>        -0.4552
      9 C8         -2.5361   -0.1834   -2.1253 C.2       1 <0>        -0.0061
     10 C9         -2.7011   -0.7475   -3.3171 C.2       1 <0>        -0.0059
     11 N2         -1.9978   -1.9423   -3.3245 N.pl3     1 <0>        -0.5663
     12 C10        -1.4041   -2.0843   -2.1231 C.2       1 <0>         0.4653
     13 S1         -0.4155   -3.3956   -1.6393 S.2       1 <0>        -0.6296
     14 O1          3.5484    2.1036   -0.0209 O.3       1 <0>        -0.4998
     15 H1         -0.9594    1.9052    0.0259 H         1 <0>         0.1265
     16 H2          1.1543    3.1664    0.0076 H         1 <0>         0.1310
     17 H3          3.3375   -0.5074   -0.0328 H         1 <0>         0.1328
     18 H4          1.2194   -1.7613   -0.0189 H         1 <0>         0.1466
     19 H5         -1.1460   -1.7274    0.5180 H         1 <0>         0.1212
     20 H6         -2.0553   -0.1973    0.5352 H         1 <0>         0.1089
     21 H7         -2.9580    0.7573   -1.8036 H         1 <0>         0.1957
     22 H8         -3.2809   -0.3464   -4.1352 H         1 <0>         0.1992
     23 H9         -1.9403   -2.5652   -4.0658 H         1 <0>         0.4474
     24 H10         3.8951    2.3001    0.8601 H         1 <0>         0.3942
@<TRIPOS>BOND
     1    1    6 ar
     2    1    2 ar
     3    1   15 1
     4    2    3 ar
     5    2   16 1
     6    3    4 ar
     7    3   14 1
     8    4    5 ar
     9    4   17 1
    10    5    6 ar
    11    5   18 1
    12    6    7 1
    13    7   19 1
    14    7   20 1
    15    7    8 1
    16    8   12 1
    17    8    9 1
    18    9   21 1
    19    9   10 2
    20   10   22 1
    21   10   11 1
    22   11   12 1
    23   11   23 1
    24   12   13 2
    25   14   24 1
@<TRIPOS>MOLECULE
ZINC01531682
   25    25     0     0     0
SMALL
USER_CHARGES

@<TRIPOS>ATOM
      1 C1         -0.0187    1.5258    0.0104 C.3       1 <0>        -0.1531
      2 C2          0.0021   -0.0041    0.0020 C.3       1 <0>        -0.1240
      3 C3         -1.4333   -0.5336    0.0129 C.3       1 <0>        -0.1160
      4 C4         -1.4126   -2.0635    0.0045 C.3       1 <0>        -0.0684
      5 C5         -2.8264   -2.5851    0.0152 C.ar      1 <0>        -0.1547
      6 C6         -3.4733   -2.8283    1.2166 C.ar      1 <0>        -0.0927
      7 C7         -4.7734   -3.3079    1.1822 C.ar      1 <0>        -0.1378
      8 C8         -5.3814   -3.5275   -0.0528 C.ar      1 <0>         0.0748
      9 N1         -4.7257   -3.2814   -1.1811 N.ar      1 <0>        -0.4444
     10 C9         -3.4944   -2.8209   -1.1767 C.ar      1 <0>         0.0824
     11 C10        -6.7683   -4.0396   -0.1071 C.2       1 <0>         0.5311
     12 O1         -7.3764   -4.2683    0.9285 O.co2     1 <0>        -0.6832
     13 O2         -7.3063   -4.2340   -1.1874 O.co2     1 <0>        -0.6609
     14 H1          1.0039    1.9031    0.0027 H         1 <0>         0.0510
     15 H2         -0.5459    1.8868   -0.8726 H         1 <0>         0.0537
     16 H3         -0.5289    1.8773    0.9072 H         1 <0>         0.0530
     17 H4          0.5123   -0.3556   -0.8948 H         1 <0>         0.0608
     18 H5          0.5293   -0.3651    0.8851 H         1 <0>         0.0598
     19 H6         -1.9435   -0.1821    0.9097 H         1 <0>         0.0621
     20 H7         -1.9605   -0.1726   -0.8702 H         1 <0>         0.0638
     21 H8         -0.9024   -2.4150   -0.8923 H         1 <0>         0.0698
     22 H9         -0.8854   -2.4246    0.8875 H         1 <0>         0.0675
     23 H10        -2.9757   -2.6486    2.1581 H         1 <0>         0.1239
     24 H11        -5.3075   -3.5088    2.0991 H         1 <0>         0.1382
     25 H12        -2.9946   -2.6282   -2.1145 H         1 <0>         0.1435
@<TRIPOS>BOND
     1    1    2 1
     2    1   14 1
     3    1   15 1
     4    1   16 1
     5    2    3 1
     6    2   17 1
     7    2   18 1
     8    3    4 1
     9    3   19 1
    10    3   20 1
    11    4    5 1
    12    4   21 1
    13    4   22 1
    14    5   10 ar
    15    5    6 ar
    16    6    7 ar
    17    6   23 1
    18    7    8 ar
    19    7   24 1
    20    8    9 ar
    21    8   11 1
    22    9   10 ar
    23   10   25 1
    24   11   12 2
    25   11   13 1
@<TRIPOS>MOLECULE
ZINC13776323
   23    24     0     0     0
SMALL
USER_CHARGES
1-[(3-fluorophenyl)methyl]-3H-imidazole-2-thione
@<TRIPOS>ATOM
      1 C1          1.1744    1.7832    0.0004 C.ar      1 <0>        -0.0980
      2 C2          1.1559    3.1657    0.0076 C.ar      1 <0>        -0.1108
      3 C3         -0.0496    3.8418    0.0223 C.ar      1 <0>        -0.0988
      4 C4         -1.2382    3.1363    0.0304 C.ar      1 <0>        -0.1158
      5 C5         -1.2210    1.7521    0.0174 C.ar      1 <0>         0.0965
      6 C6         -0.0126    1.0758    0.0080 C.ar      1 <0>        -0.1409
      7 F1         -2.3822    1.0616    0.0187 F         1 <0>        -0.1347
      8 C7         -0.0680    5.3487    0.0302 C.3       1 <0>         0.1597
      9 N1         -0.0869    5.8440   -1.3484 N.pl3     1 <0>        -0.4570
     10 C8          1.0187    6.2308   -2.0903 C.2       1 <0>        -0.0068
     11 C9          0.5926    6.6146   -3.2891 C.2       1 <0>        -0.0048
     12 N2         -0.7873    6.4823   -3.3138 N.pl3     1 <0>        -0.5662
     13 H1         -1.3668    6.6934   -4.0625 H         1 <0>         0.4477
     14 C10        -1.1825    6.0089   -2.1156 C.2       1 <0>         0.4645
     15 S1         -2.7955    5.6747   -1.6493 S.2       1 <0>        -0.6250
     16 H2          2.1169    1.2560   -0.0114 H         1 <0>         0.1357
     17 H3          2.0842    3.7177    0.0014 H         1 <0>         0.1290
     18 H4         -2.1800    3.6648    0.0415 H         1 <0>         0.1575
     19 H5          0.0021   -0.0041    0.0020 H         1 <0>         0.1374
     20 H6         -0.9575    5.6984    0.5541 H         1 <0>         0.1204
     21 H7          0.8223    5.7203    0.5376 H         1 <0>         0.1139
     22 H8          2.0450    6.2196   -1.7543 H         1 <0>         0.1968
     23 H9          1.2113    6.9713   -4.0993 H         1 <0>         0.1995
@<TRIPOS>BOND
     1    1    6 ar
     2    1    2 ar
     3    1   16 1
     4    2    3 ar
     5    2   17 1
     6    3    4 ar
     7    3    8 1
     8    4    5 ar
     9    4   18 1
    10    5    6 ar
    11    5    7 1
    12    6   19 1
    13    8    9 1
    14    8   20 1
    15    8   21 1
    16    9   14 1
    17    9   10 1
    18   10   11 2
    19   10   22 1
    20   11   12 1
    21   11   23 1
    22   12   13 1
    23   12   14 1
    24   14   15 2
