@<TRIPOS>MOLECULE
ZINC26025260
   27    26     0     0     0
SMALL
USER_CHARGES
(Z)-2-(3-methylbutanoylamino)but-2-enoic acid
@<TRIPOS>ATOM
      1 C1         -0.5483    0.9851    2.1926 C.3       1 <0>        -0.1110
      2 C2          0.3598    0.8096    1.0028 C.2       1 <0>        -0.1695
      3 C3          0.0026   -0.0022    0.0039 C.2       1 <0>         0.0730
      4 C4          0.8880   -0.1692   -1.1627 C.2       1 <0>         0.4921
      5 O1          0.5215   -0.8304   -2.1139 O.co2     1 <0>        -0.6237
      6 O2          2.1041    0.4116   -1.1743 O.co2     1 <0>        -0.7590
      7 N1         -1.2139   -0.6952    0.0651 N.am      1 <0>        -0.6814
      8 C5         -1.2278   -2.0406   -0.0132 C.2       1 <0>         0.5151
      9 O3         -0.1836   -2.6569   -0.0467 O.2       1 <0>        -0.5160
     10 C6         -2.5405   -2.7792   -0.0590 C.3       1 <0>        -0.1321
     11 C7         -2.2764   -4.2837   -0.1459 C.3       1 <0>        -0.0831
     12 C8         -1.5908   -4.7562    1.1377 C.3       1 <0>        -0.1530
     13 C9         -3.6036   -5.0254   -0.3179 C.3       1 <0>        -0.1457
     14 H1         -0.0882    1.6858    2.9048 H         1 <0>         0.0556
     15 H2         -0.7025    0.0125    2.6828 H         1 <0>         0.0565
     16 H3         -1.5171    1.3851    1.8586 H         1 <0>         0.0550
     17 H4          1.3168    1.3500    0.9569 H         1 <0>         0.1349
     18 H5         -2.1575   -0.1411    0.1771 H         1 <0>         0.4081
     19 H6         -3.1165   -2.5601    0.8522 H         1 <0>         0.0853
     20 H7         -3.1126   -2.4558   -0.9411 H         1 <0>         0.0898
     21 H8         -1.6253   -4.4924   -1.0076 H         1 <0>         0.0803
     22 H9         -1.4010   -5.8379    1.0752 H         1 <0>         0.0483
     23 H10        -2.2419   -4.5474    1.9994 H         1 <0>         0.0436
     24 H11        -0.6367   -4.2230    1.2614 H         1 <0>         0.0775
     25 H12        -3.4137   -6.1071   -0.3804 H         1 <0>         0.0545
     26 H13        -4.0965   -4.6857   -1.2408 H         1 <0>         0.0533
     27 H14        -4.2547   -4.8166    0.5438 H         1 <0>         0.0517
@<TRIPOS>BOND
     1    1    2 1
     2    1   14 1
     3    1   15 1
     4    1   16 1
     5    2    3 2
     6    2   17 1
     7    3    4 1
     8    3    7 1
     9    4    5 2
    10    4    6 1
    11    7    8 am
    12    7   18 1
    13    8    9 2
    14    8   10 1
    15   10   11 1
    16   10   19 1
    17   10   20 1
    18   11   12 1
    19   11   13 1
    20   11   21 1
    21   12   22 1
    22   12   23 1
    23   12   24 1
    24   13   25 1
    25   13   26 1
    26   13   27 1
@<TRIPOS>MOLECULE
ZINC04095696
   49    49     0     0     0
SMALL
USER_CHARGES

@<TRIPOS>ATOM
      1 C1          3.6768    0.2035   -0.7226 C.3       1 <0>        -0.1037
      2 C2          2.6548   -0.9211   -0.5443 C.3       1 <0>        -0.0969
      3 C3          1.2156   -0.5217   -0.2128 C.3       1 <0>        -0.1484
      4 C4          2.1006   -1.1556    0.8623 C.3       1 <0>        -0.1838
      5 H1          1.8822   -2.1833    1.1524 H         1 <0>         0.1147
      6 C5          2.6031   -0.2612    1.9662 C.2       1 <0>         0.5379
      7 O1          3.4166    0.6048    1.7223 O.2       1 <0>        -0.4948
      8 N1          2.1485   -0.4235    3.2246 N.am      1 <0>        -0.6705
      9 C6          2.6918    0.3368    4.2697 C.2       1 <0>         0.0661
     10 C7          3.2778   -0.2728    5.3055 C.2       1 <0>        -0.1800
     11 C8          3.4582   -1.7689    5.2956 C.3       1 <0>        -0.0806
     12 C9          4.9333   -2.1062    5.5223 C.3       1 <0>        -0.1079
     13 C10         5.1165   -3.6252    5.5122 C.3       1 <0>        -0.1022
     14 C11         6.5915   -3.9625    5.7390 C.3       1 <0>        -0.0645
     15 S1          6.8088   -5.7634    5.7270 S.3       1 <0>        -0.2995
     16 C12         8.5866   -5.9928    6.0050 C.3       1 <0>        -0.0975
     17 C13         8.9120   -7.4878    6.0182 C.3       1 <0>        -0.0257
     18 H2          8.6340   -7.9286    5.0608 H         1 <0>         0.1410
     19 C14        10.3889   -7.6784    6.2491 C.2       1 <0>         0.4928
     20 O2         10.8200   -7.7825    7.3848 O.co2     1 <0>        -0.6635
     21 O3         11.1528   -7.7284    5.3001 O.co2     1 <0>        -0.6307
     22 N2          8.1593   -8.1432    7.0960 N.4       1 <0>        -0.6130
     23 C15         2.6171    1.8062    4.2267 C.2       1 <0>         0.5189
     24 O4          3.0178    2.4671    5.1751 O.co2     1 <0>        -0.6935
     25 O5          2.1543    2.3667    3.2426 O.co2     1 <0>        -0.6687
     26 C16         2.8606   -2.1472   -1.4360 C.3       1 <0>        -0.1128
     27 H3          4.5484    0.0046   -0.0991 H         1 <0>         0.0658
     28 H4          3.9819    0.2550   -1.7678 H         1 <0>         0.0436
     29 H5          3.2282    1.1522   -0.4279 H         1 <0>         0.0699
     30 H6          0.9968    0.5422   -0.1216 H         1 <0>         0.1027
     31 H7          0.4150   -1.1324   -0.6300 H         1 <0>         0.0982
     32 H8          1.4455   -1.0664    3.4072 H         1 <0>         0.3914
     33 H9          3.6217    0.3070    6.1493 H         1 <0>         0.1296
     34 H10         2.8578   -2.2126    6.0897 H         1 <0>         0.0625
     35 H11         3.1384   -2.1671    4.3326 H         1 <0>         0.0617
     36 H12         5.5337   -1.6625    4.7282 H         1 <0>         0.0670
     37 H13         5.2531   -1.7081    6.4853 H         1 <0>         0.0666
     38 H14         4.5161   -4.0689    6.3064 H         1 <0>         0.0710
     39 H15         4.7966   -4.0233    4.5493 H         1 <0>         0.0725
     40 H16         7.1920   -3.5188    4.9448 H         1 <0>         0.0912
     41 H17         6.9114   -3.5643    6.7020 H         1 <0>         0.0883
     42 H18         9.1451   -5.5065    5.2052 H         1 <0>         0.1220
     43 H19         8.8645   -5.5520    6.9623 H         1 <0>         0.1026
     44 H20         8.4165   -7.7352    7.9822 H         1 <0>         0.4334
     45 H21         7.1704   -8.0156    6.9414 H         1 <0>         0.4198
     46 H22         3.5657   -2.8285   -0.9599 H         1 <0>         0.0585
     47 H23         1.9070   -2.6546   -1.5818 H         1 <0>         0.0553
     48 H24         3.2558   -1.8319   -2.4017 H         1 <0>         0.0627
     49 H25         8.3738   -9.1291    7.1047 H         1 <0>         0.4304
@<TRIPOS>BOND
     1    1    2 1
     2    1   27 1
     3    1   28 1
     4    1   29 1
     5    2    4 1
     6    2    3 1
     7    2   26 1
     8    3    4 1
     9    3   30 1
    10    3   31 1
    11    4    5 1
    12    4    6 1
    13    6    7 2
    14    6    8 am
    15    8    9 1
    16    8   32 1
    17    9   10 2
    18    9   23 1
    19   10   11 1
    20   10   33 1
    21   11   12 1
    22   11   34 1
    23   11   35 1
    24   12   13 1
    25   12   36 1
    26   12   37 1
    27   13   14 1
    28   13   38 1
    29   13   39 1
    30   14   15 1
    31   14   40 1
    32   14   41 1
    33   15   16 1
    34   16   17 1
    35   16   42 1
    36   16   43 1
    37   17   18 1
    38   17   19 1
    39   17   22 1
    40   19   20 2
    41   19   21 1
    42   22   44 1
    43   22   45 1
    44   22   49 1
    45   23   24 2
    46   23   25 1
    47   26   46 1
    48   26   47 1
    49   26   48 1
