@<TRIPOS>MOLECULE
ZINC03789195
   58    61     0     0     0
SMALL
USER_CHARGES

@<TRIPOS>ATOM
      1 C1          0.0517    1.5165   -0.0013 C.3       1 <0>        -0.1510
      2 C2          0.0597   -0.0113   -0.0039 C.3       1 <0>        -0.0205
      3 C3         -1.3839   -0.5183    0.0681 C.3       1 <0>        -0.1057
      4 C4         -2.0073   -0.0926    1.3956 C.3       1 <0>        -0.1522
      5 C5         -1.2467   -0.7149    2.5584 C.3       1 <0>         0.1241
      6 H1         -1.6690   -0.3382    3.4995 H         1 <0>         0.0545
      7 C6          0.2443   -0.3839    2.5303 C.3       1 <0>        -0.0289
      8 C7          0.8591   -0.5918    1.1619 C.3       1 <0>        -0.0651
      9 H2          0.8616   -1.6981    1.0154 H         1 <0>         0.0708
     10 C8          2.3272   -0.1820    1.1054 C.3       1 <0>        -0.1144
     11 C9          2.9588   -0.6405   -0.2274 C.3       1 <0>        -0.1116
     12 C10         2.1628    0.0090   -1.3378 C.3       1 <0>        -0.0892
     13 H3          2.1939    1.0957   -1.1977 H         1 <0>         0.0728
     14 C11         0.7113   -0.5117   -1.2851 C.3       1 <0>        -0.0404
     15 C12         0.6599   -2.0338   -1.3497 C.3       1 <0>        -0.1018
     16 C13         1.4022   -2.6209   -2.5424 C.3       1 <0>        -0.1367
     17 C14         1.0650   -1.8831   -3.8405 C.3       1 <0>         0.1458
     18 C15         1.2842   -0.3737   -3.5928 C.3       1 <0>        -0.0767
     19 H4          1.2955    0.2236   -4.5095 H         1 <0>         0.0879
     20 C16         2.6032   -0.2675   -2.7728 C.3       1 <0>        -0.1192
     21 C17         0.1513    0.0486   -2.6005 C.3       1 <0>        -0.1034
     22 C18         1.9787   -2.3701   -4.9727 C.3       1 <0>         0.0475
     23 O1          1.7902   -3.7733   -5.1666 O.3       1 <0>        -0.5736
     24 O2         -0.2979   -2.1346   -4.2044 O.3       1 <0>        -0.5537
     25 C19         0.4780    1.0227    3.0785 C.3       1 <0>        -0.1459
     26 C20         0.9253   -1.3705    3.5128 C.3       1 <0>         0.0830
     27 O3          0.3833   -1.1888    4.8225 O.3       1 <0>        -0.5704
     28 O4         -1.4166   -2.1369    2.5351 O.3       1 <0>        -0.5646
     29 H5          1.0764    1.8851    0.0448 H         1 <0>         0.0581
     30 H6         -0.4242    1.8789   -0.9125 H         1 <0>         0.0571
     31 H7         -0.5029    1.8754    0.8657 H         1 <0>         0.0608
     32 H8         -1.9566   -0.0961   -0.7578 H         1 <0>         0.0622
     33 H9         -1.3910   -1.6059   -0.0036 H         1 <0>         0.0714
     34 H10        -2.0319    0.9887    1.4885 H         1 <0>         0.0736
     35 H11        -3.0458   -0.4531    1.4215 H         1 <0>         0.0589
     36 H12         2.4249    0.8974    1.1806 H         1 <0>         0.0647
     37 H13         2.8795   -0.6491    1.9186 H         1 <0>         0.0605
     38 H14         3.9969   -0.3105   -0.2686 H         1 <0>         0.0612
     39 H15         2.9097   -1.7236   -0.3037 H         1 <0>         0.0658
     40 H16         1.0855   -2.4583   -0.4407 H         1 <0>         0.0656
     41 H17        -0.3894   -2.3441   -1.4097 H         1 <0>         0.0638
     42 H18         2.4733   -2.6120   -2.3584 H         1 <0>         0.0711
     43 H19         1.0986   -3.6727   -2.6533 H         1 <0>         0.0628
     44 H20         3.1914    0.5850   -3.1375 H         1 <0>         0.0600
     45 H21         3.2044   -1.1630   -2.8329 H         1 <0>         0.0736
     46 H22        -0.8004   -0.4149   -2.8519 H         1 <0>         0.0837
     47 H23         0.0558    1.1339   -2.5766 H         1 <0>         0.0667
     48 H24         1.7318   -1.8398   -5.8924 H         1 <0>         0.0526
     49 H25         3.0185   -2.1762   -4.7094 H         1 <0>         0.0524
     50 H26         2.3375   -4.1503   -5.8691 H         1 <0>         0.3828
     51 H27        -0.4999   -3.0688   -4.3511 H         1 <0>         0.3797
     52 H28         0.2229    1.0468    4.1379 H         1 <0>         0.0661
     53 H29         1.5262    1.2929    2.9508 H         1 <0>         0.0601
     54 H30        -0.1485    1.7321    2.5377 H         1 <0>         0.0589
     55 H31         0.7448   -2.3938    3.1836 H         1 <0>         0.0553
     56 H32         1.9983   -1.1796    3.5340 H         1 <0>         0.0390
     57 H33         0.7642   -1.7749    5.4907 H         1 <0>         0.3766
     58 H34        -2.3368   -2.4243    2.6102 H         1 <0>         0.3734
@<TRIPOS>BOND
     1    1    2 1
     2    1   29 1
     3    1   30 1
     4    1   31 1
     5    2    8 1
     6    2   14 1
     7    2    3 1
     8    3    4 1
     9    3   32 1
    10    3   33 1
    11    4    5 1
    12    4   34 1
    13    4   35 1
    14    5    6 1
    15    5    7 1
    16    5   28 1
    17    7    8 1
    18    7   25 1
    19    7   26 1
    20    8    9 1
    21    8   10 1
    22   10   11 1
    23   10   36 1
    24   10   37 1
    25   11   12 1
    26   11   38 1
    27   11   39 1
    28   12   13 1
    29   12   20 1
    30   12   14 1
    31   14   21 1
    32   14   15 1
    33   15   16 1
    34   15   40 1
    35   15   41 1
    36   16   17 1
    37   16   42 1
    38   16   43 1
    39   17   18 1
    40   17   22 1
    41   17   24 1
    42   18   19 1
    43   18   20 1
    44   18   21 1
    45   20   44 1
    46   20   45 1
    47   21   46 1
    48   21   47 1
    49   22   23 1
    50   22   48 1
    51   22   49 1
    52   23   50 1
    53   24   51 1
    54   25   52 1
    55   25   53 1
    56   25   54 1
    57   26   27 1
    58   26   55 1
    59   26   56 1
    60   27   57 1
    61   28   58 1
@<TRIPOS>MOLECULE
ZINC03598128
   39    41     0     0     0
SMALL
USER_CHARGES
N-[(4-chlorophenyl)methyl]-3-methoxy-naphthalene-2-carboxamide
@<TRIPOS>ATOM
      1 C1          4.7084    4.4522   -0.0017 C.3       1 <0>         0.0202
      2 O1          3.5129    3.6694   -0.0003 O.3       1 <0>        -0.2825
      3 C2          2.3349    4.3436    0.0090 C.ar      1 <0>         0.1820
      4 C3          2.3379    5.7075    0.0113 C.ar      1 <0>        -0.2230
      5 C4          1.1230    6.4123    0.0267 C.ar      1 <0>         0.0095
      6 C5          1.1018    7.8180    0.0355 C.ar      1 <0>        -0.1252
      7 C6         -0.0901    8.4747    0.0508 C.ar      1 <0>        -0.0921
      8 C7         -1.2958    7.7750    0.0577 C.ar      1 <0>        -0.1313
      9 C8         -1.3161    6.4146    0.0501 C.ar      1 <0>        -0.0858
     10 C9         -0.1042    5.6999    0.0342 C.ar      1 <0>        -0.0949
     11 C10        -0.0916    4.2980    0.0260 C.ar      1 <0>        -0.0256
     12 C11         1.1201    3.6262    0.0108 C.ar      1 <0>        -0.1520
     13 C12         1.1401    2.1505    0.0027 C.2       1 <0>         0.5592
     14 O2          2.2011    1.5570   -0.0106 O.2       1 <0>        -0.5094
     15 N1         -0.0178    1.4608    0.0101 N.am      1 <0>        -0.7284
     16 C13         0.0021   -0.0041    0.0020 C.3       1 <0>         0.1629
     17 C14        -1.4117   -0.5257    0.0127 C.ar      1 <0>        -0.1072
     18 C15        -2.0465   -0.7766    1.2149 C.ar      1 <0>        -0.0869
     19 C16        -3.3452   -1.2497    1.2254 C.ar      1 <0>        -0.1118
     20 C17        -4.0058   -1.4828    0.0323 C.ar      1 <0>        -0.0270
     21 C18        -3.3680   -1.2368   -1.1705 C.ar      1 <0>        -0.1117
     22 C19        -2.0714   -0.7584   -1.1797 C.ar      1 <0>        -0.0870
     23 Cl1        -5.6347   -2.0831    0.0447 Cl        1 <0>        -0.0651
     24 H1          5.5753    3.7915   -0.0094 H         1 <0>         0.1042
     25 H2          4.7266    5.0860   -0.8883 H         1 <0>         0.0570
     26 H3          4.7351    5.0763    0.8916 H         1 <0>         0.0569
     27 H4          3.2744    6.2455    0.0060 H         1 <0>         0.1393
     28 H5          2.0274    8.3743    0.0296 H         1 <0>         0.1289
     29 H6         -0.1020    9.5546    0.0575 H         1 <0>         0.1260
     30 H7         -2.2276    8.3209    0.0695 H         1 <0>         0.1261
     31 H8         -2.2578    5.8859    0.0555 H         1 <0>         0.1300
     32 H9         -1.0196    3.7457    0.0312 H         1 <0>         0.1386
     33 H10        -0.8643    1.9343    0.0167 H         1 <0>         0.3991
     34 H11         0.5123   -0.3556   -0.8948 H         1 <0>         0.0812
     35 H12         0.5293   -0.3651    0.8851 H         1 <0>         0.0814
     36 H13        -1.5291   -0.5988    2.1460 H         1 <0>         0.1354
     37 H14        -3.8425   -1.4415    2.1646 H         1 <0>         0.1368
     38 H15        -3.8834   -1.4182   -2.1021 H         1 <0>         0.1367
     39 H16        -1.5735   -0.5660   -2.1186 H         1 <0>         0.1354
@<TRIPOS>BOND
     1    1    2 1
     2    1   24 1
     3    1   25 1
     4    1   26 1
     5    2    3 1
     6    3   12 ar
     7    3    4 ar
     8    4    5 ar
     9    4   27 1
    10    5   10 ar
    11    5    6 ar
    12    6    7 ar
    13    6   28 1
    14    7    8 ar
    15    7   29 1
    16    8    9 ar
    17    8   30 1
    18    9   10 ar
    19    9   31 1
    20   10   11 ar
    21   11   12 ar
    22   11   32 1
    23   12   13 1
    24   13   14 2
    25   13   15 am
    26   15   16 1
    27   15   33 1
    28   16   17 1
    29   16   34 1
    30   16   35 1
    31   17   22 ar
    32   17   18 ar
    33   18   19 ar
    34   18   36 1
    35   19   20 ar
    36   19   37 1
    37   20   21 ar
    38   20   23 1
    39   21   22 ar
    40   21   38 1
    41   22   39 1
