@<TRIPOS>MOLECULE
ZINC06020153
   38    38     0     0     0
SMALL
USER_CHARGES
(2S)-2-[[(2R)-2-benzyl-4-(hydroxyamino)-4-oxo-butanoyl]amino]propanoic acid
@<TRIPOS>ATOM
      1 C1         -5.6720    7.8357   -1.6245 C.3       1 <0>        -0.1338
      2 C2         -6.0443    6.4031   -2.0117 C.3       1 <0>         0.1040
      3 H1         -6.6185    5.9140   -1.2110 H         1 <0>         0.0838
      4 C3         -6.8536    6.4205   -3.2828 C.2       1 <0>         0.4649
      5 O1         -6.4519    5.8391   -4.2628 O.co2     1 <0>        -0.6384
      6 O2         -8.0209    7.0818   -3.3262 O.co2     1 <0>        -0.7584
      7 N1         -4.8234    5.6209   -2.2209 N.am      1 <0>        -0.7175
      8 C4         -4.2073    5.0399   -1.1723 C.2       1 <0>         0.5189
      9 O3         -4.6637    5.1647   -0.0556 O.2       1 <0>        -0.5385
     10 C5         -2.9515    4.2353   -1.3874 C.3       1 <0>        -0.0834
     11 H2         -3.1797    3.4024   -2.0688 H         1 <0>         0.1062
     12 C6         -2.4592    3.6897   -0.0454 C.3       1 <0>        -0.0736
     13 C7         -1.2751    2.7861   -0.2745 C.ar      1 <0>        -0.0718
     14 C8         -1.4698    1.4379   -0.5101 C.ar      1 <0>        -0.1160
     15 C9         -0.3833    0.6082   -0.7153 C.ar      1 <0>        -0.1173
     16 C10         0.8972    1.1284   -0.6954 C.ar      1 <0>        -0.1296
     17 C11         1.0916    2.4775   -0.4650 C.ar      1 <0>        -0.1195
     18 C12         0.0055    3.3063   -0.2546 C.ar      1 <0>        -0.1204
     19 C13        -1.8721    5.1290   -2.0015 C.3       1 <0>        -0.1256
     20 C14        -1.6481    6.3272   -1.1155 C.2       1 <0>         0.5145
     21 O4         -2.3492    6.5004   -0.1411 O.2       1 <0>        -0.4901
     22 N2         -0.6687    7.2064   -1.4059 N.am      1 <0>        -0.6046
     23 O5         -0.4583    8.3323   -0.5734 O.3       1 <0>        -0.3500
     24 H3         -5.0813    7.8230   -0.6967 H         1 <0>         0.0511
     25 H4         -6.5887    8.4231   -1.4675 H         1 <0>         0.0667
     26 H5         -5.0784    8.2910   -2.4309 H         1 <0>         0.0425
     27 H6         -4.4095    5.5077   -3.2338 H         1 <0>         0.4158
     28 H7         -2.1618    4.5265    0.6037 H         1 <0>         0.0970
     29 H8         -3.2670    3.1203    0.4375 H         1 <0>         0.0838
     30 H9         -2.4705    1.0322   -0.5301 H         1 <0>         0.1234
     31 H10        -0.5353   -0.4458   -0.8956 H         1 <0>         0.1200
     32 H11         1.7457    0.4810   -0.8602 H         1 <0>         0.1179
     33 H12         2.0921    2.8841   -0.4498 H         1 <0>         0.1183
     34 H13         0.1573    4.3604   -0.0749 H         1 <0>         0.1169
     35 H14        -0.9347    4.5610   -2.0940 H         1 <0>         0.1064
     36 H15        -2.1970    5.4649   -2.9973 H         1 <0>         0.1059
     37 H16        -0.0328    7.0493   -2.2896 H         1 <0>         0.4198
     38 H17         0.3410    9.0499   -0.8104 H         1 <0>         0.4107
@<TRIPOS>BOND
     1    1    2 1
     2    1   24 1
     3    1   25 1
     4    1   26 1
     5    2    3 1
     6    2    4 1
     7    2    7 1
     8    4    5 2
     9    4    6 1
    10    7    8 am
    11    7   27 1
    12    8    9 2
    13    8   10 1
    14   10   11 1
    15   10   12 1
    16   10   19 1
    17   12   13 1
    18   12   28 1
    19   12   29 1
    20   13   18 ar
    21   13   14 ar
    22   14   15 ar
    23   14   30 1
    24   15   16 ar
    25   15   31 1
    26   16   17 ar
    27   16   32 1
    28   17   18 ar
    29   17   33 1
    30   18   34 1
    31   19   20 1
    32   19   35 1
    33   19   36 1
    34   20   21 2
    35   20   22 am
    36   22   23 1
    37   22   37 1
    38   23   38 1
@<TRIPOS>MOLECULE
ZINC13829391
   38    39     0     0     0
SMALL
USER_CHARGES

@<TRIPOS>ATOM
      1 C1         -0.0170    1.3989    0.0097 C.ar      1 <0>         0.0165
      2 C2          1.1775    2.0684    0.0019 C.ar      1 <0>        -0.2364
      3 C3          2.3672    1.3437   -0.0133 C.ar      1 <0>         0.4186
      4 N1          2.3578    0.0178   -0.0204 N.ar      1 <0>        -0.5310
      5 C4          1.2318   -0.6650   -0.0133 C.ar      1 <0>         0.2105
      6 C5          0.0021   -0.0041    0.0020 C.ar      1 <0>        -0.1222
      7 C6         -1.2220   -0.7472    0.0102 C.1       1 <0>         0.2482
      8 N2         -2.1930   -1.3367    0.0167 N.1       1 <0>        -0.3982
      9 N3          3.5779    2.0182   -0.0217 N.pl3     1 <0>        -0.7209
     10 C7          3.6004    3.4830   -0.0146 C.3       1 <0>         0.1024
     11 C8          5.0504    3.9709   -0.0262 C.3       1 <0>        -0.0186
     12 N4          5.0729    5.4397   -0.0191 N.4       1 <0>        -0.4957
     13 C9          6.4652    5.9082   -0.0303 C.3       1 <0>        -0.0108
     14 C10         6.4883    7.4150   -0.0229 C.2       1 <0>         0.5409
     15 O1          5.4473    8.0375   -0.0096 O.2       1 <0>        -0.5057
     16 N5          7.6656    8.0710   -0.0311 N.am      1 <0>        -0.4592
     17 C11         7.8331    9.5337   -0.0194 C.3       1 <0>         0.2120
     18 H1          7.3835    9.9794   -0.9067 H         1 <0>         0.1490
     19 C12         9.3646    9.7143   -0.0364 C.3       1 <0>        -0.1452
     20 C13         9.8946    8.2983   -0.0560 C.2       1 <0>         0.1403
     21 N6          8.9261    7.4772   -0.0459 N.2       1 <0>        -0.2700
     22 C14         7.2518   10.1134    1.2024 C.1       1 <0>         0.1767
     23 N7          6.8031   10.5608    2.1453 N.1       1 <0>        -0.3664
     24 H2         -0.9524    1.9385    0.0260 H         1 <0>         0.1485
     25 H3          1.1971    3.1482    0.0072 H         1 <0>         0.1392
     26 H4          1.2598   -1.7447   -0.0197 H         1 <0>         0.1746
     27 H5          4.4104    1.5205   -0.0324 H         1 <0>         0.4155
     28 H6          3.0835    3.8586   -0.8977 H         1 <0>         0.0914
     29 H7          3.1008    3.8497    0.8822 H         1 <0>         0.0908
     30 H8          5.5673    3.5953    0.8569 H         1 <0>         0.1459
     31 H9          5.5499    3.6043   -0.9230 H         1 <0>         0.1469
     32 H10         4.5945    5.7874   -0.8365 H         1 <0>         0.4386
     33 H11         6.9820    5.5326    0.8528 H         1 <0>         0.1706
     34 H12         6.9647    5.5415   -0.9270 H         1 <0>         0.1733
     35 H13         9.6767   10.2523   -0.9315 H         1 <0>         0.1399
     36 H14         9.6985   10.2356    0.8608 H         1 <0>         0.1261
     37 H15        10.9397    8.0262   -0.0718 H         1 <0>         0.2256
     38 H16         4.6105    5.7791    0.8111 H         1 <0>         0.4383
@<TRIPOS>BOND
     1    1    6 ar
     2    1    2 ar
     3    1   24 1
     4    2    3 ar
     5    2   25 1
     6    3    4 ar
     7    3    9 1
     8    4    5 ar
     9    5    6 ar
    10    5   26 1
    11    6    7 1
    12    7    8 3
    13    9   10 1
    14    9   27 1
    15   10   11 1
    16   10   28 1
    17   10   29 1
    18   11   12 1
    19   11   30 1
    20   11   31 1
    21   12   13 1
    22   12   32 1
    23   12   38 1
    24   13   14 1
    25   13   33 1
    26   13   34 1
    27   14   15 2
    28   14   16 am
    29   16   21 1
    30   16   17 1
    31   17   18 1
    32   17   19 1
    33   17   22 1
    34   19   20 1
    35   19   35 1
    36   19   36 1
    37   20   21 2
    38   20   37 1
    39   22   23 3
@<TRIPOS>MOLECULE
ZINC13829393
   38    39     0     0     0
SMALL
USER_CHARGES

@<TRIPOS>ATOM
      1 C1         -0.0170    1.3989    0.0097 C.ar      1 <0>         0.0165
      2 C2          1.1775    2.0684    0.0019 C.ar      1 <0>        -0.2364
      3 C3          2.3672    1.3437   -0.0133 C.ar      1 <0>         0.4186
      4 N1          2.3578    0.0178   -0.0204 N.ar      1 <0>        -0.5310
      5 C4          1.2318   -0.6650   -0.0133 C.ar      1 <0>         0.2105
      6 C5          0.0021   -0.0041    0.0020 C.ar      1 <0>        -0.1222
      7 C6         -1.2220   -0.7472    0.0102 C.1       1 <0>         0.2482
      8 N2         -2.1930   -1.3367    0.0167 N.1       1 <0>        -0.3982
      9 N3          3.5779    2.0182   -0.0217 N.pl3     1 <0>        -0.7208
     10 C7          3.6004    3.4830   -0.0146 C.3       1 <0>         0.1024
     11 C8          5.0504    3.9709   -0.0262 C.3       1 <0>        -0.0186
     12 N4          5.0729    5.4397   -0.0191 N.4       1 <0>        -0.4957
     13 C9          6.4652    5.9082   -0.0303 C.3       1 <0>        -0.0108
     14 C10         6.4883    7.4150   -0.0229 C.2       1 <0>         0.5409
     15 O1          5.4473    8.0375   -0.0096 O.2       1 <0>        -0.5058
     16 N5          7.6656    8.0710   -0.0311 N.am      1 <0>        -0.4593
     17 C11         7.8331    9.5337   -0.0194 C.3       1 <0>         0.2121
     18 H1          7.4053    9.9627    0.8867 H         1 <0>         0.1487
     19 C12         9.3646    9.7143   -0.0364 C.3       1 <0>        -0.1452
     20 C13         9.8946    8.2983   -0.0560 C.2       1 <0>         0.1403
     21 N6          8.9261    7.4772   -0.0459 N.2       1 <0>        -0.2699
     22 C14         7.2224   10.1360   -1.2157 C.1       1 <0>         0.1769
     23 N7          6.7511   10.6008   -2.1389 N.1       1 <0>        -0.3663
     24 H2         -0.9524    1.9385    0.0260 H         1 <0>         0.1485
     25 H3          1.1971    3.1482    0.0072 H         1 <0>         0.1392
     26 H4          1.2598   -1.7447   -0.0197 H         1 <0>         0.1746
     27 H5          4.4104    1.5205   -0.0324 H         1 <0>         0.4155
     28 H6          3.0835    3.8586   -0.8977 H         1 <0>         0.0908
     29 H7          3.1008    3.8497    0.8822 H         1 <0>         0.0914
     30 H8          5.5673    3.5953    0.8569 H         1 <0>         0.1469
     31 H9          5.5499    3.6043   -0.9230 H         1 <0>         0.1459
     32 H10         4.5945    5.7874   -0.8365 H         1 <0>         0.4382
     33 H11         6.9820    5.5326    0.8528 H         1 <0>         0.1732
     34 H12         6.9647    5.5415   -0.9270 H         1 <0>         0.1706
     35 H13         9.6767   10.2523   -0.9315 H         1 <0>         0.1260
     36 H14         9.6985   10.2356    0.8608 H         1 <0>         0.1400
     37 H15        10.9397    8.0262   -0.0718 H         1 <0>         0.2256
     38 H16         4.6105    5.7791    0.8111 H         1 <0>         0.4387
@<TRIPOS>BOND
     1    1    6 ar
     2    1    2 ar
     3    1   24 1
     4    2    3 ar
     5    2   25 1
     6    3    4 ar
     7    3    9 1
     8    4    5 ar
     9    5    6 ar
    10    5   26 1
    11    6    7 1
    12    7    8 3
    13    9   10 1
    14    9   27 1
    15   10   11 1
    16   10   28 1
    17   10   29 1
    18   11   12 1
    19   11   30 1
    20   11   31 1
    21   12   13 1
    22   12   32 1
    23   12   38 1
    24   13   14 1
    25   13   33 1
    26   13   34 1
    27   14   15 2
    28   14   16 am
    29   16   21 1
    30   16   17 1
    31   17   18 1
    32   17   19 1
    33   17   22 1
    34   19   20 1
    35   19   35 1
    36   19   36 1
    37   20   21 2
    38   20   37 1
    39   22   23 3
@<TRIPOS>MOLECULE
ZINC13473901
   39    40     0     0     0
SMALL
USER_CHARGES
(2S)-1-[(2S)-2-amino-2-cyclohexyl-acetyl]pyrrolidine-2-carbonitrile
@<TRIPOS>ATOM
      1 C1          5.3317   -0.6522    5.3615 C.3       1 <0>        -0.1275
      2 C2          4.5993   -1.8718    4.7982 C.3       1 <0>        -0.1210
      3 C3          4.7068   -1.8713    3.2720 C.3       1 <0>        -0.1247
      4 C4          4.0731   -0.5943    2.7165 C.3       1 <0>        -0.1048
      5 C5          4.8055    0.6252    3.2798 C.3       1 <0>        -0.1305
      6 C6          4.6980    0.6247    4.8060 C.3       1 <0>        -0.1197
      7 C7          4.1806   -0.5938    1.1903 C.3       1 <0>         0.0205
      8 H1          3.6588   -1.4626    0.7890 H         1 <0>         0.1670
      9 C8          3.5564    0.6640    0.6432 C.2       1 <0>         0.5190
     10 O1          4.2588    1.5976    0.3179 O.2       1 <0>        -0.5107
     11 N1          2.2175    0.7513    0.5153 N.am      1 <0>        -0.5927
     12 C9          1.2500   -0.3030    0.8698 C.3       1 <0>         0.0824
     13 C10         0.0021   -0.0041    0.0020 C.3       1 <0>        -0.1307
     14 C11        -0.0190    1.5473    0.0105 C.3       1 <0>        -0.1258
     15 C12         1.4802    1.9134   -0.0018 C.3       1 <0>         0.2402
     16 H2          1.8000    2.1320   -1.0206 H         1 <0>         0.1319
     17 C13         1.7174    3.0815    0.8619 C.1       1 <0>         0.1781
     18 N2          1.9004    3.9830    1.5284 N.1       1 <0>        -0.3829
     19 H3          5.2551   -0.6526    6.4488 H         1 <0>         0.0753
     20 H4          6.3816   -0.6928    5.0712 H         1 <0>         0.0650
     21 H5          3.5495   -1.8312    5.0885 H         1 <0>         0.0731
     22 H6          5.0508   -2.7815    5.1940 H         1 <0>         0.0781
     23 H7          4.1851   -2.7401    2.8707 H         1 <0>         0.0841
     24 H8          5.7567   -1.9119    2.9817 H         1 <0>         0.0624
     25 H9          3.0232   -0.5537    3.0068 H         1 <0>         0.1233
     26 H10         5.8553    0.5846    2.9895 H         1 <0>         0.0630
     27 H11         4.3540    1.5350    2.8840 H         1 <0>         0.0774
     28 H12         3.6481    0.6653    5.0963 H         1 <0>         0.0710
     29 H13         5.2197    1.4936    5.2072 H         1 <0>         0.0760
     30 H14         0.9981   -0.2461    1.9288 H         1 <0>         0.0894
     31 H15         1.6541   -1.2858    0.6274 H         1 <0>         0.0921
     32 H16        -0.8994   -0.4096    0.4613 H         1 <0>         0.1048
     33 H17         0.1286   -0.3875   -1.0104 H         1 <0>         0.0923
     34 H18        -0.5170    1.9312   -0.8798 H         1 <0>         0.1111
     35 H19        -0.4999    1.9215    0.9143 H         1 <0>         0.0931
     36 H20         6.1013    0.1468    1.1593 H         1 <0>         0.4430
     37 H21         6.0204   -1.5132    1.0988 H         1 <0>         0.4443
     38 N3          5.5931   -0.6475    0.7739 N.4       1 <0>        -0.6320
     39 H22         5.6444   -0.6126   -0.2510 H         1 <0>         0.4456
@<TRIPOS>BOND
     1    1    6 1
     2    1    2 1
     3    1   19 1
     4    1   20 1
     5    2    3 1
     6    2   21 1
     7    2   22 1
     8    3    4 1
     9    3   23 1
    10    3   24 1
    11    4    5 1
    12    4    7 1
    13    4   25 1
    14    5    6 1
    15    5   26 1
    16    5   27 1
    17    6   28 1
    18    6   29 1
    19    7    8 1
    20    7    9 1
    21    7   38 1
    22    9   10 2
    23    9   11 am
    24   11   15 1
    25   11   12 1
    26   12   13 1
    27   12   30 1
    28   12   31 1
    29   13   14 1
    30   13   32 1
    31   13   33 1
    32   14   15 1
    33   14   34 1
    34   14   35 1
    35   15   16 1
    36   15   17 1
    37   17   18 3
    38   36   38 1
    39   37   38 1
    40   38   39 1
@<TRIPOS>MOLECULE
ZINC13523046
   48    51     0     0     0
SMALL
USER_CHARGES
(2S)-1-[2-[[(5R,7S)-3-hydroxy-1-adamantyl]amino]acetyl]pyrrolidine-2-carbonitrile
@<TRIPOS>ATOM
      1 C1         -6.0332    0.3087   -2.7484 C.3       1 <0>        -0.1305
      2 C2         -6.2936    1.5206   -3.6816 C.3       1 <0>        -0.1257
      3 C3         -4.8950    2.1578   -3.8225 C.3       1 <0>         0.2400
      4 H1         -4.4271    1.8197   -4.7471 H         1 <0>         0.1319
      5 N1         -4.0970    1.7183   -2.6686 N.am      1 <0>        -0.5948
      6 C4         -4.9403    0.8713   -1.8056 C.3       1 <0>         0.0828
      7 C5         -2.8094    2.0412   -2.4353 C.2       1 <0>         0.5161
      8 O1         -2.2105    2.7490   -3.2171 O.2       1 <0>        -0.5172
      9 C6         -2.1139    1.5227   -1.2030 C.3       1 <0>        -0.0285
     10 C7         -0.0187    1.5258    0.0104 C.3       1 <0>         0.0687
     11 C8          0.0021   -0.0041    0.0020 C.3       1 <0>        -0.1307
     12 C9          0.7421   -0.5109    1.2415 C.3       1 <0>        -0.0754
     13 H2          0.7568   -1.6008    1.2356 H         1 <0>         0.1026
     14 C10         2.1775    0.0187    1.2307 C.3       1 <0>        -0.1234
     15 C11         2.1567    1.5485    1.2391 C.3       1 <0>        -0.0757
     16 H3          3.1793    1.9258    1.2314 H         1 <0>         0.0994
     17 C12         1.4167    2.0553   -0.0004 C.3       1 <0>        -0.1297
     18 C13         1.4406    2.0419    2.4979 C.3       1 <0>        -0.1506
     19 C14         0.0052    1.5124    2.5088 C.3       1 <0>         0.1495
     20 C15         0.0259   -0.0175    2.5003 C.3       1 <0>        -0.1107
     21 C16        -0.7348    2.0192    1.2692 C.3       1 <0>        -0.1624
     22 O2         -0.6637    1.9732    3.6845 O.3       1 <0>        -0.5460
     23 C17        -5.0083    3.6254   -3.8231 C.1       1 <0>         0.1798
     24 N2         -5.0958    4.7580   -3.8236 N.1       1 <0>        -0.3854
     25 H4         -5.6601   -0.5459   -3.3128 H         1 <0>         0.0923
     26 H5         -6.9319    0.0446   -2.1910 H         1 <0>         0.1047
     27 H6         -6.6679    1.1883   -4.6499 H         1 <0>         0.1110
     28 H7         -6.9903    2.2202   -3.2198 H         1 <0>         0.0927
     29 H8         -4.3516    0.0588   -1.3798 H         1 <0>         0.0922
     30 H9         -5.3914    1.4680   -1.0128 H         1 <0>         0.0894
     31 H10        -2.1137    0.4328   -1.2174 H         1 <0>         0.1653
     32 H11        -2.6387    1.8742   -0.3146 H         1 <0>         0.1620
     33 H12        -1.0205   -0.3814    0.0098 H         1 <0>         0.0883
     34 H13         0.5123   -0.3556   -0.8948 H         1 <0>         0.0942
     35 H14         2.7046   -0.3424    2.1137 H         1 <0>         0.0844
     36 H15         2.6876   -0.3328    0.3339 H         1 <0>         0.0772
     37 H16         1.9269    1.7038   -0.8972 H         1 <0>         0.0942
     38 H17         1.4019    3.1452    0.0056 H         1 <0>         0.0904
     39 H18         1.9677    1.6809    3.3810 H         1 <0>         0.0902
     40 H19         1.4258    3.1318    2.5039 H         1 <0>         0.0745
     41 H20        -0.9967   -0.3948    2.5081 H         1 <0>         0.0787
     42 H21         0.5531   -0.3786    3.3834 H         1 <0>         0.0890
     43 H22        -0.7496    3.1091    1.2752 H         1 <0>         0.0907
     44 H23        -1.7574    1.6419    1.2770 H         1 <0>         0.0943
     45 H24        -0.7143    2.9362    3.7562 H         1 <0>         0.3838
     46 N3         -0.7249    2.0187   -1.1872 N.4       1 <0>        -0.5007
     47 H25        -0.7319    3.0454   -1.1777 H         1 <0>         0.4378
     48 H26        -0.2374    1.6876   -2.0280 H         1 <0>         0.4394
@<TRIPOS>BOND
     1    1    6 1
     2    1    2 1
     3    1   25 1
     4    1   26 1
     5    2    3 1
     6    2   27 1
     7    2   28 1
     8    3    4 1
     9    3    5 1
    10    3   23 1
    11    5    6 1
    12    5    7 am
    13    6   29 1
    14    6   30 1
    15    7    8 2
    16    7    9 1
    17    9   31 1
    18    9   32 1
    19    9   46 1
    20   10   17 1
    21   10   21 1
    22   10   11 1
    23   10   46 1
    24   11   12 1
    25   11   33 1
    26   11   34 1
    27   12   13 1
    28   12   20 1
    29   12   14 1
    30   14   15 1
    31   14   35 1
    32   14   36 1
    33   15   16 1
    34   15   17 1
    35   15   18 1
    36   17   37 1
    37   17   38 1
    38   18   19 1
    39   18   39 1
    40   18   40 1
    41   19   20 1
    42   19   21 1
    43   19   22 1
    44   20   41 1
    45   20   42 1
    46   21   43 1
    47   21   44 1
    48   22   45 1
    49   23   24 3
    50   46   47 1
    51   46   48 1
@<TRIPOS>MOLECULE
ZINC13687371
   41    42     0     0     0
SMALL
USER_CHARGES

@<TRIPOS>ATOM
      1 C1          2.3821    1.0466   -2.3091 C.3       1 <0>        -0.1293
      2 C2          2.5206   -0.4308   -2.7531 C.3       1 <0>        -0.1342
      3 C3          1.3732   -1.1286   -1.9813 C.3       1 <0>        -0.1396
      4 C4          1.3570   -0.4240   -0.6090 C.3       1 <0>         0.0559
      5 C5          1.9985    0.9591   -0.8175 C.3       1 <0>        -0.1307
      6 C6         -0.0835   -0.2650   -0.1185 C.3       1 <0>         0.0596
      7 O1         -0.0792    0.2718    1.2058 O.3       1 <0>        -0.5777
      8 N1          2.1379   -1.1994    0.3640 N.4       1 <0>        -0.4820
      9 C7          1.4823   -2.4929    0.5985 C.3       1 <0>        -0.0486
     10 C8          2.2180   -3.2399    1.6810 C.2       1 <0>         0.5253
     11 O2          3.1924   -2.7436    2.2056 O.2       1 <0>        -0.4964
     12 N2          1.7930   -4.4596    2.0663 N.am      1 <0>        -0.5930
     13 C9          0.6326   -5.1800    1.5115 C.3       1 <0>         0.2178
     14 H1         -0.2826   -4.8711    2.0166 H         1 <0>         0.1531
     15 C10         0.9240   -6.6756    1.7905 C.3       1 <0>        -0.1264
     16 C11         1.6041   -6.6059    3.1833 C.3       1 <0>        -0.1210
     17 C12         2.4138   -5.2946    3.1050 C.3       1 <0>         0.2425
     18 H2          2.3766   -4.7804    4.0654 H         1 <0>         0.1443
     19 C13         3.8107   -5.5866    2.7441 C.1       1 <0>         0.1748
     20 N3          4.8887   -5.8119    2.4656 N.1       1 <0>        -0.3771
     21 C14         0.5240   -4.9383    0.0635 C.1       1 <0>         0.1764
     22 N4          0.4402   -4.7518   -1.0539 N.1       1 <0>        -0.3765
     23 H3          3.3299    1.5714   -2.4291 H         1 <0>         0.0900
     24 H4          1.5954    1.5434   -2.8769 H         1 <0>         0.0864
     25 H5          2.3760   -0.5260   -3.8292 H         1 <0>         0.0964
     26 H6          3.4881   -0.8347   -2.4550 H         1 <0>         0.0764
     27 H7          0.4235   -0.9831   -2.4961 H         1 <0>         0.1172
     28 H8          1.5846   -2.1912   -1.8620 H         1 <0>         0.0864
     29 H9          2.8892    1.0549   -0.1966 H         1 <0>         0.0900
     30 H10         1.2836    1.7435   -0.5692 H         1 <0>         0.1104
     31 H11        -0.6211    0.4115   -0.7830 H         1 <0>         0.0999
     32 H12        -0.5755   -1.2376   -0.1147 H         1 <0>         0.0700
     33 H13        -0.9611    0.3996    1.5813 H         1 <0>         0.4112
     34 H14         3.0672   -1.3539    0.0029 H         1 <0>         0.4326
     35 H15         0.4507   -2.3265    0.9086 H         1 <0>         0.1679
     36 H16         1.4955   -3.0788   -0.3205 H         1 <0>         0.1576
     37 H17        -0.0001   -7.2519    1.8354 H         1 <0>         0.1228
     38 H18         1.6034   -7.0872    1.0441 H         1 <0>         0.0946
     39 H19         0.8569   -6.5554    3.9753 H         1 <0>         0.1188
     40 H20         2.2677   -7.4579    3.3315 H         1 <0>         0.1115
     41 H21         2.1951   -0.6890    1.2326 H         1 <0>         0.4425
@<TRIPOS>BOND
     1    1    5 1
     2    1    2 1
     3    1   23 1
     4    1   24 1
     5    2    3 1
     6    2   25 1
     7    2   26 1
     8    3    4 1
     9    3   27 1
    10    3   28 1
    11    4    5 1
    12    4    6 1
    13    4    8 1
    14    5   29 1
    15    5   30 1
    16    6    7 1
    17    6   31 1
    18    6   32 1
    19    7   33 1
    20    8    9 1
    21    8   34 1
    22    8   41 1
    23    9   10 1
    24    9   35 1
    25    9   36 1
    26   10   11 2
    27   10   12 am
    28   12   17 1
    29   12   13 1
    30   13   14 1
    31   13   15 1
    32   13   21 1
    33   15   16 1
    34   15   37 1
    35   15   38 1
    36   16   17 1
    37   16   39 1
    38   16   40 1
    39   17   18 1
    40   17   19 1
    41   19   20 3
    42   21   22 3
@<TRIPOS>MOLECULE
ZINC14950346
   54    56     0     0     0
SMALL
USER_CHARGES

@<TRIPOS>ATOM
      1 C1         -0.0186    1.5257    0.0163 C.3       1 <0>        -0.1515
      2 C2          0.0020   -0.0037   -0.0218 C.3       1 <0>         0.1170
      3 C3          0.7300   -0.4724   -1.2837 C.3       1 <0>        -0.1704
      4 C4          2.1560    0.0873   -1.2834 C.3       1 <0>         0.1091
      5 N1          2.8150   -0.2983   -0.0281 N.pl3     1 <0>        -0.6000
      6 C5          2.1550    0.0241    1.2443 C.3       1 <0>         0.1111
      7 C6          0.7290   -0.5349    1.2157 C.3       1 <0>        -0.1240
      8 C7          4.0397   -0.9562   -0.0440 C.ar      1 <0>         0.4293
      9 C8          4.7054   -1.2003    1.1533 C.ar      1 <0>        -0.1677
     10 C9          5.9339   -1.8624    1.1197 C.ar      1 <0>         0.0183
     11 C10         6.4422   -2.2526   -0.1264 C.ar      1 <0>        -0.1275
     12 C11         5.7173   -1.9713   -1.2660 C.ar      1 <0>         0.1080
     13 N2          4.5569   -1.3481   -1.1969 N.ar      1 <0>        -0.5070
     14 C12         6.6793   -2.1442    2.3661 C.2       1 <0>         0.5107
     15 O1          6.2208   -1.7960    3.4444 O.co2     1 <0>        -0.6465
     16 O2          7.7538   -2.7251    2.3176 O.co2     1 <0>        -0.6447
     17 N3         -1.3764   -0.5115   -0.0352 N.3       1 <0>        -0.6563
     18 C13        -2.1069   -0.0207   -1.2114 C.3       1 <0>         0.0348
     19 C14        -3.5135   -0.5612   -1.1908 C.2       1 <0>         0.5298
     20 O3         -3.8721   -1.2841   -0.2854 O.2       1 <0>        -0.4894
     21 N4         -4.3729   -0.2412   -2.1784 N.am      1 <0>        -0.6141
     22 C15        -5.7726   -0.6928   -2.2792 C.3       1 <0>         0.2536
     23 H1         -5.8225   -1.6690   -2.7615 H         1 <0>         0.1077
     24 C16        -6.4725    0.3771   -3.1540 C.3       1 <0>        -0.1270
     25 C17        -5.3579    0.7206   -4.1772 C.3       1 <0>        -0.1213
     26 C18        -4.0717    0.6212   -3.3304 C.3       1 <0>         0.2281
     27 H2         -3.2719    0.1797   -3.9250 H         1 <0>         0.1275
     28 C19        -3.6721    1.9588   -2.8635 C.1       1 <0>         0.1798
     29 N5         -3.3638    2.9911   -2.5032 N.1       1 <0>        -0.3951
     30 C20        -6.3899   -0.7499   -0.9441 C.1       1 <0>        -0.2090
     31 C21        -6.8822   -0.7955    0.1207 C.1       1 <0>        -0.1518
     32 H3          1.0040    1.9027    0.0268 H         1 <0>         0.0657
     33 H4         -0.5364    1.9042   -0.8650 H         1 <0>         0.0570
     34 H5         -0.5382    1.8597    0.9144 H         1 <0>         0.0746
     35 H6          0.7667   -1.5617   -1.2991 H         1 <0>         0.0761
     36 H7          0.1985   -0.1134   -2.1650 H         1 <0>         0.0871
     37 H8          2.7098   -0.3230   -2.1278 H         1 <0>         0.0729
     38 H9          2.1220    1.1741   -1.3594 H         1 <0>         0.0967
     39 H10         2.7081   -0.4278    2.0677 H         1 <0>         0.1089
     40 H11         2.1209    1.1058    1.3745 H         1 <0>         0.0938
     41 H12         0.1968   -0.2202    2.1133 H         1 <0>         0.1030
     42 H13         0.7657   -1.6236    1.1767 H         1 <0>         0.0759
     43 H14         4.2787   -0.8824    2.0931 H         1 <0>         0.1817
     44 H15         7.3895   -2.7667   -0.1938 H         1 <0>         0.1820
     45 H16         6.1043   -2.2693   -2.2293 H         1 <0>         0.1994
     46 H17        -1.3907   -1.5196    0.0046 H         1 <0>         0.3554
     47 H18        -2.1360    1.0688   -1.1924 H         1 <0>         0.1047
     48 H19        -1.6025   -0.3549   -2.1180 H         1 <0>         0.0648
     49 H20        -7.3474   -0.0384   -3.6541 H         1 <0>         0.1037
     50 H21        -6.7417    1.2513   -2.5613 H         1 <0>         0.0842
     51 H22        -5.3450   -0.0041   -4.9913 H         1 <0>         0.1069
     52 H23        -5.4862    1.7323   -4.5622 H         1 <0>         0.0979
     53 H24        -7.3225   -0.8363    1.0731 H         1 <0>         0.2179
     54 H25         4.0699   -1.1684   -2.0163 H         1 <0>         0.4281
@<TRIPOS>BOND
     1    1    2 1
     2    1   32 1
     3    1   33 1
     4    1   34 1
     5    2    7 1
     6    2    3 1
     7    2   17 1
     8    3    4 1
     9    3   35 1
    10    3   36 1
    11    4    5 1
    12    4   37 1
    13    4   38 1
    14    5    6 1
    15    5    8 1
    16    6    7 1
    17    6   39 1
    18    6   40 1
    19    7   41 1
    20    7   42 1
    21    8   13 ar
    22    8    9 ar
    23    9   10 ar
    24    9   43 1
    25   10   11 ar
    26   10   14 1
    27   11   12 ar
    28   11   44 1
    29   12   13 ar
    30   12   45 1
    31   13   54 1
    32   14   15 2
    33   14   16 1
    34   17   18 1
    35   17   46 1
    36   18   19 1
    37   18   47 1
    38   18   48 1
    39   19   20 2
    40   19   21 am
    41   21   26 1
    42   21   22 1
    43   22   23 1
    44   22   24 1
    45   22   30 1
    46   24   25 1
    47   24   49 1
    48   24   50 1
    49   25   26 1
    50   25   51 1
    51   25   52 1
    52   26   27 1
    53   26   28 1
    54   28   29 3
    55   30   31 3
    56   31   53 1
@<TRIPOS>MOLECULE
ZINC03931585
   32    32     0     0     0
SMALL
USER_CHARGES
2-amino-3-methyl-1-thiazolidin-3-yl-pentan-1-one
@<TRIPOS>ATOM
      1 C1          4.5543    2.2439   -2.3610 C.3       1 <0>        -0.1608
      2 C2          3.4512    1.2091   -2.5920 C.3       1 <0>        -0.1309
      3 C3          2.0916    1.8325   -2.2698 C.3       1 <0>        -0.1039
      4 H1          1.9620    2.7437   -2.8538 H         1 <0>         0.1082
      5 C4          2.0253    2.1687   -0.7786 C.3       1 <0>        -0.1617
      6 C5          0.9802    0.8406   -2.6188 C.3       1 <0>         0.0152
      7 H2          1.0809   -0.0507   -1.9995 H         1 <0>         0.1585
      8 C6         -0.3610    1.4794   -2.3654 C.2       1 <0>         0.5122
      9 O1         -0.8455    2.2214   -3.1934 O.2       1 <0>        -0.5051
     10 N1         -1.0221    1.2261   -1.2185 N.am      1 <0>        -0.5948
     11 C7         -2.2685    1.9063   -0.8782 C.3       1 <0>         0.0918
     12 C8         -2.4030    2.0769    0.6637 C.3       1 <0>        -0.0727
     13 S1         -1.6927    0.4456    1.1819 S.3       1 <0>        -0.2367
     14 C9         -0.5293    0.2449   -0.2332 C.3       1 <0>         0.1174
     15 H3          5.5229    1.7998   -2.5906 H         1 <0>         0.0707
     16 H4          4.3865    3.1045   -3.0085 H         1 <0>         0.0629
     17 H5          4.5393    2.5645   -1.3193 H         1 <0>         0.0689
     18 H6          3.6189    0.3485   -1.9445 H         1 <0>         0.0843
     19 H7          3.4661    0.8885   -3.6337 H         1 <0>         0.0599
     20 H8          1.0864    2.6785   -0.5625 H         1 <0>         0.0664
     21 H9          2.0819    1.2493   -0.1960 H         1 <0>         0.0725
     22 H10         2.8602    2.8179   -0.5151 H         1 <0>         0.0927
     23 H11        -2.2816    2.8887   -1.3503 H         1 <0>         0.1107
     24 H12        -3.1097    1.3198   -1.2477 H         1 <0>         0.0965
     25 H13        -1.8009    2.9087    1.0294 H         1 <0>         0.1091
     26 H14        -3.4452    2.1774    0.9669 H         1 <0>         0.1391
     27 H15        -0.5841   -0.7664   -0.6363 H         1 <0>         0.1136
     28 H16         0.4904    0.4824    0.0700 H         1 <0>         0.1126
     29 H17         0.9943    1.2766   -4.6308 H         1 <0>         0.4463
     30 H18         1.9485   -0.0214   -4.2181 H         1 <0>         0.4450
     31 N2          1.0646    0.4515   -4.0376 N.4       1 <0>        -0.6321
     32 H19         0.2916   -0.1871   -4.2589 H         1 <0>         0.4442
@<TRIPOS>BOND
     1    1    2 1
     2    1   15 1
     3    1   16 1
     4    1   17 1
     5    2    3 1
     6    2   18 1
     7    2   19 1
     8    3    4 1
     9    3    5 1
    10    3    6 1
    11    5   20 1
    12    5   21 1
    13    5   22 1
    14    6    7 1
    15    6    8 1
    16    6   31 1
    17    8    9 2
    18    8   10 am
    19   10   14 1
    20   10   11 1
    21   11   12 1
    22   11   23 1
    23   11   24 1
    24   12   13 1
    25   12   25 1
    26   12   26 1
    27   13   14 1
    28   14   27 1
    29   14   28 1
    30   29   31 1
    31   30   31 1
    32   31   32 1
@<TRIPOS>MOLECULE
ZINC14948119
   32    32     0     0     0
SMALL
USER_CHARGES
(2S,3R)-2-amino-3-methyl-1-thiazolidin-3-yl-pentan-1-one
@<TRIPOS>ATOM
      1 C1          2.1873   -0.0730   -1.2073 C.3       1 <0>        -0.1599
      2 C2          0.7182   -0.4975   -1.2568 C.3       1 <0>        -0.1331
      3 C3          0.0021   -0.0041    0.0020 C.3       1 <0>        -0.1121
      4 H1          0.5293   -0.3651    0.8851 H         1 <0>         0.1225
      5 C4         -0.0187    1.5258    0.0104 C.3       1 <0>        -0.1738
      6 C5         -1.4333   -0.5336    0.0129 C.3       1 <0>         0.0155
      7 H2         -1.4185   -1.6235    0.0069 H         1 <0>         0.1640
      8 C6         -2.1387   -0.0476    1.2528 C.2       1 <0>         0.5182
      9 O1         -2.8888    0.9033    1.1903 O.2       1 <0>        -0.5118
     10 N1         -1.9360   -0.6698    2.4310 N.am      1 <0>        -0.5951
     11 C7         -2.5924   -0.2318    3.6595 C.3       1 <0>         0.0918
     12 C8         -2.8576   -1.4442    4.6046 C.3       1 <0>        -0.0738
     13 S1         -1.2853   -2.3691    4.3008 S.3       1 <0>        -0.2361
     14 C9         -1.0329   -1.8297    2.5567 C.3       1 <0>         0.1248
     15 H3          2.2499    1.0140   -1.1561 H         1 <0>         0.0657
     16 H4          2.6611   -0.5061   -0.3263 H         1 <0>         0.0661
     17 H5          2.6975   -0.4246   -2.1040 H         1 <0>         0.0708
     18 H6          0.6556   -1.5845   -1.3079 H         1 <0>         0.0833
     19 H7          0.2444   -0.0644   -2.1377 H         1 <0>         0.0647
     20 H8          1.0039    1.9031    0.0027 H         1 <0>         0.0940
     21 H9         -0.5459    1.8868   -0.8726 H         1 <0>         0.0583
     22 H10        -0.5289    1.8773    0.9072 H         1 <0>         0.0744
     23 H11        -1.9552    0.4913    4.1686 H         1 <0>         0.0967
     24 H12        -3.5416    0.2422    3.4097 H         1 <0>         0.1115
     25 H13        -3.7285   -2.0192    4.2902 H         1 <0>         0.1092
     26 H14        -2.9435   -1.1297    5.6447 H         1 <0>         0.1390
     27 H15        -1.3221   -2.6197    1.8636 H         1 <0>         0.1082
     28 H16         0.0021   -1.5319    2.3889 H         1 <0>         0.1155
     29 H17        -3.0739   -0.4349   -1.2269 H         1 <0>         0.4431
     30 H18        -2.1712    0.9615   -1.1949 H         1 <0>         0.4434
     31 N2         -2.1288   -0.0563   -1.1954 N.4       1 <0>        -0.6309
     32 H19        -1.6144   -0.3698   -2.0269 H         1 <0>         0.4459
@<TRIPOS>BOND
     1    1    2 1
     2    1   15 1
     3    1   16 1
     4    1   17 1
     5    2    3 1
     6    2   18 1
     7    2   19 1
     8    3    4 1
     9    3    5 1
    10    3    6 1
    11    5   20 1
    12    5   21 1
    13    5   22 1
    14    6    7 1
    15    6    8 1
    16    6   31 1
    17    8    9 2
    18    8   10 am
    19   10   14 1
    20   10   11 1
    21   11   12 1
    22   11   23 1
    23   11   24 1
    24   12   13 1
    25   12   25 1
    26   12   26 1
    27   13   14 1
    28   14   27 1
    29   14   28 1
    30   29   31 1
    31   30   31 1
    32   31   32 1
@<TRIPOS>MOLECULE
ZINC26396245
   41    42     0     0     0
SMALL
USER_CHARGES
6-[2-[[2-[(2S)-2-cyanopyrrolidin-1-yl]-2-oxo-ethyl]amino]ethylamino]pyridine-3-carbonitrile
@<TRIPOS>ATOM
      1 C1         -1.2361    2.1230    0.0194 C.ar      1 <0>         0.0169
      2 C2         -1.2070    3.4919    0.0324 C.ar      1 <0>        -0.2402
      3 C3          0.0211    4.1497    0.0238 C.ar      1 <0>         0.4237
      4 N1          1.1589    3.4690    0.0092 N.ar      1 <0>        -0.5333
      5 C4          1.1761    2.1523    0.0024 C.ar      1 <0>         0.2112
      6 C5         -0.0173    1.4278    0.0099 C.ar      1 <0>        -0.1260
      7 C6          0.0021   -0.0041    0.0020 C.1       1 <0>         0.2487
      8 N2          0.0175   -1.1399   -0.0042 N.1       1 <0>        -0.3998
      9 N3          0.0540    5.5352    0.0300 N.pl3     1 <0>        -0.7336
     10 C7         -1.1970    6.2976    0.0461 C.3       1 <0>         0.1057
     11 C8         -0.8818    7.7948    0.0500 C.3       1 <0>        -0.0116
     12 N4         -2.1361    8.5592    0.0661 N.4       1 <0>        -0.5261
     13 C9         -1.8720   10.0042    0.0704 C.3       1 <0>        -0.0189
     14 C10        -3.1792   10.7538    0.0869 C.2       1 <0>         0.5141
     15 O1         -4.2277   10.1443    0.0945 O.2       1 <0>        -0.5185
     16 N5         -3.1832   12.1015    0.0934 N.am      1 <0>        -0.5963
     17 C11        -1.9878   12.9643    0.0920 C.3       1 <0>         0.0807
     18 C12        -2.4601   14.3013    0.7102 C.3       1 <0>        -0.1324
     19 C13        -3.8981   14.4204    0.1396 C.3       1 <0>        -0.1221
     20 C14        -4.3804   12.9548    0.1093 C.3       1 <0>         0.2459
     21 H1         -5.0114   12.6877    0.9698 H         1 <0>         0.1329
     22 C15        -5.1832   12.7136   -1.1007 C.1       1 <0>         0.1755
     23 N6         -5.8027   12.5275   -2.0345 N.1       1 <0>        -0.3864
     24 H2         -2.1757    1.5906    0.0209 H         1 <0>         0.1473
     25 H3         -2.1276    4.0565    0.0443 H         1 <0>         0.1376
     26 H4          2.1207    1.6289   -0.0095 H         1 <0>         0.1735
     27 H5          1.0194    6.0625    0.0228 H         1 <0>         0.4387
     28 H6         -1.7889    6.0498   -0.8474 H         1 <0>         0.0872
     29 H7         -1.7710    6.0414    0.9488 H         1 <0>         0.0878
     30 H8         -0.2899    8.0425    0.9435 H         1 <0>         0.1415
     31 H9         -0.3078    8.0510   -0.8527 H         1 <0>         0.1406
     32 H10        -2.7279    8.3115   -0.8274 H         1 <0>         0.4625
     33 H11        -1.2871   10.2674    0.9641 H         1 <0>         0.1643
     34 H12        -1.3049   10.2760   -0.8321 H         1 <0>         0.1620
     35 H13        -1.1962   12.4950    0.6946 H         1 <0>         0.0905
     36 H14        -1.6325   13.0970   -0.9406 H         1 <0>         0.0878
     37 H15        -2.4337   14.2275    1.8074 H         1 <0>         0.0920
     38 H16        -1.7944   15.1128    0.3812 H         1 <0>         0.1044
     39 H17        -4.5053   15.0521    0.8046 H         1 <0>         0.1132
     40 H18        -3.8588   14.8739   -0.8618 H         1 <0>         0.0963
     41 H19        -2.7102    8.3029    0.9687 H         1 <0>         0.4627
@<TRIPOS>BOND
     1    1    6 ar
     2    1    2 ar
     3    1   24 1
     4    2    3 ar
     5    2   25 1
     6    3    4 ar
     7    3    9 1
     8    4    5 ar
     9    5    6 ar
    10    5   26 1
    11    6    7 1
    12    7    8 3
    13    9   10 1
    14    9   27 1
    15   10   11 1
    16   10   28 1
    17   10   29 1
    18   11   12 1
    19   11   30 1
    20   11   31 1
    21   12   13 1
    22   12   32 1
    23   12   41 1
    24   13   14 1
    25   13   33 1
    26   13   34 1
    27   14   15 2
    28   14   16 am
    29   16   20 1
    30   16   17 1
    31   17   18 1
    32   17   35 1
    33   17   36 1
    34   18   19 1
    35   18   37 1
    36   18   38 1
    37   19   20 1
    38   19   39 1
    39   19   40 1
    40   20   21 1
    41   20   22 1
    42   22   23 3
