@<TRIPOS>MOLECULE
ZINC13588224
   38    39     0     0     0
SMALL
USER_CHARGES
(2S)-2-amino-2-cyclohexyl-1-pyrrolidin-1-yl-ethanone
@<TRIPOS>ATOM
      1 C1         -1.4058    5.8055    3.8090 C.3       1 <0>        -0.1282
      2 C2         -0.2661    6.2249    2.8784 C.3       1 <0>        -0.1224
      3 C3         -0.5659    5.7457    1.4567 C.3       1 <0>        -0.1246
      4 C4         -0.6958    4.2212    1.4490 C.3       1 <0>        -0.1047
      5 C5         -1.8356    3.8019    2.3796 C.3       1 <0>        -0.1286
      6 C6         -1.5358    4.2810    3.8013 C.3       1 <0>        -0.1211
      7 C7         -0.9957    3.7421    0.0273 C.3       1 <0>         0.0254
      8 H1         -0.2011    4.0507   -0.6679 H         1 <0>         0.1557
      9 C8         -1.1237    2.2405    0.0197 C.2       1 <0>         0.5166
     10 O1         -2.2217    1.7255    0.0223 O.2       1 <0>        -0.5270
     11 N1         -0.0179    1.4700    0.0101 N.am      1 <0>        -0.5969
     12 C9          1.3681    1.9604   -0.0005 C.3       1 <0>         0.0811
     13 C10         2.2911    0.7243   -0.0432 C.3       1 <0>        -0.1373
     14 C11         1.3681   -0.3787   -0.6252 C.3       1 <0>        -0.1321
     15 C12         0.0021   -0.0041    0.0020 C.3       1 <0>         0.1050
     16 N2         -2.2532    4.3430   -0.4370 N.4       1 <0>        -0.6748
     17 H2         -2.3474    6.2555    3.4614 H         1 <0>         0.0650
     18 H3         -1.1902    6.1500    4.8312 H         1 <0>         0.0752
     19 H4         -0.1728    7.3209    2.8839 H         1 <0>         0.0775
     20 H5          0.6756    5.7750    3.2260 H         1 <0>         0.0728
     21 H6         -1.5075    6.1957    1.1090 H         1 <0>         0.0619
     22 H7          0.2535    6.0472    0.7877 H         1 <0>         0.0826
     23 H8          0.2458    3.7711    1.7965 H         1 <0>         0.1191
     24 H9         -2.7772    4.2520    2.0319 H         1 <0>         0.0621
     25 H10        -1.9291    2.7059    2.3741 H         1 <0>         0.0800
     26 H11        -0.5942    3.8310    4.1490 H         1 <0>         0.0712
     27 H12        -2.3553    3.9795    4.4703 H         1 <0>         0.0764
     28 H13         1.5268    2.5919   -0.8871 H         1 <0>         0.0770
     29 H14         1.5551    2.5510    0.9085 H         1 <0>         0.0786
     30 H15         3.1569    0.9353   -0.6880 H         1 <0>         0.0929
     31 H16         2.6395    0.4915    0.9739 H         1 <0>         0.0851
     32 H17         1.3728   -0.3188   -1.7236 H         1 <0>         0.0837
     33 H18         1.7342   -1.3670   -0.3103 H         1 <0>         0.0983
     34 H19        -0.0892   -0.3777    1.0326 H         1 <0>         0.0830
     35 H20        -0.8390   -0.3789   -0.5997 H         1 <0>         0.0893
     36 H21        -2.4687    3.9985   -1.4592 H         1 <0>         0.4614
     37 H22        -2.1598    5.4390   -0.4315 H         1 <0>         0.4602
     38 H23        -3.0726    4.0414    0.2320 H         1 <0>         0.4601
@<TRIPOS>BOND
     1    1    6 1
     2    1    2 1
     3    1   17 1
     4    1   18 1
     5    2    3 1
     6    2   19 1
     7    2   20 1
     8    3    4 1
     9    3   21 1
    10    3   22 1
    11    4    5 1
    12    4    7 1
    13    4   23 1
    14    5    6 1
    15    5   24 1
    16    5   25 1
    17    6   26 1
    18    6   27 1
    19    7    8 1
    20    7    9 1
    21    7   16 1
    22    9   10 2
    23    9   11 am
    24   11   15 1
    25   11   12 1
    26   12   13 1
    27   12   28 1
    28   12   29 1
    29   13   14 1
    30   13   30 1
    31   13   31 1
    32   14   15 1
    33   14   32 1
    34   14   33 1
    35   15   34 1
    36   15   35 1
    37   16   36 1
    38   16   37 1
    39   16   38 1
@<TRIPOS>MOLECULE
ZINC13473901
   39    40     0     0     0
SMALL
USER_CHARGES
(2S)-1-[(2S)-2-amino-2-cyclohexyl-acetyl]pyrrolidine-2-carbonitrile
@<TRIPOS>ATOM
      1 C1          5.3317   -0.6522    5.3615 C.3       1 <0>        -0.1275
      2 C2          4.5993   -1.8718    4.7982 C.3       1 <0>        -0.1210
      3 C3          4.7068   -1.8713    3.2720 C.3       1 <0>        -0.1247
      4 C4          4.0731   -0.5943    2.7165 C.3       1 <0>        -0.1048
      5 C5          4.8055    0.6252    3.2798 C.3       1 <0>        -0.1305
      6 C6          4.6980    0.6247    4.8060 C.3       1 <0>        -0.1197
      7 C7          4.1806   -0.5938    1.1903 C.3       1 <0>         0.0205
      8 H1          3.6588   -1.4626    0.7890 H         1 <0>         0.1670
      9 C8          3.5564    0.6640    0.6432 C.2       1 <0>         0.5190
     10 O1          4.2588    1.5976    0.3179 O.2       1 <0>        -0.5107
     11 N1          2.2175    0.7513    0.5153 N.am      1 <0>        -0.5927
     12 C9          1.2500   -0.3030    0.8698 C.3       1 <0>         0.0824
     13 C10         0.0021   -0.0041    0.0020 C.3       1 <0>        -0.1307
     14 C11        -0.0190    1.5473    0.0105 C.3       1 <0>        -0.1258
     15 C12         1.4802    1.9134   -0.0018 C.3       1 <0>         0.2402
     16 H2          1.8000    2.1320   -1.0206 H         1 <0>         0.1319
     17 C13         1.7174    3.0815    0.8619 C.1       1 <0>         0.1781
     18 N2          1.9004    3.9830    1.5284 N.1       1 <0>        -0.3829
     19 H3          5.2551   -0.6526    6.4488 H         1 <0>         0.0753
     20 H4          6.3816   -0.6928    5.0712 H         1 <0>         0.0650
     21 H5          3.5495   -1.8312    5.0885 H         1 <0>         0.0731
     22 H6          5.0508   -2.7815    5.1940 H         1 <0>         0.0781
     23 H7          4.1851   -2.7401    2.8707 H         1 <0>         0.0841
     24 H8          5.7567   -1.9119    2.9817 H         1 <0>         0.0624
     25 H9          3.0232   -0.5537    3.0068 H         1 <0>         0.1233
     26 H10         5.8553    0.5846    2.9895 H         1 <0>         0.0630
     27 H11         4.3540    1.5350    2.8840 H         1 <0>         0.0774
     28 H12         3.6481    0.6653    5.0963 H         1 <0>         0.0710
     29 H13         5.2197    1.4936    5.2072 H         1 <0>         0.0760
     30 H14         0.9981   -0.2461    1.9288 H         1 <0>         0.0894
     31 H15         1.6541   -1.2858    0.6274 H         1 <0>         0.0921
     32 H16        -0.8994   -0.4096    0.4613 H         1 <0>         0.1048
     33 H17         0.1286   -0.3875   -1.0104 H         1 <0>         0.0923
     34 H18        -0.5170    1.9312   -0.8798 H         1 <0>         0.1111
     35 H19        -0.4999    1.9215    0.9143 H         1 <0>         0.0931
     36 H20         6.1013    0.1468    1.1593 H         1 <0>         0.4430
     37 H21         6.0204   -1.5132    1.0988 H         1 <0>         0.4443
     38 N3          5.5931   -0.6475    0.7739 N.4       1 <0>        -0.6320
     39 H22         5.6444   -0.6126   -0.2510 H         1 <0>         0.4456
@<TRIPOS>BOND
     1    1    6 1
     2    1    2 1
     3    1   19 1
     4    1   20 1
     5    2    3 1
     6    2   21 1
     7    2   22 1
     8    3    4 1
     9    3   23 1
    10    3   24 1
    11    4    5 1
    12    4    7 1
    13    4   25 1
    14    5    6 1
    15    5   26 1
    16    5   27 1
    17    6   28 1
    18    6   29 1
    19    7    8 1
    20    7    9 1
    21    7   38 1
    22    9   10 2
    23    9   11 am
    24   11   15 1
    25   11   12 1
    26   12   13 1
    27   12   30 1
    28   12   31 1
    29   13   14 1
    30   13   32 1
    31   13   33 1
    32   14   15 1
    33   14   34 1
    34   14   35 1
    35   15   16 1
    36   15   17 1
    37   17   18 3
    38   36   38 1
    39   37   38 1
    40   38   39 1
@<TRIPOS>MOLECULE
ZINC01489478
   44    46     0     0     0
SMALL
USER_CHARGES

@<TRIPOS>ATOM
      1 C1         -0.0167    1.3794    0.0096 C.ar      1 <0>        -0.0817
      2 C2          1.1707    2.0873    0.0021 C.ar      1 <0>        -0.1335
      3 C3          2.3795    1.4131   -0.0131 C.ar      1 <0>         0.0887
      4 C4          2.4004    0.0287   -0.0208 C.ar      1 <0>        -0.1440
      5 C5          1.2126   -0.6807   -0.0132 C.ar      1 <0>         0.1171
      6 C6          0.0021   -0.0041    0.0020 C.ar      1 <0>         0.0839
      7 F1         -1.1585   -0.6956    0.0099 F         1 <0>        -0.1067
      8 F2          1.2319   -2.0315   -0.0211 F         1 <0>        -0.1030
      9 F3          3.5392    2.1060   -0.0209 F         1 <0>        -0.1333
     10 C7          1.1490    3.5942    0.0099 C.3       1 <0>        -0.0986
     11 C8          1.4054    4.1005    1.4307 C.3       1 <0>         0.0506
     12 H1          0.6827    3.6519    2.1123 H         1 <0>         0.1580
     13 C9          1.2602    5.6233    1.4634 C.3       1 <0>        -0.1765
     14 C10         1.3912    6.1100    2.8836 C.2       1 <0>         0.5209
     15 O1          1.5819    5.3170    3.7813 O.2       1 <0>        -0.5393
     16 N1          1.2964    7.4265    3.1563 N.am      1 <0>        -0.6081
     17 C11         1.4271    7.9249    4.5338 C.3       1 <0>         0.0952
     18 C12         2.6637    8.8263    4.6301 C.3       1 <0>         0.0730
     19 N2          2.6784    9.7446    3.4923 N.pl3     1 <0>        -0.4438
     20 C13         1.9779    9.5775    2.3419 C.2       1 <0>         0.1760
     21 N3          2.2506   10.5825    1.5682 N.2       1 <0>        -0.2525
     22 N4          3.0752   11.3728    2.1663 N.2       1 <0>        -0.2118
     23 C14         3.3627   10.8973    3.3507 C.2       1 <0>         0.0959
     24 C15         4.2850   11.5213    4.3661 C.3       1 <0>         0.5693
     25 F4          4.5356   12.8516    4.0130 F         1 <0>        -0.1374
     26 F5          3.6850   11.4792    5.6292 F         1 <0>        -0.1626
     27 F6          5.4907   10.8124    4.3986 F         1 <0>        -0.1586
     28 C16         1.0648    8.4092    2.0807 C.3       1 <0>         0.1933
     29 N5          2.7650    3.7293    1.8450 N.4       1 <0>        -0.6399
     30 H2         -0.9593    1.9064    0.0260 H         1 <0>         0.1694
     31 H3          3.3436   -0.4973   -0.0330 H         1 <0>         0.1718
     32 H4          1.9247    3.9721   -0.6560 H         1 <0>         0.1136
     33 H5          0.1750    3.9453   -0.3307 H         1 <0>         0.1379
     34 H6          2.0400    6.0758    0.8509 H         1 <0>         0.1296
     35 H7          0.2823    5.9035    1.0720 H         1 <0>         0.1549
     36 H8          0.5381    8.4969    4.7998 H         1 <0>         0.1034
     37 H9          1.5366    7.0825    5.2169 H         1 <0>         0.1347
     38 H10         2.6273    9.3968    5.5581 H         1 <0>         0.1263
     39 H11         3.5641    8.2122    4.6141 H         1 <0>         0.1076
     40 H12         1.2983    7.9641    1.1135 H         1 <0>         0.1300
     41 H13         0.0267    8.7414    2.0975 H         1 <0>         0.1270
     42 H14         2.8608    2.7250    1.8234 H         1 <0>         0.4308
     43 H15         3.4341    4.1445    1.2141 H         1 <0>         0.4312
     44 H16         2.9341    4.0632    2.7820 H         1 <0>         0.4409
@<TRIPOS>BOND
     1    1    6 ar
     2    1    2 ar
     3    1   30 1
     4    2    3 ar
     5    2   10 1
     6    3    4 ar
     7    3    9 1
     8    4    5 ar
     9    4   31 1
    10    5    6 ar
    11    5    8 1
    12    6    7 1
    13   10   11 1
    14   10   32 1
    15   10   33 1
    16   11   12 1
    17   11   13 1
    18   11   29 1
    19   13   14 1
    20   13   34 1
    21   13   35 1
    22   14   15 2
    23   14   16 am
    24   16   28 1
    25   16   17 1
    26   17   18 1
    27   17   36 1
    28   17   37 1
    29   18   19 1
    30   18   38 1
    31   18   39 1
    32   19   23 1
    33   19   20 1
    34   20   21 2
    35   20   28 1
    36   21   22 1
    37   22   23 2
    38   23   24 1
    39   24   25 1
    40   24   26 1
    41   24   27 1
    42   28   40 1
    43   28   41 1
    44   29   42 1
    45   29   43 1
    46   29   44 1
