@<TRIPOS>MOLECULE
ZINC13829391
   38    39     0     0     0
SMALL
USER_CHARGES

@<TRIPOS>ATOM
      1 C1         -0.0170    1.3989    0.0097 C.ar      1 <0>         0.0165
      2 C2          1.1775    2.0684    0.0019 C.ar      1 <0>        -0.2364
      3 C3          2.3672    1.3437   -0.0133 C.ar      1 <0>         0.4186
      4 N1          2.3578    0.0178   -0.0204 N.ar      1 <0>        -0.5310
      5 C4          1.2318   -0.6650   -0.0133 C.ar      1 <0>         0.2105
      6 C5          0.0021   -0.0041    0.0020 C.ar      1 <0>        -0.1222
      7 C6         -1.2220   -0.7472    0.0102 C.1       1 <0>         0.2482
      8 N2         -2.1930   -1.3367    0.0167 N.1       1 <0>        -0.3982
      9 N3          3.5779    2.0182   -0.0217 N.pl3     1 <0>        -0.7209
     10 C7          3.6004    3.4830   -0.0146 C.3       1 <0>         0.1024
     11 C8          5.0504    3.9709   -0.0262 C.3       1 <0>        -0.0186
     12 N4          5.0729    5.4397   -0.0191 N.4       1 <0>        -0.4957
     13 C9          6.4652    5.9082   -0.0303 C.3       1 <0>        -0.0108
     14 C10         6.4883    7.4150   -0.0229 C.2       1 <0>         0.5409
     15 O1          5.4473    8.0375   -0.0096 O.2       1 <0>        -0.5057
     16 N5          7.6656    8.0710   -0.0311 N.am      1 <0>        -0.4592
     17 C11         7.8331    9.5337   -0.0194 C.3       1 <0>         0.2120
     18 H1          7.3835    9.9794   -0.9067 H         1 <0>         0.1490
     19 C12         9.3646    9.7143   -0.0364 C.3       1 <0>        -0.1452
     20 C13         9.8946    8.2983   -0.0560 C.2       1 <0>         0.1403
     21 N6          8.9261    7.4772   -0.0459 N.2       1 <0>        -0.2700
     22 C14         7.2518   10.1134    1.2024 C.1       1 <0>         0.1767
     23 N7          6.8031   10.5608    2.1453 N.1       1 <0>        -0.3664
     24 H2         -0.9524    1.9385    0.0260 H         1 <0>         0.1485
     25 H3          1.1971    3.1482    0.0072 H         1 <0>         0.1392
     26 H4          1.2598   -1.7447   -0.0197 H         1 <0>         0.1746
     27 H5          4.4104    1.5205   -0.0324 H         1 <0>         0.4155
     28 H6          3.0835    3.8586   -0.8977 H         1 <0>         0.0914
     29 H7          3.1008    3.8497    0.8822 H         1 <0>         0.0908
     30 H8          5.5673    3.5953    0.8569 H         1 <0>         0.1459
     31 H9          5.5499    3.6043   -0.9230 H         1 <0>         0.1469
     32 H10         4.5945    5.7874   -0.8365 H         1 <0>         0.4386
     33 H11         6.9820    5.5326    0.8528 H         1 <0>         0.1706
     34 H12         6.9647    5.5415   -0.9270 H         1 <0>         0.1733
     35 H13         9.6767   10.2523   -0.9315 H         1 <0>         0.1399
     36 H14         9.6985   10.2356    0.8608 H         1 <0>         0.1261
     37 H15        10.9397    8.0262   -0.0718 H         1 <0>         0.2256
     38 H16         4.6105    5.7791    0.8111 H         1 <0>         0.4383
@<TRIPOS>BOND
     1    1    6 ar
     2    1    2 ar
     3    1   24 1
     4    2    3 ar
     5    2   25 1
     6    3    4 ar
     7    3    9 1
     8    4    5 ar
     9    5    6 ar
    10    5   26 1
    11    6    7 1
    12    7    8 3
    13    9   10 1
    14    9   27 1
    15   10   11 1
    16   10   28 1
    17   10   29 1
    18   11   12 1
    19   11   30 1
    20   11   31 1
    21   12   13 1
    22   12   32 1
    23   12   38 1
    24   13   14 1
    25   13   33 1
    26   13   34 1
    27   14   15 2
    28   14   16 am
    29   16   21 1
    30   16   17 1
    31   17   18 1
    32   17   19 1
    33   17   22 1
    34   19   20 1
    35   19   35 1
    36   19   36 1
    37   20   21 2
    38   20   37 1
    39   22   23 3
@<TRIPOS>MOLECULE
ZINC13829393
   38    39     0     0     0
SMALL
USER_CHARGES

@<TRIPOS>ATOM
      1 C1         -0.0170    1.3989    0.0097 C.ar      1 <0>         0.0165
      2 C2          1.1775    2.0684    0.0019 C.ar      1 <0>        -0.2364
      3 C3          2.3672    1.3437   -0.0133 C.ar      1 <0>         0.4186
      4 N1          2.3578    0.0178   -0.0204 N.ar      1 <0>        -0.5310
      5 C4          1.2318   -0.6650   -0.0133 C.ar      1 <0>         0.2105
      6 C5          0.0021   -0.0041    0.0020 C.ar      1 <0>        -0.1222
      7 C6         -1.2220   -0.7472    0.0102 C.1       1 <0>         0.2482
      8 N2         -2.1930   -1.3367    0.0167 N.1       1 <0>        -0.3982
      9 N3          3.5779    2.0182   -0.0217 N.pl3     1 <0>        -0.7208
     10 C7          3.6004    3.4830   -0.0146 C.3       1 <0>         0.1024
     11 C8          5.0504    3.9709   -0.0262 C.3       1 <0>        -0.0186
     12 N4          5.0729    5.4397   -0.0191 N.4       1 <0>        -0.4957
     13 C9          6.4652    5.9082   -0.0303 C.3       1 <0>        -0.0108
     14 C10         6.4883    7.4150   -0.0229 C.2       1 <0>         0.5409
     15 O1          5.4473    8.0375   -0.0096 O.2       1 <0>        -0.5058
     16 N5          7.6656    8.0710   -0.0311 N.am      1 <0>        -0.4593
     17 C11         7.8331    9.5337   -0.0194 C.3       1 <0>         0.2121
     18 H1          7.4053    9.9627    0.8867 H         1 <0>         0.1487
     19 C12         9.3646    9.7143   -0.0364 C.3       1 <0>        -0.1452
     20 C13         9.8946    8.2983   -0.0560 C.2       1 <0>         0.1403
     21 N6          8.9261    7.4772   -0.0459 N.2       1 <0>        -0.2699
     22 C14         7.2224   10.1360   -1.2157 C.1       1 <0>         0.1769
     23 N7          6.7511   10.6008   -2.1389 N.1       1 <0>        -0.3663
     24 H2         -0.9524    1.9385    0.0260 H         1 <0>         0.1485
     25 H3          1.1971    3.1482    0.0072 H         1 <0>         0.1392
     26 H4          1.2598   -1.7447   -0.0197 H         1 <0>         0.1746
     27 H5          4.4104    1.5205   -0.0324 H         1 <0>         0.4155
     28 H6          3.0835    3.8586   -0.8977 H         1 <0>         0.0908
     29 H7          3.1008    3.8497    0.8822 H         1 <0>         0.0914
     30 H8          5.5673    3.5953    0.8569 H         1 <0>         0.1469
     31 H9          5.5499    3.6043   -0.9230 H         1 <0>         0.1459
     32 H10         4.5945    5.7874   -0.8365 H         1 <0>         0.4382
     33 H11         6.9820    5.5326    0.8528 H         1 <0>         0.1732
     34 H12         6.9647    5.5415   -0.9270 H         1 <0>         0.1706
     35 H13         9.6767   10.2523   -0.9315 H         1 <0>         0.1260
     36 H14         9.6985   10.2356    0.8608 H         1 <0>         0.1400
     37 H15        10.9397    8.0262   -0.0718 H         1 <0>         0.2256
     38 H16         4.6105    5.7791    0.8111 H         1 <0>         0.4387
@<TRIPOS>BOND
     1    1    6 ar
     2    1    2 ar
     3    1   24 1
     4    2    3 ar
     5    2   25 1
     6    3    4 ar
     7    3    9 1
     8    4    5 ar
     9    5    6 ar
    10    5   26 1
    11    6    7 1
    12    7    8 3
    13    9   10 1
    14    9   27 1
    15   10   11 1
    16   10   28 1
    17   10   29 1
    18   11   12 1
    19   11   30 1
    20   11   31 1
    21   12   13 1
    22   12   32 1
    23   12   38 1
    24   13   14 1
    25   13   33 1
    26   13   34 1
    27   14   15 2
    28   14   16 am
    29   16   21 1
    30   16   17 1
    31   17   18 1
    32   17   19 1
    33   17   22 1
    34   19   20 1
    35   19   35 1
    36   19   36 1
    37   20   21 2
    38   20   37 1
    39   22   23 3
