@<TRIPOS>MOLECULE
ZINC13523046
   48    51     0     0     0
SMALL
USER_CHARGES
(2S)-1-[2-[[(5R,7S)-3-hydroxy-1-adamantyl]amino]acetyl]pyrrolidine-2-carbonitrile
@<TRIPOS>ATOM
      1 C1         -6.0332    0.3087   -2.7484 C.3       1 <0>        -0.1305
      2 C2         -6.2936    1.5206   -3.6816 C.3       1 <0>        -0.1257
      3 C3         -4.8950    2.1578   -3.8225 C.3       1 <0>         0.2400
      4 H1         -4.4271    1.8197   -4.7471 H         1 <0>         0.1319
      5 N1         -4.0970    1.7183   -2.6686 N.am      1 <0>        -0.5948
      6 C4         -4.9403    0.8713   -1.8056 C.3       1 <0>         0.0828
      7 C5         -2.8094    2.0412   -2.4353 C.2       1 <0>         0.5161
      8 O1         -2.2105    2.7490   -3.2171 O.2       1 <0>        -0.5172
      9 C6         -2.1139    1.5227   -1.2030 C.3       1 <0>        -0.0285
     10 C7         -0.0187    1.5258    0.0104 C.3       1 <0>         0.0687
     11 C8          0.0021   -0.0041    0.0020 C.3       1 <0>        -0.1307
     12 C9          0.7421   -0.5109    1.2415 C.3       1 <0>        -0.0754
     13 H2          0.7568   -1.6008    1.2356 H         1 <0>         0.1026
     14 C10         2.1775    0.0187    1.2307 C.3       1 <0>        -0.1234
     15 C11         2.1567    1.5485    1.2391 C.3       1 <0>        -0.0757
     16 H3          3.1793    1.9258    1.2314 H         1 <0>         0.0994
     17 C12         1.4167    2.0553   -0.0004 C.3       1 <0>        -0.1297
     18 C13         1.4406    2.0419    2.4979 C.3       1 <0>        -0.1506
     19 C14         0.0052    1.5124    2.5088 C.3       1 <0>         0.1495
     20 C15         0.0259   -0.0175    2.5003 C.3       1 <0>        -0.1107
     21 C16        -0.7348    2.0192    1.2692 C.3       1 <0>        -0.1624
     22 O2         -0.6637    1.9732    3.6845 O.3       1 <0>        -0.5460
     23 C17        -5.0083    3.6254   -3.8231 C.1       1 <0>         0.1798
     24 N2         -5.0958    4.7580   -3.8236 N.1       1 <0>        -0.3854
     25 H4         -5.6601   -0.5459   -3.3128 H         1 <0>         0.0923
     26 H5         -6.9319    0.0446   -2.1910 H         1 <0>         0.1047
     27 H6         -6.6679    1.1883   -4.6499 H         1 <0>         0.1110
     28 H7         -6.9903    2.2202   -3.2198 H         1 <0>         0.0927
     29 H8         -4.3516    0.0588   -1.3798 H         1 <0>         0.0922
     30 H9         -5.3914    1.4680   -1.0128 H         1 <0>         0.0894
     31 H10        -2.1137    0.4328   -1.2174 H         1 <0>         0.1653
     32 H11        -2.6387    1.8742   -0.3146 H         1 <0>         0.1620
     33 H12        -1.0205   -0.3814    0.0098 H         1 <0>         0.0883
     34 H13         0.5123   -0.3556   -0.8948 H         1 <0>         0.0942
     35 H14         2.7046   -0.3424    2.1137 H         1 <0>         0.0844
     36 H15         2.6876   -0.3328    0.3339 H         1 <0>         0.0772
     37 H16         1.9269    1.7038   -0.8972 H         1 <0>         0.0942
     38 H17         1.4019    3.1452    0.0056 H         1 <0>         0.0904
     39 H18         1.9677    1.6809    3.3810 H         1 <0>         0.0902
     40 H19         1.4258    3.1318    2.5039 H         1 <0>         0.0745
     41 H20        -0.9967   -0.3948    2.5081 H         1 <0>         0.0787
     42 H21         0.5531   -0.3786    3.3834 H         1 <0>         0.0890
     43 H22        -0.7496    3.1091    1.2752 H         1 <0>         0.0907
     44 H23        -1.7574    1.6419    1.2770 H         1 <0>         0.0943
     45 H24        -0.7143    2.9362    3.7562 H         1 <0>         0.3838
     46 N3         -0.7249    2.0187   -1.1872 N.4       1 <0>        -0.5007
     47 H25        -0.7319    3.0454   -1.1777 H         1 <0>         0.4378
     48 H26        -0.2374    1.6876   -2.0280 H         1 <0>         0.4394
@<TRIPOS>BOND
     1    1    6 1
     2    1    2 1
     3    1   25 1
     4    1   26 1
     5    2    3 1
     6    2   27 1
     7    2   28 1
     8    3    4 1
     9    3    5 1
    10    3   23 1
    11    5    6 1
    12    5    7 am
    13    6   29 1
    14    6   30 1
    15    7    8 2
    16    7    9 1
    17    9   31 1
    18    9   32 1
    19    9   46 1
    20   10   17 1
    21   10   21 1
    22   10   11 1
    23   10   46 1
    24   11   12 1
    25   11   33 1
    26   11   34 1
    27   12   13 1
    28   12   20 1
    29   12   14 1
    30   14   15 1
    31   14   35 1
    32   14   36 1
    33   15   16 1
    34   15   17 1
    35   15   18 1
    36   17   37 1
    37   17   38 1
    38   18   19 1
    39   18   39 1
    40   18   40 1
    41   19   20 1
    42   19   21 1
    43   19   22 1
    44   20   41 1
    45   20   42 1
    46   21   43 1
    47   21   44 1
    48   22   45 1
    49   23   24 3
    50   46   47 1
    51   46   48 1
@<TRIPOS>MOLECULE
ZINC14949370
   68    72     0     0     0
SMALL
USER_CHARGES
(2S)-2-amino-4-[4-[bis(4-fluorophenyl)methyl]piperazin-1-yl]-1-isoindolin-2-yl-butane-1,4-dione
@<TRIPOS>ATOM
      1 C1          1.3629    8.8733    3.0523 C.ar      1 <0>        -0.1013
      2 C2          2.0888    8.8857    1.8758 C.ar      1 <0>        -0.1065
      3 C3          2.1537    7.7492    1.0931 C.ar      1 <0>        -0.0885
      4 C4          1.4931    6.5974    1.4852 C.ar      1 <0>        -0.1220
      5 C5          0.7681    6.5851    2.6602 C.ar      1 <0>        -0.1103
      6 C6          0.7032    7.7245    3.4439 C.ar      1 <0>        -0.0894
      7 C7          0.1580    5.2183    2.8421 C.3       1 <0>         0.1474
      8 N1          0.5596    4.3948    1.6972 N.am      1 <0>        -0.5890
      9 C8          1.4001    5.2375    0.8407 C.3       1 <0>         0.1338
     10 C9          0.2250    3.1079    1.4772 C.2       1 <0>         0.5247
     11 O1         -0.4770    2.5194    2.2721 O.2       1 <0>        -0.5138
     12 C10         0.7233    2.4001    0.2436 C.3       1 <0>         0.0447
     13 H1          1.7776    2.6594    0.0670 H         1 <0>         0.1654
     14 C11        -0.1449    2.7907   -0.9541 C.3       1 <0>        -0.1705
     15 C12         0.4261    2.1811   -2.2085 C.2       1 <0>         0.5134
     16 O2          1.4287    1.5012   -2.1502 O.2       1 <0>        -0.5548
     17 N2         -0.1774    2.3914   -3.3951 N.am      1 <0>        -0.5892
     18 C13        -1.3975    3.2076   -3.4873 C.3       1 <0>         0.1006
     19 C14        -1.1859    4.2693   -4.5782 C.3       1 <0>         0.0347
     20 N3         -0.7861    3.6075   -5.8273 N.3       1 <0>        -0.5291
     21 C15         0.5021    2.9180   -5.6764 C.3       1 <0>         0.0387
     22 C16         0.3632    1.8059   -4.6313 C.3       1 <0>         0.1114
     23 C17        -0.7434    4.5654   -6.9403 C.3       1 <0>         0.1770
     24 C18        -0.5000    3.8257   -8.2305 C.ar      1 <0>        -0.0982
     25 C19        -1.1808    2.6513   -8.4924 C.ar      1 <0>        -0.0612
     26 C20        -0.9620    1.9747   -9.6774 C.ar      1 <0>        -0.1564
     27 C21        -0.0528    2.4679  -10.5978 C.ar      1 <0>         0.1073
     28 C22         0.6323    3.6414  -10.3322 C.ar      1 <0>        -0.1525
     29 C23         0.4080    4.3191   -9.1488 C.ar      1 <0>        -0.0806
     30 F1          0.1653    1.8048  -11.7545 F         1 <0>        -0.1358
     31 C24        -2.0570    5.2994   -7.0221 C.ar      1 <0>        -0.0990
     32 C25        -3.2459    4.6000   -6.9300 C.ar      1 <0>        -0.0645
     33 C26        -4.4511    5.2726   -7.0001 C.ar      1 <0>        -0.1559
     34 C27        -4.4676    6.6463   -7.1731 C.ar      1 <0>         0.1072
     35 C28        -3.2762    7.3451   -7.2704 C.ar      1 <0>        -0.1519
     36 C29        -2.0722    6.6709   -7.1948 C.ar      1 <0>        -0.0805
     37 F2         -5.6452    7.3043   -7.2464 F         1 <0>        -0.1355
     38 N4          0.6493    0.9474    0.4490 N.4       1 <0>        -0.6715
     39 H2          1.3113    9.7614    3.6647 H         1 <0>         0.1360
     40 H3          2.6052    9.7832    1.5689 H         1 <0>         0.1354
     41 H4          2.7208    7.7591    0.1740 H         1 <0>         0.1287
     42 H5          0.1359    7.7152    4.3629 H         1 <0>         0.1314
     43 H6          0.5247    4.7749    3.7796 H         1 <0>         0.0968
     44 H7         -0.9376    5.3083    2.8830 H         1 <0>         0.0971
     45 H8          0.9510    5.3353   -0.1587 H         1 <0>         0.0893
     46 H9          2.4075    4.8054    0.7492 H         1 <0>         0.0945
     47 H10        -1.1695    2.4211   -0.8003 H         1 <0>         0.1321
     48 H11        -0.1613    3.8861   -1.0534 H         1 <0>         0.1414
     49 H12        -2.2505    2.5637   -3.7477 H         1 <0>         0.0949
     50 H13        -1.5874    3.6940   -2.5191 H         1 <0>         0.0902
     51 H14        -2.1230    4.8228   -4.7379 H         1 <0>         0.1033
     52 H15        -0.3969    4.9676   -4.2621 H         1 <0>         0.0445
     53 H16         0.7993    2.4811   -6.6412 H         1 <0>         0.1012
     54 H17         1.2669    3.6374   -5.3485 H         1 <0>         0.0446
     55 H18         1.3472    1.3592   -4.4257 H         1 <0>         0.1046
     56 H19        -0.3226    1.0286   -4.9994 H         1 <0>         0.0890
     57 H20         0.0756    5.2745   -6.7497 H         1 <0>         0.0648
     58 H21        -1.8869    2.2647   -7.7724 H         1 <0>         0.1381
     59 H22        -1.4970    1.0594   -9.8835 H         1 <0>         0.1373
     60 H23         1.3414    4.0272  -11.0496 H         1 <0>         0.1382
     61 H24         0.9420    5.2346   -8.9415 H         1 <0>         0.1310
     62 H25        -3.2328    3.5280   -6.7992 H         1 <0>         0.1387
     63 H26        -5.3797    4.7266   -6.9241 H         1 <0>         0.1378
     64 H27        -3.2879    8.4166   -7.4050 H         1 <0>         0.1384
     65 H28        -1.1428    7.2158   -7.2703 H         1 <0>         0.1315
     66 H29         1.0130    0.4308   -0.4515 H         1 <0>         0.4694
     67 H30        -0.3940    0.6571    0.6421 H         1 <0>         0.4581
     68 H31         1.2734    0.6666    1.3102 H         1 <0>         0.4632
@<TRIPOS>BOND
     1    1    6 ar
     2    1    2 ar
     3    1   39 1
     4    2    3 ar
     5    2   40 1
     6    3    4 ar
     7    3   41 1
     8    4    9 1
     9    4    5 ar
    10    5    6 ar
    11    5    7 1
    12    6   42 1
    13    7    8 1
    14    7   43 1
    15    7   44 1
    16    8    9 1
    17    8   10 am
    18    9   45 1
    19    9   46 1
    20   10   11 2
    21   10   12 1
    22   12   13 1
    23   12   14 1
    24   12   38 1
    25   14   15 1
    26   14   47 1
    27   14   48 1
    28   15   16 2
    29   15   17 am
    30   17   22 1
    31   17   18 1
    32   18   19 1
    33   18   49 1
    34   18   50 1
    35   19   20 1
    36   19   51 1
    37   19   52 1
    38   20   21 1
    39   20   23 1
    40   21   22 1
    41   21   53 1
    42   21   54 1
    43   22   55 1
    44   22   56 1
    45   23   24 1
    46   23   31 1
    47   23   57 1
    48   24   29 ar
    49   24   25 ar
    50   25   26 ar
    51   25   58 1
    52   26   27 ar
    53   26   59 1
    54   27   28 ar
    55   27   30 1
    56   28   29 ar
    57   28   60 1
    58   29   61 1
    59   31   36 ar
    60   31   32 ar
    61   32   33 ar
    62   32   62 1
    63   33   34 ar
    64   33   63 1
    65   34   35 ar
    66   34   37 1
    67   35   36 ar
    68   35   64 1
    69   36   65 1
    70   38   66 1
    71   38   67 1
    72   38   68 1
@<TRIPOS>MOLECULE
ZINC14949370
   67    71     0     0     0
SMALL
USER_CHARGES
(2S)-2-amino-4-[4-[bis(4-fluorophenyl)methyl]piperazin-1-yl]-1-isoindolin-2-yl-butane-1,4-dione
@<TRIPOS>ATOM
      1 C1          1.3629    8.8733    3.0523 C.ar      1 <0>        -0.1105
      2 C2          2.0888    8.8857    1.8758 C.ar      1 <0>        -0.1138
      3 C3          2.1537    7.7492    1.0931 C.ar      1 <0>        -0.0935
      4 C4          1.4931    6.5974    1.4852 C.ar      1 <0>        -0.1117
      5 C5          0.7681    6.5851    2.6602 C.ar      1 <0>        -0.1038
      6 C6          0.7032    7.7245    3.4439 C.ar      1 <0>        -0.0943
      7 C7          0.1580    5.2183    2.8421 C.3       1 <0>         0.1481
      8 N1          0.5596    4.3948    1.6972 N.am      1 <0>        -0.6161
      9 C8          1.4001    5.2375    0.8407 C.3       1 <0>         0.1431
     10 C9          0.2250    3.1079    1.4772 C.2       1 <0>         0.5380
     11 O1         -0.4770    2.5194    2.2721 O.2       1 <0>        -0.5040
     12 C10         0.7233    2.4001    0.2436 C.3       1 <0>         0.0889
     13 H1          1.7776    2.6594    0.0670 H         1 <0>         0.0668
     14 C11        -0.1449    2.7907   -0.9541 C.3       1 <0>        -0.1331
     15 C12         0.4261    2.1811   -2.2085 C.2       1 <0>         0.5262
     16 O2          1.4287    1.5012   -2.1502 O.2       1 <0>        -0.5407
     17 N2         -0.1774    2.3914   -3.3951 N.am      1 <0>        -0.6108
     18 C13        -1.3975    3.2076   -3.4873 C.3       1 <0>         0.1083
     19 C14        -1.1859    4.2693   -4.5782 C.3       1 <0>         0.0375
     20 N3         -0.7861    3.6075   -5.8273 N.3       1 <0>        -0.5286
     21 C15         0.5021    2.9180   -5.6764 C.3       1 <0>         0.0419
     22 C16         0.3632    1.8059   -4.6313 C.3       1 <0>         0.1156
     23 C17        -0.7434    4.5654   -6.9403 C.3       1 <0>         0.1724
     24 C18        -0.5000    3.8257   -8.2305 C.ar      1 <0>        -0.0917
     25 C19        -1.1808    2.6513   -8.4924 C.ar      1 <0>        -0.0595
     26 C20        -0.9620    1.9747   -9.6774 C.ar      1 <0>        -0.1559
     27 C21        -0.0528    2.4679  -10.5978 C.ar      1 <0>         0.1026
     28 C22         0.6323    3.6414  -10.3322 C.ar      1 <0>        -0.1539
     29 C23         0.4080    4.3191   -9.1488 C.ar      1 <0>        -0.0819
     30 F1          0.1653    1.8048  -11.7545 F         1 <0>        -0.1388
     31 C24        -2.0570    5.2994   -7.0221 C.ar      1 <0>        -0.0929
     32 C25        -3.2459    4.6000   -6.9300 C.ar      1 <0>        -0.0627
     33 C26        -4.4511    5.2726   -7.0001 C.ar      1 <0>        -0.1553
     34 C27        -4.4676    6.6463   -7.1731 C.ar      1 <0>         0.1029
     35 C28        -3.2762    7.3451   -7.2704 C.ar      1 <0>        -0.1532
     36 C29        -2.0722    6.6709   -7.1948 C.ar      1 <0>        -0.0817
     37 F2         -5.6452    7.3043   -7.2464 F         1 <0>        -0.1384
     38 N4          0.6493    0.9474    0.4490 N.3       1 <0>        -0.8148
     39 H2          1.3113    9.7614    3.6647 H         1 <0>         0.1302
     40 H3          2.6052    9.7832    1.5689 H         1 <0>         0.1298
     41 H4          2.7208    7.7591    0.1740 H         1 <0>         0.1258
     42 H5          0.1359    7.7152    4.3629 H         1 <0>         0.1274
     43 H6          0.5247    4.7749    3.7796 H         1 <0>         0.0852
     44 H7         -0.9376    5.3083    2.8830 H         1 <0>         0.0858
     45 H8          0.9510    5.3353   -0.1587 H         1 <0>         0.0813
     46 H9          2.4075    4.8054    0.7492 H         1 <0>         0.0845
     47 H10        -1.1695    2.4211   -0.8003 H         1 <0>         0.1137
     48 H11        -0.1613    3.8861   -1.0534 H         1 <0>         0.0993
     49 H12        -2.2505    2.5637   -3.7477 H         1 <0>         0.0843
     50 H13        -1.5874    3.6940   -2.5191 H         1 <0>         0.0903
     51 H14        -2.1230    4.8228   -4.7379 H         1 <0>         0.0965
     52 H15        -0.3969    4.9676   -4.2621 H         1 <0>         0.0425
     53 H16         0.7993    2.4811   -6.6412 H         1 <0>         0.0938
     54 H17         1.2669    3.6374   -5.3485 H         1 <0>         0.0420
     55 H18         1.3472    1.3592   -4.4257 H         1 <0>         0.0996
     56 H19        -0.3226    1.0286   -4.9994 H         1 <0>         0.0789
     57 H20         0.0756    5.2745   -6.7497 H         1 <0>         0.0633
     58 H21        -1.8869    2.2647   -7.7724 H         1 <0>         0.1400
     59 H22        -1.4970    1.0594   -9.8835 H         1 <0>         0.1364
     60 H23         1.3414    4.0272  -11.0496 H         1 <0>         0.1360
     61 H24         0.9420    5.2346   -8.9415 H         1 <0>         0.1304
     62 H25        -3.2328    3.5280   -6.7992 H         1 <0>         0.1402
     63 H26        -5.3797    4.7266   -6.9241 H         1 <0>         0.1370
     64 H27        -3.2879    8.4166   -7.4050 H         1 <0>         0.1364
     65 H28        -1.1428    7.2158   -7.2703 H         1 <0>         0.1309
     66 H29         1.0130    0.4308   -0.4515 H         1 <0>         0.3628
     67 H30         1.2734    0.6666    1.3102 H         1 <0>         0.3453
@<TRIPOS>BOND
     1    1    6 ar
     2    1    2 ar
     3    1   39 1
     4    2    3 ar
     5    2   40 1
     6    3    4 ar
     7    3   41 1
     8    4    9 1
     9    4    5 ar
    10    5    6 ar
    11    5    7 1
    12    6   42 1
    13    7    8 1
    14    7   43 1
    15    7   44 1
    16    8    9 1
    17    8   10 am
    18    9   45 1
    19    9   46 1
    20   10   11 2
    21   10   12 1
    22   12   13 1
    23   12   14 1
    24   12   38 1
    25   14   15 1
    26   14   47 1
    27   14   48 1
    28   15   16 2
    29   15   17 am
    30   17   22 1
    31   17   18 1
    32   18   19 1
    33   18   49 1
    34   18   50 1
    35   19   20 1
    36   19   51 1
    37   19   52 1
    38   20   21 1
    39   20   23 1
    40   21   22 1
    41   21   53 1
    42   21   54 1
    43   22   55 1
    44   22   56 1
    45   23   24 1
    46   23   31 1
    47   23   57 1
    48   24   29 ar
    49   24   25 ar
    50   25   26 ar
    51   25   58 1
    52   26   27 ar
    53   26   59 1
    54   27   28 ar
    55   27   30 1
    56   28   29 ar
    57   28   60 1
    58   29   61 1
    59   31   36 ar
    60   31   32 ar
    61   32   33 ar
    62   32   62 1
    63   33   34 ar
    64   33   63 1
    65   34   35 ar
    66   34   37 1
    67   35   36 ar
    68   35   64 1
    69   36   65 1
    70   38   66 1
    71   38   67 1
@<TRIPOS>MOLECULE
ZINC14948119
   32    32     0     0     0
SMALL
USER_CHARGES
(2S,3R)-2-amino-3-methyl-1-thiazolidin-3-yl-pentan-1-one
@<TRIPOS>ATOM
      1 C1          2.1873   -0.0730   -1.2073 C.3       1 <0>        -0.1599
      2 C2          0.7182   -0.4975   -1.2568 C.3       1 <0>        -0.1331
      3 C3          0.0021   -0.0041    0.0020 C.3       1 <0>        -0.1121
      4 H1          0.5293   -0.3651    0.8851 H         1 <0>         0.1225
      5 C4         -0.0187    1.5258    0.0104 C.3       1 <0>        -0.1738
      6 C5         -1.4333   -0.5336    0.0129 C.3       1 <0>         0.0155
      7 H2         -1.4185   -1.6235    0.0069 H         1 <0>         0.1640
      8 C6         -2.1387   -0.0476    1.2528 C.2       1 <0>         0.5182
      9 O1         -2.8888    0.9033    1.1903 O.2       1 <0>        -0.5118
     10 N1         -1.9360   -0.6698    2.4310 N.am      1 <0>        -0.5951
     11 C7         -2.5924   -0.2318    3.6595 C.3       1 <0>         0.0918
     12 C8         -2.8576   -1.4442    4.6046 C.3       1 <0>        -0.0738
     13 S1         -1.2853   -2.3691    4.3008 S.3       1 <0>        -0.2361
     14 C9         -1.0329   -1.8297    2.5567 C.3       1 <0>         0.1248
     15 H3          2.2499    1.0140   -1.1561 H         1 <0>         0.0657
     16 H4          2.6611   -0.5061   -0.3263 H         1 <0>         0.0661
     17 H5          2.6975   -0.4246   -2.1040 H         1 <0>         0.0708
     18 H6          0.6556   -1.5845   -1.3079 H         1 <0>         0.0833
     19 H7          0.2444   -0.0644   -2.1377 H         1 <0>         0.0647
     20 H8          1.0039    1.9031    0.0027 H         1 <0>         0.0940
     21 H9         -0.5459    1.8868   -0.8726 H         1 <0>         0.0583
     22 H10        -0.5289    1.8773    0.9072 H         1 <0>         0.0744
     23 H11        -1.9552    0.4913    4.1686 H         1 <0>         0.0967
     24 H12        -3.5416    0.2422    3.4097 H         1 <0>         0.1115
     25 H13        -3.7285   -2.0192    4.2902 H         1 <0>         0.1092
     26 H14        -2.9435   -1.1297    5.6447 H         1 <0>         0.1390
     27 H15        -1.3221   -2.6197    1.8636 H         1 <0>         0.1082
     28 H16         0.0021   -1.5319    2.3889 H         1 <0>         0.1155
     29 H17        -3.0739   -0.4349   -1.2269 H         1 <0>         0.4431
     30 H18        -2.1712    0.9615   -1.1949 H         1 <0>         0.4434
     31 N2         -2.1288   -0.0563   -1.1954 N.4       1 <0>        -0.6309
     32 H19        -1.6144   -0.3698   -2.0269 H         1 <0>         0.4459
@<TRIPOS>BOND
     1    1    2 1
     2    1   15 1
     3    1   16 1
     4    1   17 1
     5    2    3 1
     6    2   18 1
     7    2   19 1
     8    3    4 1
     9    3    5 1
    10    3    6 1
    11    5   20 1
    12    5   21 1
    13    5   22 1
    14    6    7 1
    15    6    8 1
    16    6   31 1
    17    8    9 2
    18    8   10 am
    19   10   14 1
    20   10   11 1
    21   11   12 1
    22   11   23 1
    23   11   24 1
    24   12   13 1
    25   12   25 1
    26   12   26 1
    27   13   14 1
    28   14   27 1
    29   14   28 1
    30   29   31 1
    31   30   31 1
    32   31   32 1
@<TRIPOS>MOLECULE
ZINC13648755
   48    52     0     0     0
SMALL
USER_CHARGES

@<TRIPOS>ATOM
      1 C1         -0.6757    1.6073   -0.2628 C.3       1 <0>        -0.1024
      2 C2          0.7714    2.1048   -0.0442 C.3       1 <0>        -0.1547
      3 H1          0.9686    2.7113    0.8397 H         1 <0>         0.1332
      4 C3          1.6833    2.2341   -1.2652 C.3       1 <0>        -0.1492
      5 C4          1.6656    0.9096   -0.4232 C.3       1 <0>         0.0554
      6 H2          2.5364    0.6429    0.1759 H         1 <0>         0.1391
      7 N1          0.7720   -0.1813   -0.8565 N.am      1 <0>        -0.5955
      8 C5         -0.5259    0.0669   -0.1874 C.3       1 <0>         0.2220
      9 H3         -0.4936   -0.2660    0.8500 H         1 <0>         0.1363
     10 C6         -1.6202   -0.5975   -0.9138 C.1       1 <0>         0.1989
     11 N2         -2.4648   -1.1103   -1.4743 N.1       1 <0>        -0.3831
     12 C7          1.0744   -1.1957   -1.6908 C.2       1 <0>         0.5493
     13 O1          2.1437   -1.2121   -2.2629 O.2       1 <0>        -0.5039
     14 C8          0.0840   -2.3097   -1.9126 C.3       1 <0>         0.0498
     15 H4         -0.9209   -1.8935   -1.9840 H         1 <0>         0.1242
     16 C9          0.1479   -3.2900   -0.7397 C.3       1 <0>        -0.0752
     17 C10         1.5327   -3.9387   -0.6921 C.3       1 <0>        -0.1088
     18 C11         1.5966   -4.9191    0.4808 C.3       1 <0>        -0.0813
     19 H5          2.5832   -5.3813    0.5148 H         1 <0>         0.0774
     20 C12         1.3403   -4.1672    1.7885 C.3       1 <0>        -0.1107
     21 C13        -0.0445   -3.5185    1.7408 C.3       1 <0>        -0.0804
     22 H6         -0.2270   -2.9829    2.6724 H         1 <0>         0.0787
     23 C14        -0.1084   -2.5381    0.5679 C.3       1 <0>        -0.1245
     24 C15        -1.1092   -4.6020    1.5585 C.3       1 <0>        -0.1385
     25 C16        -0.8530   -5.3539    0.2508 C.3       1 <0>         0.1392
     26 C17         0.5318   -6.0026    0.2985 C.3       1 <0>        -0.1383
     27 C18        -0.9169   -4.3735   -0.9221 C.3       1 <0>        -0.0916
     28 O2         -1.8475   -6.3658    0.0805 O.3       1 <0>        -0.5594
     29 N3          0.4115   -3.0151   -3.1588 N.3       1 <0>        -0.8244
     30 H7         -1.3322    1.9703    0.5280 H         1 <0>         0.1053
     31 H8         -1.0446    1.9116   -1.2423 H         1 <0>         0.0872
     32 H9          1.2112    2.2307   -2.2476 H         1 <0>         0.0991
     33 H10         2.5639    2.8693   -1.1697 H         1 <0>         0.1137
     34 H11         1.7153   -4.4744   -1.6237 H         1 <0>         0.0660
     35 H12         2.2913   -3.1668   -0.5622 H         1 <0>         0.0714
     36 H13         1.3859   -4.8657    2.6241 H         1 <0>         0.0664
     37 H14         2.0989   -3.3953    1.9184 H         1 <0>         0.0668
     38 H15         0.6502   -1.7662    0.6979 H         1 <0>         0.0805
     39 H16        -1.0949   -2.0760    0.5340 H         1 <0>         0.0648
     40 H17        -1.0637   -5.3004    2.3941 H         1 <0>         0.0679
     41 H18        -2.0958   -4.1398    1.5245 H         1 <0>         0.0702
     42 H19         0.7144   -6.5382   -0.6331 H         1 <0>         0.0704
     43 H20         0.5773   -6.7010    1.1341 H         1 <0>         0.0673
     44 H21        -1.9035   -3.9113   -0.9560 H         1 <0>         0.0730
     45 H22        -0.7343   -4.9091   -1.8537 H         1 <0>         0.0696
     46 H23        -1.8647   -7.0236    0.7891 H         1 <0>         0.3773
     47 H24         1.3390   -3.4103   -3.1176 H         1 <0>         0.3510
     48 H25        -0.2753   -3.7253   -3.3636 H         1 <0>         0.3504
@<TRIPOS>BOND
     1    1    8 1
     2    1    2 1
     3    1   30 1
     4    1   31 1
     5    2    3 1
     6    2    5 1
     7    2    4 1
     8    4    5 1
     9    4   32 1
    10    4   33 1
    11    5    6 1
    12    5    7 1
    13    7    8 1
    14    7   12 am
    15    8    9 1
    16    8   10 1
    17   10   11 3
    18   12   13 2
    19   12   14 1
    20   14   15 1
    21   14   16 1
    22   14   29 1
    23   16   23 1
    24   16   27 1
    25   16   17 1
    26   17   18 1
    27   17   34 1
    28   17   35 1
    29   18   19 1
    30   18   26 1
    31   18   20 1
    32   20   21 1
    33   20   36 1
    34   20   37 1
    35   21   22 1
    36   21   23 1
    37   21   24 1
    38   23   38 1
    39   23   39 1
    40   24   25 1
    41   24   40 1
    42   24   41 1
    43   25   26 1
    44   25   27 1
    45   25   28 1
    46   26   42 1
    47   26   43 1
    48   27   44 1
    49   27   45 1
    50   28   46 1
    51   29   47 1
    52   29   48 1
@<TRIPOS>MOLECULE
ZINC28826977
   38    39     0     0     0
SMALL
USER_CHARGES
(2S,3R)-2-amino-1-isoindolin-2-yl-3-methyl-pentan-1-one
@<TRIPOS>ATOM
      1 C1         -0.7527    1.5927   -1.2315 C.3       1 <0>        -0.1621
      2 C2         -0.0127    1.0858    0.0080 C.3       1 <0>        -0.1312
      3 C3         -0.7288    1.5792    1.2668 C.3       1 <0>        -0.1092
      4 H1         -0.8229    2.6745    1.2295 H         1 <0>         0.1197
      5 C4         -2.1214    0.9498    1.3412 C.3       1 <0>        -0.1742
      6 C5          0.0786    1.1786    2.5031 C.3       1 <0>         0.0269
      7 H2          1.0938    1.6003    2.4640 H         1 <0>         0.1581
      8 C6         -0.6268    1.6646    3.7430 C.2       1 <0>         0.5259
      9 O1         -1.3006    0.8974    4.3974 O.2       1 <0>        -0.5193
     10 N1         -0.5088    2.9518    4.1246 N.am      1 <0>        -0.5930
     11 C7          0.2689    3.9954    3.4491 C.3       1 <0>         0.1357
     12 C8          0.1005    5.2724    4.2329 C.ar      1 <0>        -0.1202
     13 C9          0.6142    6.5418    4.0294 C.ar      1 <0>        -0.0883
     14 C10         0.3115    7.5613    4.9112 C.ar      1 <0>        -0.1066
     15 C11        -0.5056    7.3138    5.9986 C.ar      1 <0>        -0.1017
     16 C12        -1.0188    6.0474    6.2020 C.ar      1 <0>        -0.0896
     17 C13        -0.7155    5.0252    5.3189 C.ar      1 <0>        -0.1089
     18 C14        -1.1284    3.5752    5.2983 C.3       1 <0>         0.1483
     19 N2          0.2044   -0.2842    2.5529 N.4       1 <0>        -0.6746
     20 H3         -0.2378    1.2380   -2.1365 H         1 <0>         0.0701
     21 H4         -0.7676    2.6926   -1.2254 H         1 <0>         0.0654
     22 H5         -1.7847    1.2120   -1.2237 H         1 <0>         0.0656
     23 H6          0.0022   -0.0141    0.0019 H         1 <0>         0.0648
     24 H7          1.0193    1.4665    0.0002 H         1 <0>         0.0819
     25 H8         -2.6362    1.3046    2.2462 H         1 <0>         0.0744
     26 H9         -2.0272   -0.1455    1.3785 H         1 <0>         0.0584
     27 H10        -2.7019    1.2379    0.4524 H         1 <0>         0.0930
     28 H11         1.3286    3.7017    3.4194 H         1 <0>         0.0914
     29 H12        -0.1047    4.1246    2.4226 H         1 <0>         0.0917
     30 H13         1.2528    6.7353    3.1802 H         1 <0>         0.1297
     31 H14         0.7132    8.5510    4.7514 H         1 <0>         0.1357
     32 H15        -0.7428    8.1101    6.6886 H         1 <0>         0.1361
     33 H16        -1.6573    5.8544    7.0514 H         1 <0>         0.1311
     34 H17        -2.2226    3.4901    5.2239 H         1 <0>         0.0947
     35 H18        -0.7821    3.0659    6.2097 H         1 <0>         0.0948
     36 H19         0.7849   -0.5722    3.4418 H         1 <0>         0.4625
     37 H20         0.7193   -0.6389    1.6479 H         1 <0>         0.4619
     38 H21        -0.7968   -0.7367    2.6063 H         1 <0>         0.4610
@<TRIPOS>BOND
     1    1    2 1
     2    1   20 1
     3    1   21 1
     4    1   22 1
     5    2    3 1
     6    2   23 1
     7    2   24 1
     8    3    4 1
     9    3    5 1
    10    3    6 1
    11    5   25 1
    12    5   26 1
    13    5   27 1
    14    6    7 1
    15    6    8 1
    16    6   19 1
    17    8    9 2
    18    8   10 am
    19   10   18 1
    20   10   11 1
    21   11   12 1
    22   11   28 1
    23   11   29 1
    24   12   17 ar
    25   12   13 ar
    26   13   14 ar
    27   13   30 1
    28   14   15 ar
    29   14   31 1
    30   15   16 ar
    31   15   32 1
    32   16   17 ar
    33   16   33 1
    34   17   18 1
    35   18   34 1
    36   18   35 1
    37   19   36 1
    38   19   37 1
    39   19   38 1
@<TRIPOS>MOLECULE
ZINC28826977
   37    38     0     0     0
SMALL
USER_CHARGES
(2S,3R)-2-amino-1-isoindolin-2-yl-3-methyl-pentan-1-one
@<TRIPOS>ATOM
      1 C1         -0.7527    1.5927   -1.2315 C.3       1 <0>        -0.1581
      2 C2         -0.0127    1.0858    0.0080 C.3       1 <0>        -0.1085
      3 C3         -0.7288    1.5792    1.2668 C.3       1 <0>        -0.0759
      4 H1         -0.8229    2.6745    1.2295 H         1 <0>         0.0739
      5 C4         -2.1214    0.9498    1.3412 C.3       1 <0>        -0.1569
      6 C5          0.0786    1.1786    2.5031 C.3       1 <0>         0.0718
      7 H2          1.0938    1.6003    2.4640 H         1 <0>         0.1026
      8 C6         -0.6268    1.6646    3.7430 C.2       1 <0>         0.5075
      9 O1         -1.3006    0.8974    4.3974 O.2       1 <0>        -0.5358
     10 N1         -0.5088    2.9518    4.1246 N.am      1 <0>        -0.6134
     11 C7          0.2689    3.9954    3.4491 C.3       1 <0>         0.1420
     12 C8          0.1005    5.2724    4.2329 C.ar      1 <0>        -0.1092
     13 C9          0.6142    6.5418    4.0294 C.ar      1 <0>        -0.0929
     14 C10         0.3115    7.5613    4.9112 C.ar      1 <0>        -0.1134
     15 C11        -0.5056    7.3138    5.9986 C.ar      1 <0>        -0.1110
     16 C12        -1.0188    6.0474    6.2020 C.ar      1 <0>        -0.0946
     17 C13        -0.7155    5.0252    5.3189 C.ar      1 <0>        -0.1034
     18 C14        -1.1284    3.5752    5.2983 C.3       1 <0>         0.1449
     19 N2          0.2044   -0.2842    2.5529 N.3       1 <0>        -0.8012
     20 H3         -0.2378    1.2380   -2.1365 H         1 <0>         0.0558
     21 H4         -0.7676    2.6926   -1.2254 H         1 <0>         0.0513
     22 H5         -1.7847    1.2120   -1.2237 H         1 <0>         0.0565
     23 H6          0.0022   -0.0141    0.0019 H         1 <0>         0.0776
     24 H7          1.0193    1.4665    0.0002 H         1 <0>         0.0609
     25 H8         -2.6362    1.3046    2.2462 H         1 <0>         0.0527
     26 H9         -2.0272   -0.1455    1.3785 H         1 <0>         0.0653
     27 H10        -2.7019    1.2379    0.4524 H         1 <0>         0.0644
     28 H11         1.3286    3.7017    3.4194 H         1 <0>         0.0851
     29 H12        -0.1047    4.1246    2.4226 H         1 <0>         0.0866
     30 H13         1.2528    6.7353    3.1802 H         1 <0>         0.1275
     31 H14         0.7132    8.5510    4.7514 H         1 <0>         0.1304
     32 H15        -0.7428    8.1101    6.6886 H         1 <0>         0.1303
     33 H16        -1.6573    5.8544    7.0514 H         1 <0>         0.1268
     34 H17        -2.2226    3.4901    5.2239 H         1 <0>         0.0833
     35 H18        -0.7821    3.0659    6.2097 H         1 <0>         0.0831
     36 H19         0.7849   -0.5722    3.4418 H         1 <0>         0.3438
     37 H20        -0.7968   -0.7367    2.6063 H         1 <0>         0.3503
@<TRIPOS>BOND
     1    1    2 1
     2    1   20 1
     3    1   21 1
     4    1   22 1
     5    2    3 1
     6    2   23 1
     7    2   24 1
     8    3    4 1
     9    3    5 1
    10    3    6 1
    11    5   25 1
    12    5   26 1
    13    5   27 1
    14    6    7 1
    15    6    8 1
    16    6   19 1
    17    8    9 2
    18    8   10 am
    19   10   18 1
    20   10   11 1
    21   11   12 1
    22   11   28 1
    23   11   29 1
    24   12   17 ar
    25   12   13 ar
    26   13   14 ar
    27   13   30 1
    28   14   15 ar
    29   14   31 1
    30   15   16 ar
    31   15   32 1
    32   16   17 ar
    33   16   33 1
    34   17   18 1
    35   18   34 1
    36   18   35 1
    37   19   36 1
    38   19   37 1
@<TRIPOS>MOLECULE
ZINC11959217
   34    34     0     0     0
SMALL
USER_CHARGES
(2S,3R)-2-amino-3-methyl-1-pyrrolidin-1-yl-pentan-1-one
@<TRIPOS>ATOM
      1 C1          2.1873   -0.0730   -1.2073 C.3       1 <0>        -0.1594
      2 C2          0.7182   -0.4975   -1.2568 C.3       1 <0>        -0.1332
      3 C3          0.0021   -0.0041    0.0020 C.3       1 <0>        -0.1105
      4 H1          0.5293   -0.3651    0.8851 H         1 <0>         0.1220
      5 C4         -0.0187    1.5258    0.0104 C.3       1 <0>        -0.1734
      6 C5         -1.4333   -0.5336    0.0129 C.3       1 <0>         0.0178
      7 H2         -1.4185   -1.6235    0.0069 H         1 <0>         0.1613
      8 C6         -2.1387   -0.0476    1.2528 C.2       1 <0>         0.5186
      9 O1         -2.8888    0.9033    1.1903 O.2       1 <0>        -0.5238
     10 N1         -1.9360   -0.6698    2.4310 N.am      1 <0>        -0.5946
     11 C7         -1.0626   -1.8326    2.6469 C.3       1 <0>         0.0835
     12 C8         -1.1645   -2.2115    4.1393 C.3       1 <0>        -0.1346
     13 C9         -2.5276   -1.6003    4.5586 C.3       1 <0>        -0.1363
     14 C10        -2.5582   -0.3010    3.7156 C.3       1 <0>         0.1010
     15 H3          2.2499    1.0140   -1.1561 H         1 <0>         0.0654
     16 H4          2.6611   -0.5061   -0.3263 H         1 <0>         0.0654
     17 H5          2.6975   -0.4246   -2.1040 H         1 <0>         0.0700
     18 H6          0.6556   -1.5845   -1.3079 H         1 <0>         0.0822
     19 H7          0.2444   -0.0644   -2.1377 H         1 <0>         0.0639
     20 H8          1.0039    1.9031    0.0027 H         1 <0>         0.0922
     21 H9         -0.5459    1.8868   -0.8726 H         1 <0>         0.0574
     22 H10        -0.5289    1.8773    0.9072 H         1 <0>         0.0746
     23 H11        -1.3946   -2.6657    2.0274 H         1 <0>         0.0794
     24 H12        -0.0326   -1.5732    2.4018 H         1 <0>         0.0803
     25 H13        -0.3500   -1.7660    4.7105 H         1 <0>         0.0864
     26 H14        -1.1730   -3.2945    4.2629 H         1 <0>         0.0939
     27 H15        -2.5431   -1.3747    5.6248 H         1 <0>         0.0975
     28 H16        -3.3515   -2.2608    4.2885 H         1 <0>         0.0823
     29 H17        -1.9808    0.4828    4.2057 H         1 <0>         0.0832
     30 H18        -3.5864    0.0255    3.5592 H         1 <0>         0.0894
     31 H19        -3.0739   -0.4349   -1.2269 H         1 <0>         0.4425
     32 H20        -2.1712    0.9615   -1.1949 H         1 <0>         0.4427
     33 N2         -2.1288   -0.0563   -1.1954 N.4       1 <0>        -0.6312
     34 H21        -1.6144   -0.3698   -2.0269 H         1 <0>         0.4442
@<TRIPOS>BOND
     1    1    2 1
     2    1   15 1
     3    1   16 1
     4    1   17 1
     5    2    3 1
     6    2   18 1
     7    2   19 1
     8    3    4 1
     9    3    5 1
    10    3    6 1
    11    5   20 1
    12    5   21 1
    13    5   22 1
    14    6    7 1
    15    6    8 1
    16    6   33 1
    17    8    9 2
    18    8   10 am
    19   10   14 1
    20   10   11 1
    21   11   12 1
    22   11   23 1
    23   11   24 1
    24   12   13 1
    25   12   25 1
    26   12   26 1
    27   13   14 1
    28   13   27 1
    29   13   28 1
    30   14   29 1
    31   14   30 1
    32   31   33 1
    33   32   33 1
    34   33   34 1
@<TRIPOS>MOLECULE
ZINC40394932
   38    39     0     0     0
SMALL
USER_CHARGES

@<TRIPOS>ATOM
      1 C1         -0.4636    1.2596    0.7105 C.3       1 <0>        -0.1606
      2 C2         -0.1812   -0.2138    0.4100 C.3       1 <0>        -0.1311
      3 C3          0.4252   -0.8794    1.6471 C.3       1 <0>        -0.1060
      4 H1         -0.2351   -0.7288    2.5012 H         1 <0>         0.1083
      5 C4          1.7915   -0.2575    1.9427 C.3       1 <0>        -0.1620
      6 C5          0.5921   -2.3783    1.3896 C.3       1 <0>         0.0146
      7 H2          1.2798   -2.5297    0.5576 H         1 <0>         0.1605
      8 C6          1.1442   -3.0418    2.6249 C.2       1 <0>         0.5239
      9 O1          0.3967   -3.3741    3.5203 O.2       1 <0>        -0.5113
     10 N1          2.4686   -3.2660    2.7346 N.am      1 <0>        -0.5907
     11 C7          3.4850   -3.0157    1.7076 C.3       1 <0>         0.1297
     12 C8          4.8217   -3.4167    2.2782 C.ar      1 <0>        -0.1209
     13 C9          6.0934   -3.3843    1.7317 C.ar      1 <0>        -0.0885
     14 C10         7.1769   -3.8155    2.4722 C.ar      1 <0>        -0.1063
     15 C11         6.9916   -4.2798    3.7612 C.ar      1 <0>        -0.1015
     16 C12         5.7230   -4.3121    4.3072 C.ar      1 <0>        -0.0893
     17 C13         4.6366   -3.8805    3.5654 C.ar      1 <0>        -0.1103
     18 C14         3.1700   -3.8009    3.9060 C.3       1 <0>         0.1502
     19 N2         -0.7129   -2.9667    1.0594 N.4       1 <0>        -0.6233
     20 H3          0.4674    1.7617    0.9736 H         1 <0>         0.0690
     21 H4         -0.8955    1.7338   -0.1708 H         1 <0>         0.0704
     22 H5         -1.1638    1.3330    1.5426 H         1 <0>         0.0630
     23 H6         -1.1122   -0.7159    0.1469 H         1 <0>         0.0594
     24 H7          0.5190   -0.2872   -0.4221 H         1 <0>         0.0847
     25 H8          1.6828    0.8211    2.0562 H         1 <0>         0.0909
     26 H9          2.1919   -0.6812    2.8637 H         1 <0>         0.0683
     27 H10         2.4731   -0.4694    1.1189 H         1 <0>         0.0725
     28 H11         3.2683   -3.6110    0.8206 H         1 <0>         0.0909
     29 H12         3.4962   -1.9568    1.4493 H         1 <0>         0.0967
     30 H13         6.2384   -3.0216    0.7248 H         1 <0>         0.1296
     31 H14         8.1682   -3.7902    2.0443 H         1 <0>         0.1357
     32 H15         7.8380   -4.6175    4.3408 H         1 <0>         0.1361
     33 H16         5.5785   -4.6749    5.3141 H         1 <0>         0.1312
     34 H17         3.0219   -3.1391    4.7593 H         1 <0>         0.0949
     35 H18         2.7927   -4.7965    4.1397 H         1 <0>         0.0950
     36 H19        -0.6028   -3.9552    0.8896 H         1 <0>         0.4401
     37 H20        -1.3495   -2.8266    1.8296 H         1 <0>         0.4440
     38 H21        -1.0825   -2.5224    0.2323 H         1 <0>         0.4421
@<TRIPOS>BOND
     1    1    2 1
     2    1   20 1
     3    1   21 1
     4    1   22 1
     5    2    3 1
     6    2   23 1
     7    2   24 1
     8    3    4 1
     9    3    5 1
    10    3    6 1
    11    5   25 1
    12    5   26 1
    13    5   27 1
    14    6    7 1
    15    6    8 1
    16    6   19 1
    17    8    9 2
    18    8   10 am
    19   10   18 1
    20   10   11 1
    21   11   12 1
    22   11   28 1
    23   11   29 1
    24   12   17 ar
    25   12   13 ar
    26   13   14 ar
    27   13   30 1
    28   14   15 ar
    29   14   31 1
    30   15   16 ar
    31   15   32 1
    32   16   17 ar
    33   16   33 1
    34   17   18 1
    35   18   34 1
    36   18   35 1
    37   19   36 1
    38   19   37 1
    39   19   38 1
@<TRIPOS>MOLECULE
ZINC40423900
   41    42     0     0     0
SMALL
USER_CHARGES

@<TRIPOS>ATOM
      1 C1         -0.0167    1.3772    0.0096 C.ar      1 <0>        -0.0970
      2 C2          1.1716    2.0840    0.0021 C.ar      1 <0>        -0.1049
      3 C3          2.3763    1.4080   -0.0131 C.ar      1 <0>        -0.0881
      4 C4          2.3957    0.0237   -0.0207 C.ar      1 <0>        -0.1293
      5 C5          1.2091   -0.6821   -0.0131 C.ar      1 <0>        -0.1106
      6 C6          0.0021   -0.0041    0.0020 C.ar      1 <0>        -0.0874
      7 C7          1.5194   -2.1575   -0.0232 C.3       1 <0>         0.1491
      8 N1          2.9781   -2.3062   -0.0374 N.am      1 <0>        -0.5891
      9 C8          3.5439   -0.9534   -0.0361 C.3       1 <0>         0.1400
     10 C9          3.6670   -3.4646   -0.0498 C.2       1 <0>         0.5189
     11 O1          3.0742   -4.5227   -0.0499 O.2       1 <0>        -0.5116
     12 C10         5.1738   -3.4450   -0.0636 C.3       1 <0>         0.0148
     13 H1          5.5330   -2.6566    0.5978 H         1 <0>         0.1678
     14 C11         5.6674   -3.1805   -1.4875 C.3       1 <0>        -0.1458
     15 C12         7.1906   -3.0368   -1.4807 C.3       1 <0>        -0.1323
     16 C13         7.6842   -2.7722   -2.9045 C.3       1 <0>        -0.1559
     17 C14         9.2075   -2.6285   -2.8978 C.3       1 <0>        -0.0097
     18 N2          9.6814   -2.3745   -4.2648 N.4       1 <0>        -0.6397
     19 N3          5.6846   -4.7425    0.3986 N.4       1 <0>        -0.6227
     20 H2         -0.9589    1.9047    0.0259 H         1 <0>         0.1389
     21 H3          1.1580    3.1639    0.0076 H         1 <0>         0.1375
     22 H4          3.3043    1.9603   -0.0193 H         1 <0>         0.1286
     23 H5         -0.9263   -0.5559    0.0083 H         1 <0>         0.1334
     24 H6          1.1088   -2.6275    0.8705 H         1 <0>         0.0980
     25 H7          1.0923   -2.6188   -0.9137 H         1 <0>         0.0971
     26 H8          4.1447   -0.8033   -0.9331 H         1 <0>         0.0875
     27 H9          4.1612   -0.8120    0.8511 H         1 <0>         0.0915
     28 H10         5.3839   -4.0134   -2.1309 H         1 <0>         0.1064
     29 H11         5.2174   -2.2616   -1.8632 H         1 <0>         0.1219
     30 H12         7.4741   -2.2039   -0.8373 H         1 <0>         0.0970
     31 H13         7.6407   -3.9557   -1.1050 H         1 <0>         0.0761
     32 H14         7.4008   -3.6051   -3.5480 H         1 <0>         0.0962
     33 H15         7.2342   -1.8533   -3.2803 H         1 <0>         0.0990
     34 H16         9.4909   -1.7956   -2.2543 H         1 <0>         0.1371
     35 H17         9.6575   -3.5474   -2.5221 H         1 <0>         0.1350
     36 H18         9.4190   -3.1455   -4.8605 H         1 <0>         0.4380
     37 H19         9.2648   -1.5239   -4.6127 H         1 <0>         0.4388
     38 H20         5.3521   -5.4723   -0.2137 H         1 <0>         0.4447
     39 H21         6.6935   -4.7294    0.3894 H         1 <0>         0.4386
     40 H22        10.6859   -2.2797   -4.2604 H         1 <0>         0.4449
     41 H23         5.3591   -4.9170    1.3376 H         1 <0>         0.4475
@<TRIPOS>BOND
     1    1    6 ar
     2    1    2 ar
     3    1   20 1
     4    2    3 ar
     5    2   21 1
     6    3    4 ar
     7    3   22 1
     8    4    9 1
     9    4    5 ar
    10    5    6 ar
    11    5    7 1
    12    6   23 1
    13    7    8 1
    14    7   24 1
    15    7   25 1
    16    8    9 1
    17    8   10 am
    18    9   26 1
    19    9   27 1
    20   10   11 2
    21   10   12 1
    22   12   13 1
    23   12   14 1
    24   12   19 1
    25   14   15 1
    26   14   28 1
    27   14   29 1
    28   15   16 1
    29   15   30 1
    30   15   31 1
    31   16   17 1
    32   16   32 1
    33   16   33 1
    34   17   18 1
    35   17   34 1
    36   17   35 1
    37   18   36 1
    38   18   37 1
    39   18   40 1
    40   19   38 1
    41   19   39 1
    42   19   41 1
@<TRIPOS>MOLECULE
ZINC40423900
   40    41     0     0     0
SMALL
USER_CHARGES

@<TRIPOS>ATOM
      1 C1         -0.0167    1.3772    0.0096 C.ar      1 <0>        -0.1068
      2 C2          1.1716    2.0840    0.0021 C.ar      1 <0>        -0.1126
      3 C3          2.3763    1.4080   -0.0131 C.ar      1 <0>        -0.0934
      4 C4          2.3957    0.0237   -0.0207 C.ar      1 <0>        -0.1181
      5 C5          1.2091   -0.6821   -0.0131 C.ar      1 <0>        -0.1040
      6 C6          0.0021   -0.0041    0.0020 C.ar      1 <0>        -0.0927
      7 C7          1.5194   -2.1575   -0.0232 C.3       1 <0>         0.1492
      8 N1          2.9781   -2.3062   -0.0374 N.am      1 <0>        -0.6164
      9 C8          3.5439   -0.9534   -0.0361 C.3       1 <0>         0.1486
     10 C9          3.6670   -3.4646   -0.0498 C.2       1 <0>         0.5407
     11 O1          3.0742   -4.5227   -0.0499 O.2       1 <0>        -0.5141
     12 C10         5.1738   -3.4450   -0.0636 C.3       1 <0>         0.0841
     13 H1          5.5330   -2.6566    0.5978 H         1 <0>         0.1063
     14 C11         5.6674   -3.1805   -1.4875 C.3       1 <0>        -0.1551
     15 C12         7.1906   -3.0368   -1.4807 C.3       1 <0>        -0.1190
     16 C13         7.6842   -2.7722   -2.9045 C.3       1 <0>        -0.1523
     17 C14         9.2075   -2.6285   -2.8978 C.3       1 <0>        -0.0098
     18 N2          9.6814   -2.3745   -4.2648 N.4       1 <0>        -0.6386
     19 N3          5.6846   -4.7425    0.3986 N.3       1 <0>        -0.8270
     20 H2         -0.9589    1.9047    0.0259 H         1 <0>         0.1327
     21 H3          1.1580    3.1639    0.0076 H         1 <0>         0.1317
     22 H4          3.3043    1.9603   -0.0193 H         1 <0>         0.1255
     23 H5         -0.9263   -0.5559    0.0083 H         1 <0>         0.1291
     24 H6          1.1088   -2.6275    0.8705 H         1 <0>         0.0869
     25 H7          1.0923   -2.6188   -0.9137 H         1 <0>         0.0851
     26 H8          4.1447   -0.8033   -0.9331 H         1 <0>         0.0786
     27 H9          4.1612   -0.8120    0.8511 H         1 <0>         0.0836
     28 H10         5.3839   -4.0134   -2.1309 H         1 <0>         0.0769
     29 H11         5.2174   -2.2616   -1.8632 H         1 <0>         0.0787
     30 H12         7.4741   -2.2039   -0.8373 H         1 <0>         0.0813
     31 H13         7.6407   -3.9557   -1.1050 H         1 <0>         0.0769
     32 H14         7.4008   -3.6051   -3.5480 H         1 <0>         0.0891
     33 H15         7.2342   -1.8533   -3.2803 H         1 <0>         0.0898
     34 H16         9.4909   -1.7956   -2.2543 H         1 <0>         0.1349
     35 H17         9.6575   -3.5474   -2.5221 H         1 <0>         0.1346
     36 H18         9.4190   -3.1455   -4.8605 H         1 <0>         0.4359
     37 H19         9.2648   -1.5239   -4.6127 H         1 <0>         0.4357
     38 H20         5.3653   -5.4904   -0.1987 H         1 <0>         0.3561
     39 H21        10.6859   -2.2797   -4.2604 H         1 <0>         0.4396
     40 H22         6.6917   -4.7336    0.4599 H         1 <0>         0.3480
@<TRIPOS>BOND
     1    1    6 ar
     2    1    2 ar
     3    1   20 1
     4    2    3 ar
     5    2   21 1
     6    3    4 ar
     7    3   22 1
     8    4    9 1
     9    4    5 ar
    10    5    6 ar
    11    5    7 1
    12    6   23 1
    13    7    8 1
    14    7   24 1
    15    7   25 1
    16    8    9 1
    17    8   10 am
    18    9   26 1
    19    9   27 1
    20   10   11 2
    21   10   12 1
    22   12   13 1
    23   12   14 1
    24   12   19 1
    25   14   15 1
    26   14   28 1
    27   14   29 1
    28   15   16 1
    29   15   30 1
    30   15   31 1
    31   16   17 1
    32   16   32 1
    33   16   33 1
    34   17   18 1
    35   17   34 1
    36   17   35 1
    37   18   36 1
    38   18   37 1
    39   18   39 1
    40   19   38 1
    41   19   40 1
@<TRIPOS>MOLECULE
ZINC08076607
   54    55     0     0     0
SMALL
USER_CHARGES
(4-nitrophenyl)methyl (5-amino-5-pyrrolidin-1-ylcarbonyl-pentyl)aminoformate
@<TRIPOS>ATOM
      1 C1          0.0021   -0.0041    0.0020 C.ar      1 <0>        -0.0906
      2 C2         -0.0167    1.3781    0.0096 C.ar      1 <0>        -0.0563
      3 C3          1.1709    2.0855    0.0021 C.ar      1 <0>        -0.0303
      4 C4          2.3773    1.4107   -0.0145 C.ar      1 <0>        -0.0565
      5 C5          2.3960    0.0285   -0.0212 C.ar      1 <0>        -0.0908
      6 C6          1.2084   -0.6789   -0.0132 C.ar      1 <0>        -0.0540
      7 C7          1.2289   -2.1857   -0.0205 C.3       1 <0>         0.1249
      8 O1          1.2218   -2.6632   -1.3917 O.3       1 <0>        -0.3631
      9 C8          1.2382   -3.9970   -1.5745 C.2       1 <0>         0.6504
     10 O2          1.2578   -4.7417   -0.6145 O.2       1 <0>        -0.5649
     11 N1          1.2327   -4.5063   -2.8224 N.am      1 <0>        -0.7129
     12 C9          1.2505   -5.9576   -3.0213 C.3       1 <0>         0.1357
     13 C10         1.2399   -6.2671   -4.5197 C.3       1 <0>        -0.1356
     14 C11         1.2585   -7.7828   -4.7274 C.3       1 <0>        -0.1285
     15 C12         1.2479   -8.0924   -6.2258 C.3       1 <0>        -0.1404
     16 C13         1.2665   -9.6081   -6.4336 C.3       1 <0>         0.0172
     17 H1          0.4361  -10.0594   -5.8906 H         1 <0>         0.1623
     18 C14         1.1323   -9.9154   -7.9028 C.2       1 <0>         0.5123
     19 O3          2.1156  -10.1913   -8.5569 O.2       1 <0>        -0.5247
     20 N2         -0.0805   -9.8836   -8.4899 N.am      1 <0>        -0.5939
     21 C15        -1.3502   -9.5721   -7.8172 C.3       1 <0>         0.0834
     22 C16        -2.4680   -9.6803   -8.8755 C.3       1 <0>        -0.1351
     23 C17        -1.8381  -10.6056   -9.9500 C.3       1 <0>        -0.1366
     24 C18        -0.3545  -10.1617   -9.9115 C.3       1 <0>         0.1004
     25 N3          1.1509    3.5656    0.0098 N.pl3     1 <0>         0.0217
     26 O4          0.0879    4.1601    0.0228 O.2       1 <0>        -0.1501
     27 O5          2.1973    4.1889    0.0031 O.3       1 <0>        -0.1502
     28 H2         -0.9258   -0.5567    0.0083 H         1 <0>         0.1511
     29 H3         -0.9592    1.9054    0.0170 H         1 <0>         0.1599
     30 H4          3.3051    1.9634   -0.0201 H         1 <0>         0.1598
     31 H5          3.3385   -0.4987   -0.0324 H         1 <0>         0.1509
     32 H6          2.1288   -2.5393    0.4828 H         1 <0>         0.0924
     33 H7          0.3491   -2.5635    0.5004 H         1 <0>         0.0927
     34 H8          1.2171   -3.9118   -3.5887 H         1 <0>         0.4102
     35 H9          2.1508   -6.3751   -2.5704 H         1 <0>         0.0732
     36 H10         0.3711   -6.3993   -2.5528 H         1 <0>         0.0753
     37 H11         0.3397   -5.8496   -4.9706 H         1 <0>         0.0835
     38 H12         2.1194   -5.8253   -4.9882 H         1 <0>         0.0809
     39 H13         2.1588   -8.2004   -4.2766 H         1 <0>         0.0690
     40 H14         0.3791   -8.2246   -4.2589 H         1 <0>         0.0889
     41 H15         0.3476   -7.6748   -6.6767 H         1 <0>         0.1179
     42 H16         2.1273   -7.6506   -6.6943 H         1 <0>         0.1015
     43 H17        -1.5284  -10.2857   -7.0128 H         1 <0>         0.0801
     44 H18        -1.3186   -8.5589   -7.4165 H         1 <0>         0.0810
     45 H19        -2.7009   -8.7025   -9.2972 H         1 <0>         0.0865
     46 H20        -3.3609  -10.1371   -8.4487 H         1 <0>         0.0941
     47 H21        -2.2761  -10.4201  -10.9307 H         1 <0>         0.0978
     48 H22        -1.9396  -11.6543   -9.6705 H         1 <0>         0.0825
     49 H23        -0.2124   -9.2609  -10.5085 H         1 <0>         0.0839
     50 H24         0.2906  -10.9628  -10.2725 H         1 <0>         0.0897
     51 H25         3.3201   -9.7524   -6.4206 H         1 <0>         0.4450
     52 H26         2.6186  -10.0190   -4.9364 H         1 <0>         0.4432
     53 N4          2.5311  -10.1799   -5.9385 N.4       1 <0>        -0.6310
     54 H27         2.5372  -11.1910   -6.1172 H         1 <0>         0.4461
@<TRIPOS>BOND
     1    1    6 ar
     2    1    2 ar
     3    1   28 1
     4    2    3 ar
     5    2   29 1
     6    3    4 ar
     7    3   25 1
     8    4    5 ar
     9    4   30 1
    10    5    6 ar
    11    5   31 1
    12    6    7 1
    13    7    8 1
    14    7   32 1
    15    7   33 1
    16    8    9 1
    17    9   10 2
    18    9   11 am
    19   11   12 1
    20   11   34 1
    21   12   13 1
    22   12   35 1
    23   12   36 1
    24   13   14 1
    25   13   37 1
    26   13   38 1
    27   14   15 1
    28   14   39 1
    29   14   40 1
    30   15   16 1
    31   15   41 1
    32   15   42 1
    33   16   17 1
    34   16   18 1
    35   16   53 1
    36   18   19 2
    37   18   20 am
    38   20   24 1
    39   20   21 1
    40   21   22 1
    41   21   43 1
    42   21   44 1
    43   22   23 1
    44   22   45 1
    45   22   46 1
    46   23   24 1
    47   23   47 1
    48   23   48 1
    49   24   49 1
    50   24   50 1
    51   25   26 2
    52   25   27 1
    53   51   53 1
    54   52   53 1
    55   53   54 1
@<TRIPOS>MOLECULE
ZINC03931585
   32    32     0     0     0
SMALL
USER_CHARGES
2-amino-3-methyl-1-thiazolidin-3-yl-pentan-1-one
@<TRIPOS>ATOM
      1 C1          4.5543    2.2439   -2.3610 C.3       1 <0>        -0.1608
      2 C2          3.4512    1.2091   -2.5920 C.3       1 <0>        -0.1309
      3 C3          2.0916    1.8325   -2.2698 C.3       1 <0>        -0.1039
      4 H1          1.9620    2.7437   -2.8538 H         1 <0>         0.1082
      5 C4          2.0253    2.1687   -0.7786 C.3       1 <0>        -0.1617
      6 C5          0.9802    0.8406   -2.6188 C.3       1 <0>         0.0152
      7 H2          1.0809   -0.0507   -1.9995 H         1 <0>         0.1585
      8 C6         -0.3610    1.4794   -2.3654 C.2       1 <0>         0.5122
      9 O1         -0.8455    2.2214   -3.1934 O.2       1 <0>        -0.5051
     10 N1         -1.0221    1.2261   -1.2185 N.am      1 <0>        -0.5948
     11 C7         -2.2685    1.9063   -0.8782 C.3       1 <0>         0.0918
     12 C8         -2.4030    2.0769    0.6637 C.3       1 <0>        -0.0727
     13 S1         -1.6927    0.4456    1.1819 S.3       1 <0>        -0.2367
     14 C9         -0.5293    0.2449   -0.2332 C.3       1 <0>         0.1174
     15 H3          5.5229    1.7998   -2.5906 H         1 <0>         0.0707
     16 H4          4.3865    3.1045   -3.0085 H         1 <0>         0.0629
     17 H5          4.5393    2.5645   -1.3193 H         1 <0>         0.0689
     18 H6          3.6189    0.3485   -1.9445 H         1 <0>         0.0843
     19 H7          3.4661    0.8885   -3.6337 H         1 <0>         0.0599
     20 H8          1.0864    2.6785   -0.5625 H         1 <0>         0.0664
     21 H9          2.0819    1.2493   -0.1960 H         1 <0>         0.0725
     22 H10         2.8602    2.8179   -0.5151 H         1 <0>         0.0927
     23 H11        -2.2816    2.8887   -1.3503 H         1 <0>         0.1107
     24 H12        -3.1097    1.3198   -1.2477 H         1 <0>         0.0965
     25 H13        -1.8009    2.9087    1.0294 H         1 <0>         0.1091
     26 H14        -3.4452    2.1774    0.9669 H         1 <0>         0.1391
     27 H15        -0.5841   -0.7664   -0.6363 H         1 <0>         0.1136
     28 H16         0.4904    0.4824    0.0700 H         1 <0>         0.1126
     29 H17         0.9943    1.2766   -4.6308 H         1 <0>         0.4463
     30 H18         1.9485   -0.0214   -4.2181 H         1 <0>         0.4450
     31 N2          1.0646    0.4515   -4.0376 N.4       1 <0>        -0.6321
     32 H19         0.2916   -0.1871   -4.2589 H         1 <0>         0.4442
@<TRIPOS>BOND
     1    1    2 1
     2    1   15 1
     3    1   16 1
     4    1   17 1
     5    2    3 1
     6    2   18 1
     7    2   19 1
     8    3    4 1
     9    3    5 1
    10    3    6 1
    11    5   20 1
    12    5   21 1
    13    5   22 1
    14    6    7 1
    15    6    8 1
    16    6   31 1
    17    8    9 2
    18    8   10 am
    19   10   14 1
    20   10   11 1
    21   11   12 1
    22   11   23 1
    23   11   24 1
    24   12   13 1
    25   12   25 1
    26   12   26 1
    27   13   14 1
    28   14   27 1
    29   14   28 1
    30   29   31 1
    31   30   31 1
    32   31   32 1
