@<TRIPOS>MOLECULE
ZINC53166256
   43    46     0     0     0
SMALL
USER_CHARGES

@<TRIPOS>ATOM
      1 C1         -0.0645    1.4412   -0.3732 C.3       1 <0>         0.0245
      2 N1         -0.0216   -0.0161   -0.1927 N.3       1 <0>        -0.5427
      3 C2          0.3881   -0.6883   -1.4329 C.3       1 <0>         0.0399
      4 C3          0.2462   -2.2042   -1.2592 C.3       1 <0>         0.1270
      5 N2          0.9912   -2.6085   -0.0572 N.pl3     1 <0>        -0.5934
      6 C4          0.7333   -1.8856    1.1973 C.3       1 <0>         0.1156
      7 C5          0.8560   -0.3822    0.9269 C.3       1 <0>         0.0395
      8 C6          1.9059   -3.6360   -0.1053 C.2       1 <0>         0.5356
      9 N3          2.1874   -4.1476   -1.2567 N.2       1 <0>        -0.6206
     10 C7          2.9530   -5.2310   -1.5577 C.ar      1 <0>         0.1701
     11 C8          2.4830   -6.1190   -2.5335 C.ar      1 <0>        -0.1161
     12 C9          3.2327   -7.2189   -2.8990 C.ar      1 <0>        -0.1046
     13 C10         4.4585   -7.4578   -2.3086 C.ar      1 <0>        -0.1308
     14 C11         4.9338   -6.5952   -1.3330 C.ar      1 <0>        -0.1099
     15 C12         4.1849   -5.4996   -0.9492 C.ar      1 <0>         0.0928
     16 N4          4.6603   -4.6750    0.0974 N.pl3     1 <0>        -0.6675
     17 C13         3.8314   -4.5378    1.1992 C.2       1 <0>         0.0941
     18 C14         2.5165   -4.0886    1.1665 C.2       1 <0>        -0.2204
     19 C15         1.8382   -4.1107    2.4492 C.2       1 <0>        -0.0854
     20 C16         2.5687   -4.5058    3.5084 C.2       1 <0>        -0.1956
     21 S1          4.1544   -4.8614    2.8004 S.3       1 <0>         0.1912
     22 C17         2.1405   -4.6249    4.9484 C.3       1 <0>         0.1641
     23 O1          1.6299   -5.9381    5.1865 O.3       1 <0>        -0.5666
     24 H1          0.9395    1.8113   -0.5807 H         1 <0>         0.0253
     25 H2         -0.7212    1.6847   -1.2084 H         1 <0>         0.0709
     26 H3         -0.4436    1.9089    0.5355 H         1 <0>         0.0707
     27 H4         -0.2467   -0.3553   -2.2540 H         1 <0>         0.0875
     28 H5          1.4271   -0.4432   -1.6533 H         1 <0>         0.0376
     29 H6         -0.8063   -2.4623   -1.1417 H         1 <0>         0.0713
     30 H7          0.6556   -2.7127   -2.1321 H         1 <0>         0.1047
     31 H8         -0.2724   -2.1131    1.5509 H         1 <0>         0.0773
     32 H9          1.4647   -2.1834    1.9486 H         1 <0>         0.0976
     33 H10         1.8885   -0.1414    0.6736 H         1 <0>         0.0377
     34 H11         0.5606    0.1728    1.8173 H         1 <0>         0.0886
     35 H12         1.5267   -5.9420   -3.0033 H         1 <0>         0.1272
     36 H13         2.8583   -7.8974   -3.6513 H         1 <0>         0.1261
     37 H14         5.0449   -8.3146   -2.6060 H         1 <0>         0.1266
     38 H15         5.8924   -6.7804   -0.8713 H         1 <0>         0.1236
     39 H16         5.5203   -4.2292    0.0463 H         1 <0>         0.4183
     40 H17         0.8015   -3.8247    2.5488 H         1 <0>         0.1460
     41 H18         2.9969   -4.4447    5.5982 H         1 <0>         0.0639
     42 H19         1.3639   -3.8895    5.1585 H         1 <0>         0.0718
     43 H20         1.3347   -6.0866    6.0953 H         1 <0>         0.3866
@<TRIPOS>BOND
     1    1    2 1
     2    1   24 1
     3    1   25 1
     4    1   26 1
     5    2    7 1
     6    2    3 1
     7    3    4 1
     8    3   27 1
     9    3   28 1
    10    4    5 1
    11    4   29 1
    12    4   30 1
    13    5    6 1
    14    5    8 1
    15    6    7 1
    16    6   31 1
    17    6   32 1
    18    7   33 1
    19    7   34 1
    20    8   18 1
    21    8    9 2
    22    9   10 1
    23   10   15 ar
    24   10   11 ar
    25   11   12 ar
    26   11   35 1
    27   12   13 ar
    28   12   36 1
    29   13   14 ar
    30   13   37 1
    31   14   15 ar
    32   14   38 1
    33   15   16 1
    34   16   17 1
    35   16   39 1
    36   17   21 1
    37   17   18 2
    38   18   19 1
    39   19   20 2
    40   19   40 1
    41   20   21 1
    42   20   22 1
    43   22   23 1
    44   22   41 1
    45   22   42 1
    46   23   43 1
@<TRIPOS>MOLECULE
ZINC53166256
   44    47     0     0     0
SMALL
USER_CHARGES

@<TRIPOS>ATOM
      1 C1         -0.0503    1.4404   -0.3738 C.3       1 <0>        -0.0468
      2 N1         -0.0137   -0.0159   -0.1846 N.4       1 <0>        -0.3851
      3 C2          0.4926   -0.6538   -1.4064 C.3       1 <0>        -0.0215
      4 C3          0.4236   -2.1768   -1.2526 C.3       1 <0>         0.1009
      5 N2          1.1441   -2.5548   -0.0269 N.pl3     1 <0>        -0.6150
      6 C4          0.8123   -1.8460    1.2187 C.3       1 <0>         0.0891
      7 C5          0.8630   -0.3387    0.9482 C.3       1 <0>        -0.0221
      8 C6          2.1011   -3.5439   -0.0451 C.2       1 <0>         0.5271
      9 N3          2.4417   -4.0411   -1.1867 N.2       1 <0>        -0.5934
     10 C7          3.2607   -5.0916   -1.4627 C.ar      1 <0>         0.1438
     11 C8          2.8603   -5.9960   -2.4544 C.ar      1 <0>        -0.1034
     12 C9          3.6662   -7.0636   -2.7954 C.ar      1 <0>        -0.1053
     13 C10         4.8803   -7.2535   -2.1643 C.ar      1 <0>        -0.1121
     14 C11         5.2869   -6.3742   -1.1727 C.ar      1 <0>        -0.1118
     15 C12         4.4814   -5.3110   -0.8134 C.ar      1 <0>         0.1053
     16 N4          4.8874   -4.4699    0.2491 N.pl3     1 <0>        -0.6685
     17 C13         4.0171   -4.3690    1.3226 C.2       1 <0>         0.0970
     18 C14         2.6868   -3.9739    1.2462 C.2       1 <0>        -0.2330
     19 C15         1.9674   -4.0264    2.5054 C.2       1 <0>        -0.1010
     20 C16         2.6776   -4.3936    3.5882 C.2       1 <0>        -0.1858
     21 S1          4.2994   -4.6826    2.9336 S.3       1 <0>         0.2189
     22 C17         2.2067   -4.5331    5.0129 C.3       1 <0>         0.1600
     23 O1          1.7425   -5.8666    5.2328 O.3       1 <0>        -0.5661
     24 H1          0.9563    1.8058   -0.5769 H         1 <0>         0.1210
     25 H2         -0.7009    1.6813   -1.2145 H         1 <0>         0.1255
     26 H3         -0.4336    1.9146    0.5297 H         1 <0>         0.1251
     27 H4         -0.1168   -0.3464   -2.2563 H         1 <0>         0.1423
     28 H5          1.5267   -0.3518   -1.5724 H         1 <0>         0.1313
     29 H6         -0.6176   -2.4904   -1.1769 H         1 <0>         0.0891
     30 H7          0.8911   -2.6535   -2.1141 H         1 <0>         0.1420
     31 H8         -0.1896   -2.1263    1.5440 H         1 <0>         0.0942
     32 H9          1.5369   -2.1040    1.9911 H         1 <0>         0.1380
     33 H10         1.8859   -0.0462    0.7110 H         1 <0>         0.1319
     34 H11         0.5265    0.2010    1.8334 H         1 <0>         0.1434
     35 H12         1.9139   -5.8573   -2.9558 H         1 <0>         0.1292
     36 H13         3.3452   -7.7553   -3.5603 H         1 <0>         0.1323
     37 H14         5.5108   -8.0849   -2.4425 H         1 <0>         0.1334
     38 H15         6.2363   -6.5211   -0.6793 H         1 <0>         0.1295
     39 H16         5.7296   -3.9892    0.2272 H         1 <0>         0.4219
     40 H17         0.9172   -3.7832    2.5704 H         1 <0>         0.1434
     41 H18         3.0327   -4.3194    5.6912 H         1 <0>         0.0672
     42 H19         1.3940   -3.8304    5.1974 H         1 <0>         0.0714
     43 H20         1.4234   -6.0289    6.1311 H         1 <0>         0.3916
     44 H21        -0.9456   -0.3526    0.0063 H         1 <0>         0.4248
@<TRIPOS>BOND
     1    1    2 1
     2    1   24 1
     3    1   25 1
     4    1   26 1
     5    2    7 1
     6    2    3 1
     7    2   44 1
     8    3    4 1
     9    3   27 1
    10    3   28 1
    11    4    5 1
    12    4   29 1
    13    4   30 1
    14    5    6 1
    15    5    8 1
    16    6    7 1
    17    6   31 1
    18    6   32 1
    19    7   33 1
    20    7   34 1
    21    8   18 1
    22    8    9 2
    23    9   10 1
    24   10   15 ar
    25   10   11 ar
    26   11   12 ar
    27   11   35 1
    28   12   13 ar
    29   12   36 1
    30   13   14 ar
    31   13   37 1
    32   14   15 ar
    33   14   38 1
    34   15   16 1
    35   16   17 1
    36   16   39 1
    37   17   21 1
    38   17   18 2
    39   18   19 1
    40   19   20 2
    41   19   40 1
    42   20   21 1
    43   20   22 1
    44   22   23 1
    45   22   41 1
    46   22   42 1
    47   23   43 1
@<TRIPOS>MOLECULE
ZINC02169415
   51    53     0     0     0
SMALL
USER_CHARGES

@<TRIPOS>ATOM
      1 C1          0.1211    1.2205   -3.1182 C.3       1 <0>        -0.1554
      2 C2          0.1212   -0.2930   -2.8943 C.3       1 <0>        -0.1522
      3 C3          0.5756   -0.5972   -1.4653 C.3       1 <0>        -0.0201
      4 N1          0.5307   -2.0474   -1.2355 N.4       1 <0>        -0.3814
      5 C4         -0.8598   -2.5136   -1.3189 C.3       1 <0>        -0.0169
      6 C5         -1.6744   -1.8943   -0.1814 C.3       1 <0>        -0.0968
      7 C6         -3.0637   -2.4784   -0.1827 C.ar      1 <0>        -0.1073
      8 C7         -4.0648   -1.8787   -0.9236 C.ar      1 <0>        -0.1097
      9 C8         -5.3392   -2.4144   -0.9248 C.ar      1 <0>        -0.1136
     10 C9         -5.6122   -3.5500   -0.1855 C.ar      1 <0>        -0.1044
     11 C10        -4.6108   -4.1503    0.5547 C.ar      1 <0>        -0.1137
     12 C11        -3.3354   -3.6170    0.5525 C.ar      1 <0>        -0.1108
     13 C12         1.3381   -2.7300   -2.2553 C.3       1 <0>         0.0202
     14 H1          0.9446   -2.5044   -3.2465 H         1 <0>         0.1445
     15 C13         2.7949   -2.2617   -2.1593 C.3       1 <0>        -0.1386
     16 C14         3.5541   -2.7985   -3.3710 C.3       1 <0>        -0.0685
     17 C15         3.3324   -4.2809   -3.5206 C.ar      1 <0>        -0.1100
     18 C16         2.2929   -4.9405   -2.9056 C.ar      1 <0>        -0.0755
     19 C17         2.1397   -6.3086   -3.0915 C.ar      1 <0>        -0.1201
     20 C18         3.0232   -7.0147   -3.8823 C.ar      1 <0>        -0.0943
     21 C19         4.0710   -6.3578   -4.4975 C.ar      1 <0>        -0.1328
     22 C20         4.2258   -4.9935   -4.3180 C.ar      1 <0>         0.1136
     23 O1          5.2555   -4.3454   -4.9234 O.3       1 <0>        -0.4942
     24 C21         1.2991   -4.2382   -2.0176 C.3       1 <0>        -0.0918
     25 H2         -0.5617    1.6923   -2.4116 H         1 <0>         0.0668
     26 H3          1.1276    1.6103   -2.9662 H         1 <0>         0.0672
     27 H4         -0.2026    1.4372   -4.1362 H         1 <0>         0.0768
     28 H5         -0.8853   -0.6828   -3.0463 H         1 <0>         0.0858
     29 H6          0.8041   -0.7648   -3.6009 H         1 <0>         0.0873
     30 H7          1.5950   -0.2382   -1.3241 H         1 <0>         0.1334
     31 H8         -0.0869   -0.0967   -0.7591 H         1 <0>         0.1340
     32 H9         -1.2865   -2.2144   -2.2762 H         1 <0>         0.1340
     33 H10        -0.8845   -3.6000   -1.2338 H         1 <0>         0.1338
     34 H11        -1.1906   -2.1099    0.7712 H         1 <0>         0.0938
     35 H12        -1.7338   -0.8152   -0.3228 H         1 <0>         0.0953
     36 H13        -3.8515   -0.9914   -1.5013 H         1 <0>         0.1234
     37 H14        -6.1215   -1.9455   -1.5031 H         1 <0>         0.1293
     38 H15        -6.6080   -3.9682   -0.1859 H         1 <0>         0.1296
     39 H16        -4.8242   -5.0373    1.1326 H         1 <0>         0.1293
     40 H17        -2.5522   -4.0881    1.1278 H         1 <0>         0.1236
     41 H18         2.8309   -1.1723   -2.1566 H         1 <0>         0.0944
     42 H19         3.2447   -2.6466   -1.2441 H         1 <0>         0.0924
     43 H20         3.2032   -2.2902   -4.2691 H         1 <0>         0.0891
     44 H21         4.6191   -2.6055   -3.2423 H         1 <0>         0.0953
     45 H22         1.3212   -6.8249   -2.6121 H         1 <0>         0.1287
     46 H23         2.8959   -8.0784   -4.0194 H         1 <0>         0.1355
     47 H24         4.7668   -6.9060   -5.1155 H         1 <0>         0.1369
     48 H25         6.0632   -4.3085   -4.3930 H         1 <0>         0.3953
     49 H26         1.5412   -4.4440   -0.9749 H         1 <0>         0.0972
     50 H27         0.2976   -4.6103   -2.2335 H         1 <0>         0.0996
     51 H28         0.9005   -2.2543   -0.3198 H         1 <0>         0.4223
@<TRIPOS>BOND
     1    1    2 1
     2    1   25 1
     3    1   26 1
     4    1   27 1
     5    2    3 1
     6    2   28 1
     7    2   29 1
     8    3    4 1
     9    3   30 1
    10    3   31 1
    11    4    5 1
    12    4   13 1
    13    4   51 1
    14    5    6 1
    15    5   32 1
    16    5   33 1
    17    6    7 1
    18    6   34 1
    19    6   35 1
    20    7   12 ar
    21    7    8 ar
    22    8    9 ar
    23    8   36 1
    24    9   10 ar
    25    9   37 1
    26   10   11 ar
    27   10   38 1
    28   11   12 ar
    29   11   39 1
    30   12   40 1
    31   13   14 1
    32   13   24 1
    33   13   15 1
    34   15   16 1
    35   15   41 1
    36   15   42 1
    37   16   17 1
    38   16   43 1
    39   16   44 1
    40   17   22 ar
    41   17   18 ar
    42   18   19 ar
    43   18   24 1
    44   19   20 ar
    45   19   45 1
    46   20   21 ar
    47   20   46 1
    48   21   22 ar
    49   21   47 1
    50   22   23 1
    51   23   48 1
    52   24   49 1
    53   24   50 1
@<TRIPOS>MOLECULE
ZINC02169418
   51    53     0     0     0
SMALL
USER_CHARGES

@<TRIPOS>ATOM
      1 C1         -0.1570    1.5040   -0.0065 C.3       1 <0>        -0.1558
      2 C2         -0.1131   -0.0252   -0.0294 C.3       1 <0>        -0.1485
      3 C3          0.6431   -0.4951   -1.2737 C.3       1 <0>        -0.0231
      4 N1          0.8044   -1.9545   -1.2266 N.4       1 <0>        -0.3815
      5 C4         -0.5154   -2.5956   -1.2986 C.3       1 <0>        -0.0142
      6 C5         -1.1513   -2.3024   -2.6589 C.3       1 <0>        -0.0995
      7 C6         -2.5572   -2.8446   -2.6836 C.ar      1 <0>        -0.1068
      8 C7         -2.7912   -4.1397   -3.1064 C.ar      1 <0>        -0.1099
      9 C8         -4.0807   -4.6371   -3.1290 C.ar      1 <0>        -0.1131
     10 C9         -5.1363   -3.8394   -2.7283 C.ar      1 <0>        -0.1045
     11 C10        -4.9022   -2.5446   -2.3046 C.ar      1 <0>        -0.1133
     12 C11        -3.6121   -2.0487   -2.2780 C.ar      1 <0>        -0.1110
     13 C12         1.6246   -2.3934   -2.3635 C.3       1 <0>         0.0189
     14 H1          1.1134   -2.1588   -3.2971 H         1 <0>         0.1441
     15 C13         1.8663   -3.9047   -2.2728 C.3       1 <0>        -0.1380
     16 C14         2.5094   -4.3686   -3.5782 C.3       1 <0>        -0.0721
     17 C15         3.7047   -3.5150   -3.9122 C.ar      1 <0>        -0.1100
     18 C16         3.9158   -2.2801   -3.3428 C.ar      1 <0>        -0.0758
     19 C17         5.0353   -1.5394   -3.7004 C.ar      1 <0>        -0.1203
     20 C18         5.9413   -2.0317   -4.6175 C.ar      1 <0>        -0.0943
     21 C19         5.7364   -3.2728   -5.1880 C.ar      1 <0>        -0.1328
     22 C20         4.6204   -4.0137   -4.8367 C.ar      1 <0>         0.1139
     23 O1          4.4168   -5.2348   -5.3974 O.3       1 <0>        -0.4943
     24 C21         2.9772   -1.6850   -2.3257 C.3       1 <0>        -0.0918
     25 H2          0.8596    1.8964    0.0164 H         1 <0>         0.0669
     26 H3         -0.6663    1.8663   -0.8995 H         1 <0>         0.0668
     27 H4         -0.6957    1.8388    0.8800 H         1 <0>         0.0774
     28 H5          0.3962   -0.3874    0.8637 H         1 <0>         0.0854
     29 H6         -1.1298   -0.4176   -0.0523 H         1 <0>         0.0867
     30 H7          0.0806   -0.2203   -2.1660 H         1 <0>         0.1320
     31 H8          1.6245   -0.0218   -1.3028 H         1 <0>         0.1335
     32 H9         -0.4033   -3.6727   -1.1745 H         1 <0>         0.1341
     33 H10        -1.1536   -2.2031   -0.5070 H         1 <0>         0.1358
     34 H11        -1.1743   -1.2253   -2.8247 H         1 <0>         0.0938
     35 H12        -0.5645   -2.7784   -3.4445 H         1 <0>         0.0952
     36 H13        -1.9665   -4.7629   -3.4194 H         1 <0>         0.1234
     37 H14        -4.2636   -5.6487   -3.4600 H         1 <0>         0.1294
     38 H15        -6.1439   -4.2278   -2.7467 H         1 <0>         0.1296
     39 H16        -5.7269   -1.9213   -1.9919 H         1 <0>         0.1292
     40 H17        -3.4288   -1.0383   -1.9434 H         1 <0>         0.1226
     41 H18         2.5331   -4.1205   -1.4380 H         1 <0>         0.0933
     42 H19         0.9169   -4.4203   -2.1278 H         1 <0>         0.0937
     43 H20         2.8266   -5.4062   -3.4738 H         1 <0>         0.1023
     44 H21         1.7793   -4.2959   -4.3843 H         1 <0>         0.0849
     45 H22         5.1980   -0.5685   -3.2564 H         1 <0>         0.1287
     46 H23         6.8084   -1.4477   -4.8889 H         1 <0>         0.1355
     47 H24         6.4431   -3.6637   -5.9050 H         1 <0>         0.1368
     48 H25         3.9013   -5.2111   -6.2152 H         1 <0>         0.3956
     49 H26         2.8347   -0.6265   -2.5431 H         1 <0>         0.1001
     50 H27         3.4111   -1.7918   -1.3315 H         1 <0>         0.0973
     51 H28         1.2583   -2.2150   -0.3640 H         1 <0>         0.4235
@<TRIPOS>BOND
     1    1    2 1
     2    1   25 1
     3    1   26 1
     4    1   27 1
     5    2    3 1
     6    2   28 1
     7    2   29 1
     8    3    4 1
     9    3   30 1
    10    3   31 1
    11    4    5 1
    12    4   13 1
    13    4   51 1
    14    5    6 1
    15    5   32 1
    16    5   33 1
    17    6    7 1
    18    6   34 1
    19    6   35 1
    20    7   12 ar
    21    7    8 ar
    22    8    9 ar
    23    8   36 1
    24    9   10 ar
    25    9   37 1
    26   10   11 ar
    27   10   38 1
    28   11   12 ar
    29   11   39 1
    30   12   40 1
    31   13   14 1
    32   13   24 1
    33   13   15 1
    34   15   16 1
    35   15   41 1
    36   15   42 1
    37   16   17 1
    38   16   43 1
    39   16   44 1
    40   17   22 ar
    41   17   18 ar
    42   18   19 ar
    43   18   24 1
    44   19   20 ar
    45   19   45 1
    46   20   21 ar
    47   20   46 1
    48   21   22 ar
    49   21   47 1
    50   22   23 1
    51   23   48 1
    52   24   49 1
    53   24   50 1
@<TRIPOS>MOLECULE
ZINC22055590
   40    43     0     0     0
SMALL
USER_CHARGES
2-methyl-4-piperazin-1-yl-10H-thieno[2,3-b][1,5]benzodiazepine
@<TRIPOS>ATOM
      1 C1          2.9000    6.4909    5.1733 C.3       1 <0>        -0.0794
      2 C2          2.5815    5.9866    3.7894 C.2       1 <0>        -0.1487
      3 C3          1.6183    6.4056    2.9486 C.2       1 <0>        -0.1359
      4 C4          1.5178    5.7559    1.6564 C.2       1 <0>        -0.2219
      5 C5          2.4395    4.7328    1.4394 C.2       1 <0>         0.1326
      6 S1          3.3891    4.6898    2.8707 S.3       1 <0>         0.1175
      7 N1          2.5084    3.9288    0.3158 N.pl3     1 <0>        -0.6794
      8 C6          1.3322    3.2144   -0.0160 C.ar      1 <0>         0.1140
      9 C7          1.3818    1.8365   -0.0931 C.ar      1 <0>        -0.1132
     10 C8          0.2296    1.1109   -0.3542 C.ar      1 <0>        -0.1125
     11 C9         -0.9694    1.7704   -0.5428 C.ar      1 <0>        -0.1069
     12 C10        -1.0287    3.1477   -0.4744 C.ar      1 <0>        -0.1040
     13 C11         0.1275    3.8975   -0.2233 C.ar      1 <0>         0.1419
     14 N2          0.0194    5.2532   -0.2098 N.2       1 <0>        -0.5947
     15 C12         0.5397    6.1123    0.6013 C.2       1 <0>         0.5251
     16 N3          0.1661    7.4315    0.4793 N.pl3     1 <0>        -0.6143
     17 C13        -0.9003    7.8310   -0.4516 C.3       1 <0>         0.0945
     18 C14        -0.3858    8.9721   -1.3278 C.3       1 <0>        -0.0147
     19 N4          0.1296   10.0500   -0.4732 N.4       1 <0>        -0.5347
     20 C15         1.2772    9.5959    0.3235 C.3       1 <0>        -0.0188
     21 C16         0.8267    8.4796    1.2719 C.3       1 <0>         0.0827
     22 H1          2.2045    7.3011    5.4374 H         1 <0>         0.0840
     23 H2          3.9319    6.8713    5.1964 H         1 <0>         0.0821
     24 H3          2.7962    5.6683    5.8962 H         1 <0>         0.0829
     25 H4          0.9422    7.2004    3.2271 H         1 <0>         0.1391
     26 H5          3.4417    3.8721   -0.2636 H         1 <0>         0.4455
     27 H6          2.3208    1.3226    0.0501 H         1 <0>         0.1291
     28 H7          0.2702    0.0334   -0.4145 H         1 <0>         0.1328
     29 H8         -1.8675    1.2043   -0.7411 H         1 <0>         0.1317
     30 H9         -1.9729    3.6514   -0.6202 H         1 <0>         0.1285
     31 H10        -1.1776    6.9729   -1.0815 H         1 <0>         0.1410
     32 H11        -1.7789    8.1660    0.1193 H         1 <0>         0.0882
     33 H12         0.4208    8.6008   -1.9770 H         1 <0>         0.1293
     34 H13        -1.2082    9.3572   -1.9486 H         1 <0>         0.1436
     35 H14         0.4513   10.8938   -1.1013 H         1 <0>         0.4556
     36 H15         2.0613    9.2147   -0.3472 H         1 <0>         0.1293
     37 H16         1.6735   10.4385    0.9091 H         1 <0>         0.1449
     38 H17         0.1191    8.8797    2.0130 H         1 <0>         0.0936
     39 H18         1.6982    8.0530    1.7901 H         1 <0>         0.1398
     40 H19        -0.6625   10.3846    0.2128 H         1 <0>         0.4497
@<TRIPOS>BOND
     1    1    2 1
     2    1   22 1
     3    1   23 1
     4    1   24 1
     5    2    6 1
     6    2    3 2
     7    3    4 1
     8    3   25 1
     9    4   15 1
    10    4    5 2
    11    5    6 1
    12    5    7 1
    13    7    8 1
    14    7   26 1
    15    8   13 ar
    16    8    9 ar
    17    9   10 ar
    18    9   27 1
    19   10   11 ar
    20   10   28 1
    21   11   12 ar
    22   11   29 1
    23   12   13 ar
    24   12   30 1
    25   13   14 1
    26   14   15 2
    27   15   16 1
    28   16   21 1
    29   16   17 1
    30   17   18 1
    31   17   31 1
    32   17   32 1
    33   18   19 1
    34   18   33 1
    35   18   34 1
    36   19   20 1
    37   19   35 1
    38   19   40 1
    39   20   21 1
    40   20   36 1
    41   20   37 1
    42   21   38 1
    43   21   39 1
@<TRIPOS>MOLECULE
ZINC22055590
   39    42     0     0     0
SMALL
USER_CHARGES
2-methyl-4-piperazin-1-yl-10H-thieno[2,3-b][1,5]benzodiazepine
@<TRIPOS>ATOM
      1 C1          2.9000    6.4909    5.1733 C.3       1 <0>        -0.0731
      2 C2          2.5815    5.9866    3.7894 C.2       1 <0>        -0.1595
      3 C3          1.6183    6.4056    2.9486 C.2       1 <0>        -0.1197
      4 C4          1.5178    5.7559    1.6564 C.2       1 <0>        -0.2090
      5 C5          2.4395    4.7328    1.4394 C.2       1 <0>         0.1289
      6 S1          3.3891    4.6898    2.8707 S.3       1 <0>         0.0909
      7 N1          2.5084    3.9288    0.3158 N.pl3     1 <0>        -0.6777
      8 C6          1.3322    3.2144   -0.0160 C.ar      1 <0>         0.1017
      9 C7          1.3818    1.8365   -0.0931 C.ar      1 <0>        -0.1111
     10 C8          0.2296    1.1109   -0.3542 C.ar      1 <0>        -0.1312
     11 C9         -0.9694    1.7704   -0.5428 C.ar      1 <0>        -0.1060
     12 C10        -1.0287    3.1477   -0.4744 C.ar      1 <0>        -0.1167
     13 C11         0.1275    3.8975   -0.2233 C.ar      1 <0>         0.1681
     14 N2          0.0194    5.2532   -0.2098 N.2       1 <0>        -0.6216
     15 C12         0.5397    6.1123    0.6013 C.2       1 <0>         0.5340
     16 N3          0.1661    7.4315    0.4793 N.pl3     1 <0>        -0.5933
     17 C13        -0.9003    7.8310   -0.4516 C.3       1 <0>         0.1226
     18 C14        -0.3858    8.9721   -1.3278 C.3       1 <0>         0.0334
     19 N4          0.1296   10.0500   -0.4732 N.3       1 <0>        -0.6705
     20 C15         1.2772    9.5959    0.3235 C.3       1 <0>         0.0314
     21 C16         0.8267    8.4796    1.2719 C.3       1 <0>         0.1111
     22 H1          2.2045    7.3011    5.4374 H         1 <0>         0.0832
     23 H2          3.9319    6.8713    5.1964 H         1 <0>         0.0780
     24 H3          2.7962    5.6683    5.8962 H         1 <0>         0.0776
     25 H4          0.9422    7.2004    3.2271 H         1 <0>         0.1418
     26 H5          3.4417    3.8721   -0.2636 H         1 <0>         0.4407
     27 H6          2.3208    1.3226    0.0501 H         1 <0>         0.1233
     28 H7          0.2702    0.0334   -0.4145 H         1 <0>         0.1260
     29 H8         -1.8675    1.2043   -0.7411 H         1 <0>         0.1256
     30 H9         -1.9729    3.6514   -0.6202 H         1 <0>         0.1265
     31 H10        -1.1776    6.9729   -1.0815 H         1 <0>         0.1044
     32 H11        -1.7789    8.1660    0.1193 H         1 <0>         0.0695
     33 H12         0.4208    8.6008   -1.9770 H         1 <0>         0.0349
     34 H13        -1.2082    9.3572   -1.9486 H         1 <0>         0.0894
     35 H14         2.0613    9.2147   -0.3472 H         1 <0>         0.0352
     36 H15         1.6735   10.4385    0.9091 H         1 <0>         0.0904
     37 H16         0.1191    8.8797    2.0130 H         1 <0>         0.0755
     38 H17         1.6982    8.0530    1.7901 H         1 <0>         0.0999
     39 H18         0.4513   10.8938   -1.1013 H         1 <0>         0.3455
@<TRIPOS>BOND
     1    1    2 1
     2    1   22 1
     3    1   23 1
     4    1   24 1
     5    2    6 1
     6    2    3 2
     7    3    4 1
     8    3   25 1
     9    4   15 1
    10    4    5 2
    11    5    6 1
    12    5    7 1
    13    7    8 1
    14    7   26 1
    15    8   13 ar
    16    8    9 ar
    17    9   10 ar
    18    9   27 1
    19   10   11 ar
    20   10   28 1
    21   11   12 ar
    22   11   29 1
    23   12   13 ar
    24   12   30 1
    25   13   14 1
    26   14   15 2
    27   15   16 1
    28   16   21 1
    29   16   17 1
    30   17   18 1
    31   17   31 1
    32   17   32 1
    33   18   19 1
    34   18   33 1
    35   18   34 1
    36   19   20 1
    37   19   39 1
    38   20   21 1
    39   20   35 1
    40   20   36 1
    41   21   37 1
    42   21   38 1
@<TRIPOS>MOLECULE
ZINC03783980
   37    39     0     0     0
SMALL
USER_CHARGES

@<TRIPOS>ATOM
      1 C1         -0.0174    1.3767    0.0136 C.ar      1 <0>        -0.1012
      2 C2          0.1526    0.2844   -0.8163 C.ar      1 <0>        -0.1081
      3 C3          1.3592   -0.3899   -0.8330 C.ar      1 <0>        -0.1177
      4 C4          2.3960    0.0285   -0.0201 C.ar      1 <0>        -0.1160
      5 C5          2.2264    1.1215    0.8091 C.ar      1 <0>        -0.1149
      6 C6          1.0193    1.7948    0.8268 C.ar      1 <0>        -0.1076
      7 C7          3.7036   -0.7029   -0.0375 C.3       1 <0>        -0.0193
      8 H1          4.4826    0.1015   -0.1363 H         1 <0>         0.1314
      9 C8          4.0133   -1.4150    1.2578 C.3       1 <0>        -0.0003
     10 N1          2.9533   -2.2867    1.7589 N.4       1 <0>        -0.5013
     11 C9          2.2323   -2.9643    0.6691 C.3       1 <0>        -0.0182
     12 C10         3.2963   -3.7442   -0.1278 C.3       1 <0>        -0.1086
     13 C11         3.7124   -2.9112   -1.3184 C.ar      1 <0>        -0.0822
     14 C12         3.8718   -1.5473   -1.2686 C.ar      1 <0>        -0.0654
     15 C13         4.2291   -0.8619   -2.4308 C.ar      1 <0>        -0.1150
     16 C14         4.4388   -1.5334   -3.6188 C.ar      1 <0>         0.1126
     17 C15         4.2953   -2.9160   -3.6595 C.ar      1 <0>         0.1098
     18 C16         3.9333   -3.5957   -2.5105 C.ar      1 <0>        -0.0507
     19 Cl1         3.7549   -5.3223   -2.5580 Cl        1 <0>        -0.0292
     20 O1          4.5096   -3.5937   -4.8188 O.3       1 <0>        -0.4704
     21 O2          4.7849   -0.8492   -4.7424 O.3       1 <0>        -0.4769
     22 H2         -0.9586    1.9062    0.0233 H         1 <0>         0.1319
     23 H3         -0.6575   -0.0425   -1.4514 H         1 <0>         0.1312
     24 H4          1.4917   -1.2437   -1.4809 H         1 <0>         0.1270
     25 H5          3.0363    1.4481    1.4445 H         1 <0>         0.1285
     26 H6          0.8866    2.6485    1.4750 H         1 <0>         0.1324
     27 H7          4.9274   -2.0197    1.1363 H         1 <0>         0.1363
     28 H8          4.2410   -0.6707    2.0397 H         1 <0>         0.1409
     29 H9          3.3634   -2.9917    2.3592 H         1 <0>         0.4335
     30 H10         1.5479   -3.6975    1.1177 H         1 <0>         0.1375
     31 H11         1.6793   -2.3098    0.0317 H         1 <0>         0.1480
     32 H12         4.1531   -3.9294    0.5095 H         1 <0>         0.1044
     33 H13         2.8603   -4.6785   -0.4650 H         1 <0>         0.1240
     34 H14         4.3443    0.2118   -2.3936 H         1 <0>         0.1453
     35 H15         5.4237   -3.8844   -4.9413 H         1 <0>         0.3999
     36 H16         5.7390   -0.7470   -4.8625 H         1 <0>         0.4003
     37 H17         2.2972   -1.7463    2.3026 H         1 <0>         0.4284
@<TRIPOS>BOND
     1    1    6 ar
     2    1    2 ar
     3    1   22 1
     4    2    3 ar
     5    2   23 1
     6    3    4 ar
     7    3   24 1
     8    4    5 ar
     9    4    7 1
    10    5    6 ar
    11    5   25 1
    12    6   26 1
    13    7    8 1
    14    7   14 1
    15    7    9 1
    16    9   10 1
    17    9   27 1
    18    9   28 1
    19   10   11 1
    20   10   29 1
    21   10   37 1
    22   11   12 1
    23   11   30 1
    24   11   31 1
    25   12   13 1
    26   12   32 1
    27   12   33 1
    28   13   18 ar
    29   13   14 ar
    30   14   15 ar
    31   15   16 ar
    32   15   34 1
    33   16   17 ar
    34   16   21 1
    35   17   18 ar
    36   17   20 1
    37   18   19 1
    38   20   35 1
    39   21   36 1
@<TRIPOS>MOLECULE
ZINC22116608
   37    39     0     0     0
SMALL
USER_CHARGES

@<TRIPOS>ATOM
      1 C1         -0.0167    1.3784    0.0096 C.ar      1 <0>        -0.0959
      2 C2          1.1695    2.0865    0.0021 C.ar      1 <0>        -0.1440
      3 C3          2.3802    1.4093   -0.0131 C.ar      1 <0>         0.1125
      4 C4          2.3963    0.0221   -0.0206 C.ar      1 <0>        -0.1426
      5 C5          1.2074   -0.6814   -0.0130 C.ar      1 <0>        -0.0831
      6 C6          0.0021   -0.0041    0.0020 C.ar      1 <0>        -0.0932
      7 C7         -1.2934   -0.7740    0.0107 C.3       1 <0>         0.0170
      8 H1         -2.1266   -0.0713    0.0227 H         1 <0>         0.0843
      9 C8         -1.3519   -1.6424    1.2671 C.3       1 <0>        -0.0149
     10 N1         -2.7503   -1.7398    1.6992 N.4       1 <0>        -0.5026
     11 C9         -3.5601   -2.3813    0.6632 C.3       1 <0>        -0.0039
     12 C10        -2.6818   -3.4165   -0.0466 C.3       1 <0>        -0.1145
     13 C11        -2.0436   -2.8219   -1.2752 C.ar      1 <0>        -0.0412
     14 C12        -1.3758   -1.6180   -1.2375 C.ar      1 <0>        -0.2301
     15 C13        -0.7560   -1.1390   -2.3840 C.ar      1 <0>        -0.0726
     16 C14        -0.8274   -1.8478   -3.5697 C.ar      1 <0>        -0.0220
     17 C15        -1.5288   -3.0484   -3.6140 C.ar      1 <0>         0.2674
     18 C16        -2.1335   -3.5286   -2.4671 C.ar      1 <0>        -0.1678
     19 Cl1        -3.0071   -5.0279   -2.5169 Cl        1 <0>        -0.0919
     20 O1         -1.6213   -3.7441   -4.7792 O.3       1 <0>        -0.6613
     21 O2         -0.2149   -1.3730   -4.6873 O.3       1 <0>        -0.4858
     22 O3          3.5484    2.1036   -0.0209 O.3       1 <0>        -0.4981
     23 H2         -0.9594    1.9052    0.0259 H         1 <0>         0.1266
     24 H3          1.1543    3.1664    0.0076 H         1 <0>         0.1306
     25 H4          3.3375   -0.5074   -0.0328 H         1 <0>         0.1311
     26 H5          1.2194   -1.7613   -0.0189 H         1 <0>         0.1291
     27 H6         -0.9675   -2.6374    1.0429 H         1 <0>         0.1452
     28 H7         -0.7555   -1.1852    2.0566 H         1 <0>         0.1318
     29 H8         -2.8005   -2.2844    2.5471 H         1 <0>         0.4236
     30 H9         -4.4179   -2.8758    1.1190 H         1 <0>         0.1327
     31 H10        -3.9019   -1.6342   -0.0532 H         1 <0>         0.1354
     32 H11        -1.9015   -3.7534    0.6358 H         1 <0>         0.0908
     33 H12        -3.2956   -4.2688   -0.3378 H         1 <0>         0.1147
     34 H13        -0.2135   -0.2057   -2.3496 H         1 <0>         0.1089
     35 H14         0.6981   -1.6733   -4.7931 H         1 <0>         0.3671
     36 H15         3.8951    2.3001    0.8601 H         1 <0>         0.3923
     37 H16        -3.1096   -0.8141    1.8783 H         1 <0>         0.4245
@<TRIPOS>BOND
     1    1    6 ar
     2    1    2 ar
     3    1   23 1
     4    2    3 ar
     5    2   24 1
     6    3    4 ar
     7    3   22 1
     8    4    5 ar
     9    4   25 1
    10    5    6 ar
    11    5   26 1
    12    6    7 1
    13    7    8 1
    14    7   14 1
    15    7    9 1
    16    9   10 1
    17    9   27 1
    18    9   28 1
    19   10   11 1
    20   10   29 1
    21   10   37 1
    22   11   12 1
    23   11   30 1
    24   11   31 1
    25   12   13 1
    26   12   32 1
    27   12   33 1
    28   13   18 ar
    29   13   14 ar
    30   14   15 ar
    31   15   16 ar
    32   15   34 1
    33   16   17 ar
    34   16   21 1
    35   17   18 ar
    36   17   20 1
    37   18   19 1
    38   21   35 1
    39   22   36 1
@<TRIPOS>MOLECULE
ZINC01530688
   45    48     0     0     0
SMALL
USER_CHARGES

@<TRIPOS>ATOM
      1 C1         -4.7096    1.3430    2.2454 C.3       1 <0>        -0.0476
      2 N1         -4.6828   -0.1254    2.2123 N.4       1 <0>        -0.5103
      3 C2         -3.7697   -0.5747    1.1528 C.3       1 <0>        -0.0122
      4 C3         -3.7417   -2.1040    1.1183 C.3       1 <0>        -0.1635
      5 C4         -2.7907   -2.5720    0.0149 C.3       1 <0>        -0.0969
      6 C5         -2.6597   -4.0954    0.0667 C.3       1 <0>         0.0263
      7 C6         -4.0215   -4.8232    0.0106 C.3       1 <0>        -0.1040
      8 C7         -3.8423   -6.3391    0.0533 C.3       1 <0>        -0.1129
      9 C8         -2.3488   -6.7253    0.1407 C.3       1 <0>        -0.0103
     10 C9         -1.6882   -6.0486   -1.0501 C.ar      1 <0>        -0.0804
     11 C10        -1.8517   -4.6645   -1.0890 C.ar      1 <0>        -0.0813
     12 C11        -1.3264   -3.9281   -2.1114 C.ar      1 <0>        -0.1094
     13 C12        -0.6062   -4.5800   -3.1047 C.ar      1 <0>        -0.1189
     14 C13        -0.4268   -5.9496   -3.0553 C.ar      1 <0>        -0.1139
     15 C14        -0.9845   -6.6958   -2.0246 C.ar      1 <0>        -0.1023
     16 C15        -1.8144   -5.9955    1.3627 C.ar      1 <0>        -0.0777
     17 C16        -1.9635   -4.5918    1.3239 C.ar      1 <0>        -0.0757
     18 C17        -1.5329   -3.7937    2.3445 C.ar      1 <0>        -0.1206
     19 C18        -0.9095   -4.3826    3.4374 C.ar      1 <0>        -0.1235
     20 C19        -0.7301   -5.7522    3.4874 C.ar      1 <0>        -0.1148
     21 C20        -1.2169   -6.5979    2.4324 C.ar      1 <0>        -0.1003
     22 H1         -5.3871    1.6763    3.0315 H         1 <0>         0.1266
     23 H2         -3.7068    1.7202    2.4459 H         1 <0>         0.1236
     24 H3         -5.0547    1.7219    1.2835 H         1 <0>         0.1237
     25 H4         -4.3633   -0.4762    3.1027 H         1 <0>         0.4303
     26 H5         -4.1148   -0.1957    0.1909 H         1 <0>         0.1331
     27 H6         -2.7669   -0.1974    1.3534 H         1 <0>         0.1321
     28 H7         -3.3966   -2.4829    2.0803 H         1 <0>         0.0978
     29 H8         -4.7445   -2.4813    0.9178 H         1 <0>         0.0924
     30 H9         -3.1863   -2.2741   -0.9562 H         1 <0>         0.0849
     31 H10        -1.8110   -2.1178    0.1629 H         1 <0>         0.0828
     32 H11        -4.6281   -4.5114    0.8609 H         1 <0>         0.0659
     33 H12        -4.5344   -4.5501   -0.9116 H         1 <0>         0.0712
     34 H13        -4.3652   -6.7360    0.9235 H         1 <0>         0.0720
     35 H14        -4.2715   -6.7748   -0.8490 H         1 <0>         0.0737
     36 H15        -2.1865   -7.8028    0.1645 H         1 <0>         0.1072
     37 H16        -1.4684   -2.8581   -2.1478 H         1 <0>         0.1223
     38 H17        -0.1840   -4.0128   -3.9210 H         1 <0>         0.1245
     39 H18         0.1348   -6.4454   -3.8333 H         1 <0>         0.1261
     40 H19        -0.8596   -7.7681   -1.9924 H         1 <0>         0.1279
     41 H20        -1.6741   -2.7238    2.3027 H         1 <0>         0.1202
     42 H21        -0.5623   -3.7660    4.2534 H         1 <0>         0.1230
     43 H22        -0.2442   -6.1987    4.3423 H         1 <0>         0.1258
     44 H23        -1.0918   -7.6703    2.4602 H         1 <0>         0.1327
     45 H24        -5.6110   -0.4746    2.0266 H         1 <0>         0.4305
@<TRIPOS>BOND
     1    1    2 1
     2    1   22 1
     3    1   23 1
     4    1   24 1
     5    2    3 1
     6    2   25 1
     7    2   45 1
     8    3    4 1
     9    3   26 1
    10    3   27 1
    11    4    5 1
    12    4   28 1
    13    4   29 1
    14    5    6 1
    15    5   30 1
    16    5   31 1
    17    6   11 1
    18    6   17 1
    19    6    7 1
    20    7    8 1
    21    7   32 1
    22    7   33 1
    23    8    9 1
    24    8   34 1
    25    8   35 1
    26    9   10 1
    27    9   16 1
    28    9   36 1
    29   10   15 ar
    30   10   11 ar
    31   11   12 ar
    32   12   13 ar
    33   12   37 1
    34   13   14 ar
    35   13   38 1
    36   14   15 ar
    37   14   39 1
    38   15   40 1
    39   16   21 ar
    40   16   17 ar
    41   17   18 ar
    42   18   19 ar
    43   18   41 1
    44   19   20 ar
    45   19   42 1
    46   20   21 ar
    47   20   43 1
    48   21   44 1
@<TRIPOS>MOLECULE
ZINC02022527
   54    55     0     0     0
SMALL
USER_CHARGES

@<TRIPOS>ATOM
      1 C1         -3.0730    2.2881   -4.2693 C.3       1 <0>        -0.1569
      2 C2         -2.3049    1.5870   -3.1471 C.3       1 <0>        -0.1270
      3 C3         -2.8110    2.0874   -1.7927 C.3       1 <0>        -0.1231
      4 C4         -2.0429    1.3862   -0.6705 C.3       1 <0>        -0.1174
      5 C5         -2.5490    1.8867    0.6839 C.3       1 <0>        -0.1006
      6 C6         -2.2117    3.3722    0.8391 C.3       1 <0>        -0.1451
      7 C7         -2.6658    3.8518    2.2196 C.3       1 <0>        -0.0114
      8 C8         -2.3347    1.6429    3.1595 C.3       1 <0>        -0.0001
      9 C9         -1.8707    1.0973    1.8070 C.3       1 <0>        -0.1442
     10 C10        -2.2939    3.5901    4.5974 C.3       1 <0>        -0.0052
     11 C11        -2.1583    5.1140    4.5919 C.3       1 <0>        -0.1459
     12 C12        -2.4764    5.6593    5.9856 C.3       1 <0>        -0.1543
     13 C13        -2.3428    7.1604    5.9803 C.2       1 <0>         0.3987
     14 O1         -2.0245    7.7371    4.9623 O.2       1 <0>        -0.4456
     15 C14        -2.5986    7.9263    7.2106 C.ar      1 <0>        -0.1885
     16 C15        -3.0878    7.2813    8.3513 C.ar      1 <0>        -0.0705
     17 C16        -3.3195    8.0047    9.5018 C.ar      1 <0>        -0.1389
     18 C17        -3.0801    9.3679    9.5265 C.ar      1 <0>        -0.0729
     19 C18        -2.6016   10.0143    8.4004 C.ar      1 <0>        -0.1345
     20 C19        -2.3594    9.3036    7.2436 C.ar      1 <0>        -0.0178
     21 C20        -1.8387   10.0095    6.0182 C.3       1 <0>        -0.1264
     22 H1         -4.1363    2.0676   -4.1746 H         1 <0>         0.0549
     23 H2         -2.9175    3.3647   -4.1985 H         1 <0>         0.0540
     24 H3         -2.7125    1.9316   -5.2342 H         1 <0>         0.0581
     25 H4         -1.2417    1.8075   -3.2417 H         1 <0>         0.0621
     26 H5         -2.4605    0.5104   -3.2179 H         1 <0>         0.0631
     27 H6         -3.8743    1.8669   -1.6981 H         1 <0>         0.0644
     28 H7         -2.6555    3.1639   -1.7219 H         1 <0>         0.0632
     29 H8         -2.1984    0.3097   -0.7413 H         1 <0>         0.0733
     30 H9         -0.9796    1.6067   -0.7651 H         1 <0>         0.0688
     31 H10        -3.6287    1.7492    0.7427 H         1 <0>         0.0884
     32 H11        -1.1354    3.5132    0.7407 H         1 <0>         0.0881
     33 H12        -2.7264    3.9447    0.0675 H         1 <0>         0.1133
     34 H13        -3.7442    3.7233    2.3122 H         1 <0>         0.1295
     35 H14        -2.4142    4.9057    2.3388 H         1 <0>         0.1342
     36 H15        -3.4146    1.5248    3.2476 H         1 <0>         0.1293
     37 H16        -1.8426    1.0924    3.9613 H         1 <0>         0.1282
     38 H17        -2.1418    0.0446    1.7270 H         1 <0>         0.1118
     39 H18        -0.7890    1.2025    1.7239 H         1 <0>         0.0880
     40 H19        -3.3133    3.3170    4.8704 H         1 <0>         0.1315
     41 H20        -1.5979    3.1659    5.3211 H         1 <0>         0.1302
     42 H21        -1.1389    5.3871    4.3190 H         1 <0>         0.0944
     43 H22        -2.8542    5.5382    3.8682 H         1 <0>         0.0968
     44 H23        -3.4115    5.4088    6.2361 H         1 <0>         0.0981
     45 H24        -1.7805    5.2352    6.7093 H         1 <0>         0.1100
     46 H25        -3.2793    6.2186    8.3321 H         1 <0>         0.1290
     47 H26        -3.6933    7.5074   10.3846 H         1 <0>         0.1322
     48 H27        -3.2682    9.9300   10.4293 H         1 <0>         0.1326
     49 H28        -2.4176   11.0782    8.4274 H         1 <0>         0.1332
     50 H29        -2.6709   10.2515    5.3572 H         1 <0>         0.0784
     51 H30        -1.3321   10.9277    6.3156 H         1 <0>         0.0652
     52 H31        -1.1365    9.3600    5.4956 H         1 <0>         0.0893
     53 N1         -1.9588    3.0696    3.2558 N.4       1 <0>        -0.3931
     54 H32        -0.9467    3.1581    3.1071 H         1 <0>         0.4272
@<TRIPOS>BOND
     1    1    2 1
     2    1   22 1
     3    1   23 1
     4    1   24 1
     5    2    3 1
     6    2   25 1
     7    2   26 1
     8    3    4 1
     9    3   27 1
    10    3   28 1
    11    4    5 1
    12    4   29 1
    13    4   30 1
    14    5    9 1
    15    5    6 1
    16    5   31 1
    17    6    7 1
    18    6   32 1
    19    6   33 1
    20    7   34 1
    21    7   35 1
    22    7   53 1
    23    8    9 1
    24    8   36 1
    25    8   37 1
    26    8   53 1
    27    9   38 1
    28    9   39 1
    29   10   11 1
    30   10   40 1
    31   10   41 1
    32   10   53 1
    33   11   12 1
    34   11   42 1
    35   11   43 1
    36   12   13 1
    37   12   44 1
    38   12   45 1
    39   13   14 2
    40   13   15 1
    41   15   20 ar
    42   15   16 ar
    43   16   17 ar
    44   16   46 1
    45   17   18 ar
    46   17   47 1
    47   18   19 ar
    48   18   48 1
    49   19   20 ar
    50   19   49 1
    51   20   21 1
    52   21   50 1
    53   21   51 1
    54   21   52 1
    55   53   54 1
@<TRIPOS>MOLECULE
ZINC01481744
   59    63     0     0     0
SMALL
USER_CHARGES
tert-butylBLAHol
@<TRIPOS>ATOM
      1 C1          7.4021    8.7034   -0.7443 C.3       1 <0>        -0.1466
      2 C2          7.5600    7.3733   -0.0048 C.3       1 <0>        -0.0472
      3 C3          8.5881    6.5044   -0.7320 C.3       1 <0>        -0.1553
      4 C4          8.0362    7.6381    1.4249 C.3       1 <0>        -0.1470
      5 C5          6.2137    6.6474    0.0323 C.3       1 <0>         0.1386
      6 C6          5.7356    6.3816   -1.3980 C.3       1 <0>        -0.1808
      7 C7          4.4166    5.6077   -1.3542 C.3       1 <0>        -0.0052
      8 C8          3.3652    3.5592   -0.6154 C.3       1 <0>        -0.0027
      9 C9          3.6680    2.1410   -0.1452 C.3       1 <0>        -0.0191
     10 H1          4.2105    1.6604   -0.9594 H         1 <0>         0.1021
     11 C10         2.3734    1.3946   -0.0260 C.ar      1 <0>        -0.0842
     12 C11         1.1723    2.0854    0.0021 C.ar      1 <0>        -0.1223
     13 C12        -0.0167    1.3784    0.0096 C.ar      1 <0>        -0.1108
     14 C13         0.0021   -0.0041    0.0020 C.ar      1 <0>        -0.1048
     15 C14         1.2071   -0.6813    0.0133 C.ar      1 <0>        -0.1051
     16 C15         2.3948    0.0364    0.0071 C.ar      1 <0>        -0.0695
     17 C16         3.7024   -0.6896    0.1021 C.3       1 <0>        -0.0845
     18 C17         4.3272   -0.4713    1.4512 C.3       1 <0>        -0.0850
     19 C18         4.8103    0.9217    1.7463 C.ar      1 <0>        -0.0444
     20 C19         4.5590    2.0827    1.0479 C.ar      1 <0>        -0.0603
     21 C20         5.1779    3.2568    1.4753 C.ar      1 <0>        -0.1299
     22 C21         5.9679    3.2844    2.6137 C.ar      1 <0>        -0.0975
     23 C22         6.1786    2.1330    3.3379 C.ar      1 <0>        -0.0990
     24 C23         5.6072    0.9672    2.8970 C.ar      1 <0>        -0.1046
     25 C24         5.0337    4.5665    0.7444 C.3       1 <0>         0.0810
     26 H2          4.2805    5.1671    1.2544 H         1 <0>         0.1391
     27 C25         6.3702    5.3111    0.7637 C.3       1 <0>        -0.1720
     28 O1          5.2533    7.4561    0.7147 O.3       1 <0>        -0.5331
     29 H3          6.6697    9.3225   -0.2261 H         1 <0>         0.0690
     30 H4          8.3612    9.2205   -0.7707 H         1 <0>         0.0638
     31 H5          7.0629    8.5148   -1.7628 H         1 <0>         0.0556
     32 H6          8.2488    6.3158   -1.7506 H         1 <0>         0.0600
     33 H7          9.5472    7.0215   -0.7584 H         1 <0>         0.0731
     34 H8          8.7006    5.5568   -0.2052 H         1 <0>         0.0598
     35 H9          8.1487    6.6905    1.9518 H         1 <0>         0.0543
     36 H10         8.9953    8.1552    1.3985 H         1 <0>         0.0641
     37 H11         7.3038    8.2571    1.9431 H         1 <0>         0.0692
     38 H12         6.4847    5.7942   -1.9288 H         1 <0>         0.1035
     39 H13         5.5840    7.3302   -1.9132 H         1 <0>         0.1274
     40 H14         4.0813    5.4044   -2.3713 H         1 <0>         0.1398
     41 H15         3.6639    6.2024   -0.8366 H         1 <0>         0.1295
     42 H16         2.9358    3.5269   -1.6168 H         1 <0>         0.1429
     43 H17         2.6573    4.0264    0.0692 H         1 <0>         0.1364
     44 H18         1.1646    3.1652    0.0175 H         1 <0>         0.1229
     45 H19        -0.9590    1.9060    0.0169 H         1 <0>         0.1296
     46 H20        -0.9263   -0.5557   -0.0124 H         1 <0>         0.1306
     47 H21         1.2241   -1.7611    0.0273 H         1 <0>         0.1320
     48 H22         3.5343   -1.7559   -0.0490 H         1 <0>         0.0895
     49 H23         4.3776   -0.3184   -0.6689 H         1 <0>         0.0749
     50 H24         3.5946   -0.7431    2.2111 H         1 <0>         0.0852
     51 H25         5.1749   -1.1501    1.5451 H         1 <0>         0.0900
     52 H26         6.4197    4.2119    2.9332 H         1 <0>         0.1353
     53 H27         6.7814    2.1475    4.2340 H         1 <0>         0.1400
     54 H28         5.7764    0.0573    3.4536 H         1 <0>         0.1328
     55 H29         7.1294    4.7094    0.2640 H         1 <0>         0.1055
     56 H30         6.6704    5.4938    1.7955 H         1 <0>         0.1265
     57 H31         4.3755    7.0555    0.7778 H         1 <0>         0.3658
     58 N1          4.6164    4.3231   -0.6385 N.4       1 <0>        -0.3871
     59 H32         5.3405    3.7791   -1.1223 H         1 <0>         0.4282
@<TRIPOS>BOND
     1    1    2 1
     2    1   29 1
     3    1   30 1
     4    1   31 1
     5    2    3 1
     6    2    4 1
     7    2    5 1
     8    3   32 1
     9    3   33 1
    10    3   34 1
    11    4   35 1
    12    4   36 1
    13    4   37 1
    14    5   27 1
    15    5    6 1
    16    5   28 1
    17    6    7 1
    18    6   38 1
    19    6   39 1
    20    7   40 1
    21    7   41 1
    22    7   58 1
    23    8    9 1
    24    8   42 1
    25    8   43 1
    26    8   58 1
    27    9   10 1
    28    9   20 1
    29    9   11 1
    30   11   16 ar
    31   11   12 ar
    32   12   13 ar
    33   12   44 1
    34   13   14 ar
    35   13   45 1
    36   14   15 ar
    37   14   46 1
    38   15   16 ar
    39   15   47 1
    40   16   17 1
    41   17   18 1
    42   17   48 1
    43   17   49 1
    44   18   19 1
    45   18   50 1
    46   18   51 1
    47   19   24 ar
    48   19   20 ar
    49   20   21 ar
    50   21   22 ar
    51   21   25 1
    52   22   23 ar
    53   22   52 1
    54   23   24 ar
    55   23   53 1
    56   24   54 1
    57   25   26 1
    58   25   27 1
    59   25   58 1
    60   27   55 1
    61   27   56 1
    62   28   57 1
    63   58   59 1
@<TRIPOS>MOLECULE
ZINC02017838
   39    41     0     0     0
SMALL
USER_CHARGES

@<TRIPOS>ATOM
      1 C1         -0.6937    1.1592   -0.0446 C.3       1 <0>        -0.0565
      2 N1         -0.3969   -0.2790   -0.0054 N.4       1 <0>        -0.3850
      3 C2         -1.6538   -1.0043   -0.0501 C.3       1 <0>        -0.0076
      4 C3         -1.4199   -2.4952   -0.3132 C.3       1 <0>        -0.1241
      5 C4         -1.1505   -3.1735    1.0151 C.ar      1 <0>        -0.0918
      6 C5         -2.0820   -4.0505    1.5403 C.ar      1 <0>        -0.0811
      7 C6         -1.8332   -4.6676    2.7530 C.ar      1 <0>        -0.0563
      8 C7         -0.6533   -4.4051    3.4363 C.ar      1 <0>         0.1329
      9 C8          0.2760   -3.5241    2.9016 C.ar      1 <0>        -0.1156
     10 C9          0.0175   -2.9133    1.6891 C.ar      1 <0>        -0.0810
     11 C10         1.0293   -1.9515    1.0995 C.3       1 <0>        -0.0159
     12 H1          1.9511   -1.9857    1.6803 H         1 <0>         0.1371
     13 C11         0.4364   -0.5401    1.1546 C.3       1 <0>        -0.0043
     14 C12         1.3158   -2.3287   -0.3312 C.ar      1 <0>        -0.1097
     15 C13         1.8000   -1.3802   -1.2124 C.ar      1 <0>        -0.1733
     16 C14         2.0628   -1.7262   -2.5247 C.ar      1 <0>        -0.0962
     17 C15         1.8417   -3.0209   -2.9556 C.ar      1 <0>        -0.1047
     18 C16         1.3582   -3.9697   -2.0742 C.ar      1 <0>        -0.0974
     19 C17         1.0996   -3.6247   -0.7608 C.ar      1 <0>        -0.0998
     20 O1         -0.4084   -5.0112    4.6281 O.3       1 <0>        -0.4829
     21 Cl1        -2.9964   -5.7696    3.4209 Cl        1 <0>        -0.0327
     22 H2          0.2376    1.7205   -0.1192 H         1 <0>         0.1249
     23 H3         -1.3197    1.3775   -0.9098 H         1 <0>         0.1261
     24 H4         -1.2194    1.4467    0.8659 H         1 <0>         0.1243
     25 H5         -2.1695   -0.8858    0.9029 H         1 <0>         0.1287
     26 H6         -2.2756   -0.5939   -0.8458 H         1 <0>         0.1374
     27 H7         -2.3059   -2.9306   -0.7754 H         1 <0>         0.1178
     28 H8         -0.5608   -2.6221   -0.9718 H         1 <0>         0.1192
     29 H9         -2.9990   -4.2523    1.0065 H         1 <0>         0.1469
     30 H10         1.1951   -3.3169    3.4296 H         1 <0>         0.1482
     31 H11         1.2473    0.1878    1.1838 H         1 <0>         0.1401
     32 H12        -0.1658   -0.4399    2.0576 H         1 <0>         0.1368
     33 H13         1.9728   -0.3686   -0.8757 H         1 <0>         0.1276
     34 H14         2.4405   -0.9849   -3.2133 H         1 <0>         0.1374
     35 H15         2.0463   -3.2910   -3.9811 H         1 <0>         0.1370
     36 H16         1.1852   -4.9811   -2.4110 H         1 <0>         0.1371
     37 H17         0.7254   -4.3669   -0.0712 H         1 <0>         0.1352
     38 H18         0.0553   -5.8562    4.5517 H         1 <0>         0.4036
     39 H19         0.1305   -0.5139   -0.8329 H         1 <0>         0.4177
@<TRIPOS>BOND
     1    1    2 1
     2    1   22 1
     3    1   23 1
     4    1   24 1
     5    2   13 1
     6    2    3 1
     7    2   39 1
     8    3    4 1
     9    3   25 1
    10    3   26 1
    11    4    5 1
    12    4   27 1
    13    4   28 1
    14    5   10 ar
    15    5    6 ar
    16    6    7 ar
    17    6   29 1
    18    7    8 ar
    19    7   21 1
    20    8    9 ar
    21    8   20 1
    22    9   10 ar
    23    9   30 1
    24   10   11 1
    25   11   12 1
    26   11   13 1
    27   11   14 1
    28   13   31 1
    29   13   32 1
    30   14   19 ar
    31   14   15 ar
    32   15   16 ar
    33   15   33 1
    34   16   17 ar
    35   16   34 1
    36   17   18 ar
    37   17   35 1
    38   18   19 ar
    39   18   36 1
    40   19   37 1
    41   20   38 1
@<TRIPOS>MOLECULE
ZINC00538337
   58    62     0     0     0
SMALL
USER_CHARGES

@<TRIPOS>ATOM
      1 C1         -0.0168    1.3842    0.0097 C.ar      1 <0>        -0.0898
      2 C2          1.1703    2.0901    0.0021 C.ar      1 <0>        -0.1344
      3 C3          2.3788    1.4141   -0.0135 C.ar      1 <0>         0.1119
      4 C4          2.3997    0.0295   -0.0216 C.ar      1 <0>        -0.1322
      5 C5          1.2148   -0.6800   -0.0137 C.ar      1 <0>        -0.0888
      6 C6          0.0021   -0.0041    0.0020 C.ar      1 <0>         0.1035
      7 N1         -1.2015   -0.7222    0.0101 N.pl3     1 <0>        -0.4255
      8 C7         -2.2407   -0.5077    0.8765 C.2       1 <0>         0.0751
      9 C8         -3.2397   -1.3652    0.6140 C.2       1 <0>        -0.1721
     10 C9         -2.8068   -2.1974   -0.5117 C.ar      1 <0>        -0.0841
     11 C10        -1.5194   -1.7470   -0.8569 C.ar      1 <0>         0.1032
     12 C11        -0.8430   -2.3517   -1.9103 C.ar      1 <0>        -0.1070
     13 C12        -1.4366   -3.3808   -2.6081 C.ar      1 <0>        -0.0841
     14 C13        -2.7089   -3.8239   -2.2706 C.ar      1 <0>        -0.0491
     15 C14        -3.3935   -3.2441   -1.2250 C.ar      1 <0>        -0.0671
     16 Cl1        -3.4366   -5.1218   -3.1648 Cl        1 <0>        -0.0596
     17 C15        -4.5571   -1.4553    1.3402 C.3       1 <0>        -0.0164
     18 C16        -4.3063   -1.7573    2.8204 C.3       1 <0>        -0.1397
     19 C17        -5.6422   -1.7687    3.5665 C.3       1 <0>        -0.0052
     20 N2         -6.2909   -0.4585    3.4359 N.4       1 <0>        -0.3798
     21 C18        -6.5994   -0.1937    2.0255 C.3       1 <0>        -0.0131
     22 C19        -5.3003   -0.1217    1.2201 C.3       1 <0>        -0.1392
     23 C20        -7.5345   -0.4493    4.2177 C.3       1 <0>        -0.0330
     24 C21        -8.1476    0.9521    4.1845 C.3       1 <0>         0.1326
     25 N3         -9.3878    0.9612    4.9641 N.am      1 <0>        -0.6351
     26 C22       -10.7283    0.6664    4.4362 C.3       1 <0>         0.0898
     27 C23       -11.6494    0.8170    5.6625 C.3       1 <0>         0.0871
     28 N4        -10.7301    1.1807    6.7511 N.am      1 <0>        -0.7327
     29 C24        -9.4802    1.2337    6.2723 C.2       1 <0>         0.7000
     30 O1         -8.5172    1.5083    6.9620 O.2       1 <0>        -0.5776
     31 F1          3.5389    2.1063   -0.0213 F         1 <0>        -0.1276
     32 H1         -0.9590    1.9118    0.0260 H         1 <0>         0.1391
     33 H2          1.1561    3.1700    0.0080 H         1 <0>         0.1488
     34 H3          3.3432   -0.4959   -0.0345 H         1 <0>         0.1499
     35 H4          1.2315   -1.7598   -0.0203 H         1 <0>         0.1411
     36 H5         -2.2541    0.2401    1.6556 H         1 <0>         0.1691
     37 H6          0.1466   -2.0149   -2.1816 H         1 <0>         0.1333
     38 H7         -0.9074   -3.8472   -3.4259 H         1 <0>         0.1426
     39 H8         -4.3833   -3.5900   -0.9659 H         1 <0>         0.1336
     40 H9         -5.1611   -2.2499    0.9021 H         1 <0>         0.0971
     41 H10        -3.8271   -2.7315    2.9171 H         1 <0>         0.1158
     42 H11        -3.6594   -0.9891    3.2440 H         1 <0>         0.0884
     43 H12        -6.2882   -2.5373    3.1423 H         1 <0>         0.1304
     44 H13        -5.4673   -1.9836    4.6207 H         1 <0>         0.1320
     45 H14        -7.2250   -0.9960    1.6341 H         1 <0>         0.1319
     46 H15        -7.1311    0.7541    1.9420 H         1 <0>         0.1316
     47 H16        -4.6740    0.6804    1.6106 H         1 <0>         0.0885
     48 H17        -5.5315    0.0731    0.1729 H         1 <0>         0.1159
     49 H18        -8.2379   -1.1638    3.7899 H         1 <0>         0.1318
     50 H19        -7.3173   -0.7265    5.2492 H         1 <0>         0.1351
     51 H20        -7.4442    1.6665    4.6123 H         1 <0>         0.1060
     52 H21        -8.3648    1.2293    3.1530 H         1 <0>         0.1030
     53 H22       -11.0011    1.3839    3.6624 H         1 <0>         0.0916
     54 H23       -10.7713   -0.3513    4.0481 H         1 <0>         0.0867
     55 H24       -12.3795    1.6093    5.4975 H         1 <0>         0.0926
     56 H25       -12.1498   -0.1259    5.8832 H         1 <0>         0.0914
     57 H26       -10.9875    1.3510    7.6707 H         1 <0>         0.4382
     58 H27        -5.6719    0.2583    3.7840 H         1 <0>         0.4243
@<TRIPOS>BOND
     1    1    6 ar
     2    1    2 ar
     3    1   32 1
     4    2    3 ar
     5    2   33 1
     6    3    4 ar
     7    3   31 1
     8    4    5 ar
     9    4   34 1
    10    5    6 ar
    11    5   35 1
    12    6    7 1
    13    7   11 1
    14    7    8 1
    15    8    9 2
    16    8   36 1
    17    9   10 1
    18    9   17 1
    19   10   15 ar
    20   10   11 ar
    21   11   12 ar
    22   12   13 ar
    23   12   37 1
    24   13   14 ar
    25   13   38 1
    26   14   15 ar
    27   14   16 1
    28   15   39 1
    29   17   22 1
    30   17   18 1
    31   17   40 1
    32   18   19 1
    33   18   41 1
    34   18   42 1
    35   19   20 1
    36   19   43 1
    37   19   44 1
    38   20   21 1
    39   20   23 1
    40   20   58 1
    41   21   22 1
    42   21   45 1
    43   21   46 1
    44   22   47 1
    45   22   48 1
    46   23   24 1
    47   23   49 1
    48   23   50 1
    49   24   25 1
    50   24   51 1
    51   24   52 1
    52   25   29 am
    53   25   26 1
    54   26   27 1
    55   26   53 1
    56   26   54 1
    57   27   28 1
    58   27   55 1
    59   27   56 1
    60   28   29 am
    61   28   57 1
    62   29   30 2
@<TRIPOS>MOLECULE
ZINC26172895
   41    43     0     0     0
SMALL
USER_CHARGES
(5S)-5-(4-azidophenyl)-8-iodo-3-methyl-1,2,4,5-tetrahydro-3-benzazepin-7-ol
@<TRIPOS>ATOM
      1 C1          7.1976    4.0727   -2.2714 C.3       1 <0>        -0.0490
      2 N1          5.7311    4.0263   -2.1983 N.4       1 <0>        -0.4015
      3 C2          5.2569    4.4693   -0.8861 C.3       1 <0>        -0.0066
      4 C3          5.1460    3.2348    0.0133 C.3       1 <0>        -0.1009
      5 C4          3.7528    2.6649   -0.0328 C.ar      1 <0>        -0.1441
      6 C5          3.1248    2.3843    1.1739 C.ar      1 <0>        -0.0300
      7 C6          1.8650    1.8235    1.1944 C.ar      1 <0>        -0.1401
      8 C7          1.2229    1.5325   -0.0014 C.ar      1 <0>         0.2068
      9 C8          1.8426    1.8302   -1.2025 C.ar      1 <0>        -0.1961
     10 C9          3.1083    2.4018   -1.2199 C.ar      1 <0>        -0.0321
     11 C10         3.7036    2.7345   -2.5657 C.3       1 <0>        -0.0109
     12 H1          3.3831    3.7510   -2.8376 H         1 <0>         0.1116
     13 C11         5.2301    2.6851   -2.5251 C.3       1 <0>        -0.0104
     14 C12         3.2059    1.7418   -3.5844 C.ar      1 <0>        -0.1229
     15 C13         3.4780    0.3899   -3.4165 C.ar      1 <0>        -0.0617
     16 C14         3.0304   -0.5213   -4.3270 C.ar      1 <0>        -0.1854
     17 C15         2.2929   -0.0809   -5.4556 C.ar      1 <0>         0.1348
     18 C16         2.0282    1.3033   -5.6153 C.ar      1 <0>        -0.0933
     19 C17         2.4849    2.1890   -4.6845 C.ar      1 <0>        -0.0743
     20 N2          1.8554   -0.9537   -6.3513 N.2       1 <0>        -0.3269
     21 N3          2.0684   -2.0494   -6.2191 N.1       1 <0>         0.2759
     22 N4          2.2815   -3.1451   -6.0868 N.1       1 <0>        -0.0963
     23 O1         -0.0110    0.9628    0.0073 O.3       1 <0>        -0.4890
     24 I1          0.9282    1.4054    3.0211 I         1 <0>        -0.0060
     25 H2          7.5452    5.0862   -2.0226 H         1 <0>         0.1274
     26 H3          7.5223    3.8133   -3.2899 H         1 <0>         0.1252
     27 H4          7.6233    3.3533   -1.5564 H         1 <0>         0.1191
     28 H5          5.9729    5.1880   -0.4609 H         1 <0>         0.1388
     29 H6          4.2743    4.9515   -0.9949 H         1 <0>         0.1344
     30 H7          5.8553    2.4669   -0.3290 H         1 <0>         0.0967
     31 H8          5.3811    3.5147    1.0508 H         1 <0>         0.1148
     32 H9          3.6254    2.6110    2.1037 H         1 <0>         0.1398
     33 H10         1.3380    1.6169   -2.1333 H         1 <0>         0.1402
     34 H11         5.6220    2.3761   -3.5054 H         1 <0>         0.1420
     35 H12         5.5624    1.9721   -1.7562 H         1 <0>         0.1407
     36 H13         4.0436    0.0583   -2.5583 H         1 <0>         0.1278
     37 H14         3.2400   -1.5721   -4.1917 H         1 <0>         0.1243
     38 H15         1.4682    1.6539   -6.4697 H         1 <0>         0.1478
     39 H16         2.2847    3.2436   -4.8030 H         1 <0>         0.1379
     40 H17        -0.5175    0.7333   -0.9418 H         1 <0>         0.4459
     41 H18         5.3282    4.7248   -2.9464 H         1 <0>         0.4456
@<TRIPOS>BOND
     1    1    2 1
     2    1   25 1
     3    1   26 1
     4    1   27 1
     5    2   13 1
     6    2    3 1
     7    2   41 1
     8    3    4 1
     9    3   28 1
    10    3   29 1
    11    4    5 1
    12    4   30 1
    13    4   31 1
    14    5   10 ar
    15    5    6 ar
    16    6    7 ar
    17    6   32 1
    18    7    8 ar
    19    7   24 1
    20    8    9 ar
    21    8   23 1
    22    9   10 ar
    23    9   33 1
    24   10   11 1
    25   11   12 1
    26   11   13 1
    27   11   14 1
    28   13   34 1
    29   13   35 1
    30   14   19 ar
    31   14   15 ar
    32   15   16 ar
    33   15   36 1
    34   16   17 ar
    35   16   37 1
    36   17   18 ar
    37   17   20 1
    38   18   19 ar
    39   18   38 1
    40   19   39 1
    41   20   21 2
    42   21   22 2
    43   23   40 1
@<TRIPOS>MOLECULE
ZINC03775140
   62    64     0     0     0
SMALL
USER_CHARGES

@<TRIPOS>ATOM
      1 C1         -0.0173    1.4248    0.0099 C.3       1 <0>         0.0171
      2 O1          0.0021   -0.0041    0.0020 O.3       1 <0>        -0.2760
      3 C2          0.6048   -0.6061   -1.0540 C.ar      1 <0>         0.2490
      4 C3          1.1714    0.1577   -2.0595 C.ar      1 <0>        -0.2968
      5 C4          1.7875   -0.4643   -3.1379 C.ar      1 <0>         0.3045
      6 C5          1.8368   -1.8562   -3.2112 C.ar      1 <0>        -0.1599
      7 C6          1.2804   -2.6188   -2.2247 C.ar      1 <0>         0.0104
      8 C7          0.6619   -2.0064   -1.1291 C.ar      1 <0>        -0.2378
      9 C8          0.0677   -2.8282   -0.0619 C.2       1 <0>         0.5777
     10 O2         -0.4739   -2.2937    0.8871 O.2       1 <0>        -0.5075
     11 N1          0.1238   -4.1727   -0.1363 N.am      1 <0>        -0.7330
     12 C9         -0.4675   -4.9905    0.9257 C.3       1 <0>         0.1404
     13 H1         -1.3642   -4.5012    1.3060 H         1 <0>         0.1248
     14 C10         0.5437   -5.1622    2.0629 C.3       1 <0>        -0.1546
     15 C11         1.7671   -5.9184    1.5404 C.3       1 <0>        -0.0167
     16 N2          1.3566   -7.2378    1.0453 N.4       1 <0>        -0.3759
     17 C12         0.4423   -7.0806   -0.0921 C.3       1 <0>        -0.0388
     18 C13        -0.8339   -6.3685    0.3670 C.3       1 <0>         0.0659
     19 H2         -1.3203   -6.9585    1.1438 H         1 <0>         0.1015
     20 O3         -1.7219   -6.2131   -0.7418 O.3       1 <0>        -0.3502
     21 C14        -2.6322   -7.3011   -0.9143 C.3       1 <0>         0.0179
     22 C15         2.5438   -7.9895    0.6171 C.3       1 <0>        -0.0062
     23 C16         3.4343   -8.2703    1.8292 C.3       1 <0>        -0.1507
     24 C17         4.6708   -9.0533    1.3832 C.3       1 <0>         0.0614
     25 O4          5.5024   -9.3155    2.5152 O.3       1 <0>        -0.3099
     26 C18         6.6507  -10.0076    2.2904 C.ar      1 <0>         0.1104
     27 C19         6.9722  -10.4203    1.0058 C.ar      1 <0>        -0.1786
     28 C20         8.1394  -11.1237    0.7787 C.ar      1 <0>        -0.1136
     29 C21         8.9878  -11.4170    1.8328 C.ar      1 <0>         0.0730
     30 C22         8.6679  -11.0061    3.1156 C.ar      1 <0>        -0.1109
     31 C23         7.5046  -10.2969    3.3445 C.ar      1 <0>        -0.1156
     32 F1         10.1287  -12.1053    1.6094 F         1 <0>        -0.1339
     33 Cl1         2.6089   -2.6229   -4.5639 Cl        1 <0>        -0.0623
     34 N3          2.3569    0.3038   -4.1485 N.pl3     1 <0>        -0.8495
     35 H3          1.0053    1.8021    0.0021 H         1 <0>         0.0609
     36 H4         -0.5445    1.7859   -0.8732 H         1 <0>         0.0614
     37 H5         -0.5275    1.7763    0.9067 H         1 <0>         0.1085
     38 H6          1.1342    1.2357   -2.0059 H         1 <0>         0.1464
     39 H7          1.3215   -3.6961   -2.2880 H         1 <0>         0.1333
     40 H8          0.5557   -4.5989   -0.8931 H         1 <0>         0.3942
     41 H9          0.8503   -4.1821    2.4284 H         1 <0>         0.1283
     42 H10         0.0859   -5.7273    2.8748 H         1 <0>         0.1026
     43 H11         2.2242   -5.3523    0.7288 H         1 <0>         0.1317
     44 H12         2.4891   -6.0421    2.3475 H         1 <0>         0.1399
     45 H13         0.9276   -6.4898   -0.8690 H         1 <0>         0.1341
     46 H14         0.1862   -8.0624   -0.4903 H         1 <0>         0.1380
     47 H15        -2.0715   -8.2215   -1.0778 H         1 <0>         0.0481
     48 H16        -3.2481   -7.4047   -0.0210 H         1 <0>         0.0566
     49 H17        -3.2712   -7.1071   -1.7758 H         1 <0>         0.1042
     50 H18         2.2339   -8.9329    0.1676 H         1 <0>         0.1368
     51 H19         3.1003   -7.4039   -0.1147 H         1 <0>         0.1356
     52 H20         3.7442   -7.3269    2.2786 H         1 <0>         0.1012
     53 H21         2.8778   -8.8559    2.5610 H         1 <0>         0.1013
     54 H22         4.3608   -9.9967    0.9337 H         1 <0>         0.0740
     55 H23         5.2272   -8.4676    0.6514 H         1 <0>         0.0740
     56 H24         6.3103  -10.1922    0.1835 H         1 <0>         0.1353
     57 H25         8.3900  -11.4451   -0.2214 H         1 <0>         0.1422
     58 H26         9.3304  -11.2359    3.9370 H         1 <0>         0.1482
     59 H27         7.2577   -9.9722    4.3445 H         1 <0>         0.1439
     60 H28         2.3233    1.2719   -4.0992 H         1 <0>         0.4097
     61 H29         2.7876   -0.1289   -4.9023 H         1 <0>         0.4089
     62 H30         0.8896   -7.7426    1.7837 H         1 <0>         0.4252
@<TRIPOS>BOND
     1    1    2 1
     2    1   35 1
     3    1   36 1
     4    1   37 1
     5    2    3 1
     6    3    8 ar
     7    3    4 ar
     8    4    5 ar
     9    4   38 1
    10    5    6 ar
    11    5   34 1
    12    6    7 ar
    13    6   33 1
    14    7    8 ar
    15    7   39 1
    16    8    9 1
    17    9   10 2
    18    9   11 am
    19   11   12 1
    20   11   40 1
    21   12   13 1
    22   12   18 1
    23   12   14 1
    24   14   15 1
    25   14   41 1
    26   14   42 1
    27   15   16 1
    28   15   43 1
    29   15   44 1
    30   16   17 1
    31   16   22 1
    32   16   62 1
    33   17   18 1
    34   17   45 1
    35   17   46 1
    36   18   19 1
    37   18   20 1
    38   20   21 1
    39   21   47 1
    40   21   48 1
    41   21   49 1
    42   22   23 1
    43   22   50 1
    44   22   51 1
    45   23   24 1
    46   23   52 1
    47   23   53 1
    48   24   25 1
    49   24   54 1
    50   24   55 1
    51   25   26 1
    52   26   31 ar
    53   26   27 ar
    54   27   28 ar
    55   27   56 1
    56   28   29 ar
    57   28   57 1
    58   29   30 ar
    59   29   32 1
    60   30   31 ar
    61   30   58 1
    62   31   59 1
    63   34   60 1
    64   34   61 1
@<TRIPOS>MOLECULE
ZINC03830564
   62    64     0     0     0
SMALL
USER_CHARGES

@<TRIPOS>ATOM
      1 C1         -0.0173    1.4248    0.0099 C.3       1 <0>         0.0173
      2 O1          0.0021   -0.0041    0.0020 O.3       1 <0>        -0.2768
      3 C2          0.6048   -0.6061   -1.0540 C.ar      1 <0>         0.2482
      4 C3          1.1714    0.1577   -2.0595 C.ar      1 <0>        -0.2974
      5 C4          1.7875   -0.4643   -3.1379 C.ar      1 <0>         0.3044
      6 C5          1.8368   -1.8562   -3.2112 C.ar      1 <0>        -0.1594
      7 C6          1.2804   -2.6188   -2.2247 C.ar      1 <0>         0.0124
      8 C7          0.6619   -2.0064   -1.1291 C.ar      1 <0>        -0.2376
      9 C8          0.0677   -2.8282   -0.0619 C.2       1 <0>         0.5803
     10 O2         -0.4739   -2.2937    0.8871 O.2       1 <0>        -0.5144
     11 N1          0.1238   -4.1727   -0.1363 N.am      1 <0>        -0.7279
     12 C9         -0.4675   -4.9905    0.9257 C.3       1 <0>         0.1426
     13 H1         -0.3382   -4.4904    1.8855 H         1 <0>         0.1147
     14 C10        -1.9606   -5.1884    0.6484 C.3       1 <0>        -0.1574
     15 C11        -2.5547   -6.1082    1.7173 C.3       1 <0>        -0.0121
     16 N2         -1.8729   -7.4076    1.6837 N.4       1 <0>        -0.3780
     17 C12        -0.4544   -7.2346    2.0193 C.3       1 <0>        -0.0308
     18 C13         0.2219   -6.3574    0.9634 C.3       1 <0>         0.0634
     19 H2          0.1375   -6.8346   -0.0130 H         1 <0>         0.0897
     20 O3          1.6015   -6.1871    1.2946 O.3       1 <0>        -0.3498
     21 C14         2.4612   -7.1803    0.7321 C.3       1 <0>         0.0175
     22 C15        -2.4981   -8.3123    2.6576 C.3       1 <0>        -0.0056
     23 C16        -3.9400   -8.5999    2.2341 C.3       1 <0>        -0.1510
     24 C17        -4.5912   -9.5422    3.2484 C.3       1 <0>         0.0612
     25 O4         -5.9378   -9.8107    2.8528 O.3       1 <0>        -0.3101
     26 C18        -6.6627  -10.6375    3.6523 C.ar      1 <0>         0.1103
     27 C19        -6.0908  -11.1740    4.7964 C.ar      1 <0>        -0.1786
     28 C20        -6.8286  -12.0140    5.6079 C.ar      1 <0>        -0.1136
     29 C21        -8.1381  -12.3209    5.2793 C.ar      1 <0>         0.0729
     30 C22        -8.7100  -11.7865    4.1373 C.ar      1 <0>        -0.1110
     31 C23        -7.9767  -10.9409    3.3276 C.ar      1 <0>        -0.1157
     32 F1         -8.8583  -13.1429    6.0736 F         1 <0>        -0.1339
     33 Cl1         2.6089   -2.6229   -4.5639 Cl        1 <0>        -0.0612
     34 N3          2.3569    0.3038   -4.1485 N.pl3     1 <0>        -0.8498
     35 H3          1.0053    1.8021    0.0021 H         1 <0>         0.0610
     36 H4         -0.5445    1.7859   -0.8732 H         1 <0>         0.0608
     37 H5         -0.5275    1.7763    0.9067 H         1 <0>         0.1075
     38 H6          1.1342    1.2357   -2.0059 H         1 <0>         0.1460
     39 H7          1.3215   -3.6961   -2.2880 H         1 <0>         0.1366
     40 H8          0.5557   -4.5989   -0.8931 H         1 <0>         0.4011
     41 H9         -2.4669   -4.2235    0.6762 H         1 <0>         0.1280
     42 H10        -2.0914   -5.6407   -0.3346 H         1 <0>         0.0936
     43 H11        -2.4236   -5.6548    2.6998 H         1 <0>         0.1373
     44 H12        -3.6177   -6.2510    1.5230 H         1 <0>         0.1408
     45 H13        -0.3681   -6.7573    2.9954 H         1 <0>         0.1434
     46 H14         0.0331   -8.2090    2.0480 H         1 <0>         0.1370
     47 H15         2.1631   -8.1650    1.0923 H         1 <0>         0.0484
     48 H16         2.3857   -7.1529   -0.3549 H         1 <0>         0.0550
     49 H17         3.4905   -6.9808    1.0300 H         1 <0>         0.1046
     50 H18        -1.9380   -9.2465    2.6975 H         1 <0>         0.1365
     51 H19        -2.4951   -7.8445    3.6421 H         1 <0>         0.1371
     52 H20        -4.5001   -7.6657    2.1942 H         1 <0>         0.1015
     53 H21        -3.9430   -9.0676    1.2495 H         1 <0>         0.1005
     54 H22        -4.0310  -10.4764    3.2882 H         1 <0>         0.0740
     55 H23        -4.5881   -9.0744    4.2329 H         1 <0>         0.0745
     56 H24        -5.0691  -10.9353    5.0526 H         1 <0>         0.1356
     57 H25        -6.3836  -12.4318    6.4989 H         1 <0>         0.1423
     58 H26        -9.7315  -12.0270    3.8820 H         1 <0>         0.1482
     59 H27        -8.4246  -10.5203    2.4394 H         1 <0>         0.1438
     60 H28         2.3233    1.2719   -4.0992 H         1 <0>         0.4092
     61 H29         2.7876   -0.1289   -4.9023 H         1 <0>         0.4089
     62 H30        -1.9528   -7.8044    0.7595 H         1 <0>         0.4239
@<TRIPOS>BOND
     1    1    2 1
     2    1   35 1
     3    1   36 1
     4    1   37 1
     5    2    3 1
     6    3    8 ar
     7    3    4 ar
     8    4    5 ar
     9    4   38 1
    10    5    6 ar
    11    5   34 1
    12    6    7 ar
    13    6   33 1
    14    7    8 ar
    15    7   39 1
    16    8    9 1
    17    9   10 2
    18    9   11 am
    19   11   12 1
    20   11   40 1
    21   12   13 1
    22   12   18 1
    23   12   14 1
    24   14   15 1
    25   14   41 1
    26   14   42 1
    27   15   16 1
    28   15   43 1
    29   15   44 1
    30   16   17 1
    31   16   22 1
    32   16   62 1
    33   17   18 1
    34   17   45 1
    35   17   46 1
    36   18   19 1
    37   18   20 1
    38   20   21 1
    39   21   47 1
    40   21   48 1
    41   21   49 1
    42   22   23 1
    43   22   50 1
    44   22   51 1
    45   23   24 1
    46   23   52 1
    47   23   53 1
    48   24   25 1
    49   24   54 1
    50   24   55 1
    51   25   26 1
    52   26   31 ar
    53   26   27 ar
    54   27   28 ar
    55   27   56 1
    56   28   29 ar
    57   28   57 1
    58   29   30 ar
    59   29   32 1
    60   30   31 ar
    61   30   58 1
    62   31   59 1
    63   34   60 1
    64   34   61 1
@<TRIPOS>MOLECULE
ZINC03870333
   39    41     0     0     0
SMALL
USER_CHARGES

@<TRIPOS>ATOM
      1 C1         -0.6938    1.1591   -0.0447 C.3       1 <0>        -0.0565
      2 N1         -0.3969   -0.2790   -0.0054 N.4       1 <0>        -0.3850
      3 C2         -1.6539   -1.0044   -0.0502 C.3       1 <0>        -0.0077
      4 C3         -1.4199   -2.4953   -0.3132 C.3       1 <0>        -0.1239
      5 C4         -1.1505   -3.1735    1.0150 C.ar      1 <0>        -0.0989
      6 C5         -2.0819   -4.0506    1.5402 C.ar      1 <0>        -0.0607
      7 C6         -1.8332   -4.6676    2.7527 C.ar      1 <0>        -0.1138
      8 C7         -0.6537   -4.4049    3.4363 C.ar      1 <0>         0.1509
      9 C8          0.2758   -3.5238    2.9017 C.ar      1 <0>        -0.1215
     10 C9          0.0176   -2.9133    1.6890 C.ar      1 <0>        -0.0702
     11 C10         1.0294   -1.9515    1.0995 C.3       1 <0>        -0.0170
     12 H1          1.9511   -1.9856    1.6803 H         1 <0>         0.1374
     13 C11         0.4364   -0.5401    1.1546 C.3       1 <0>        -0.0042
     14 C12         1.3158   -2.3287   -0.3312 C.ar      1 <0>        -0.1098
     15 C13         1.8001   -1.3801   -1.2124 C.ar      1 <0>        -0.1730
     16 C14         2.0629   -1.7261   -2.5247 C.ar      1 <0>        -0.0961
     17 C15         1.8418   -3.0209   -2.9556 C.ar      1 <0>        -0.1046
     18 C16         1.3584   -3.9697   -2.0742 C.ar      1 <0>        -0.0973
     19 C17         1.0997   -3.6247   -0.7608 C.ar      1 <0>        -0.0997
     20 O1         -0.4096   -5.0100    4.6286 O.3       1 <0>        -0.4821
     21 Br1        -3.0999   -5.8686    3.4799 Br        1 <0>        -0.0120
     22 H2          0.2376    1.7205   -0.1192 H         1 <0>         0.1249
     23 H3         -1.3198    1.3774   -0.9099 H         1 <0>         0.1262
     24 H4         -1.2194    1.4466    0.8659 H         1 <0>         0.1242
     25 H5         -2.1695   -0.8859    0.9028 H         1 <0>         0.1285
     26 H6         -2.2756   -0.5940   -0.8458 H         1 <0>         0.1374
     27 H7         -2.3059   -2.9306   -0.7754 H         1 <0>         0.1177
     28 H8         -0.5608   -2.6221   -0.9719 H         1 <0>         0.1190
     29 H9         -2.9989   -4.2524    1.0065 H         1 <0>         0.1460
     30 H10         1.1946   -3.3163    3.4300 H         1 <0>         0.1478
     31 H11         1.2472    0.1878    1.1837 H         1 <0>         0.1404
     32 H12        -0.1658   -0.4399    2.0576 H         1 <0>         0.1368
     33 H13         1.9729   -0.3686   -0.8757 H         1 <0>         0.1276
     34 H14         2.4406   -0.9849   -3.2133 H         1 <0>         0.1374
     35 H15         2.0465   -3.2910   -3.9811 H         1 <0>         0.1370
     36 H16         1.1854   -4.9811   -2.4110 H         1 <0>         0.1371
     37 H17         0.7255   -4.3669   -0.0712 H         1 <0>         0.1351
     38 H18         0.0540   -5.8552    4.5531 H         1 <0>         0.4046
     39 H19         0.1304   -0.5139   -0.8329 H         1 <0>         0.4178
@<TRIPOS>BOND
     1    1    2 1
     2    1   22 1
     3    1   23 1
     4    1   24 1
     5    2   13 1
     6    2    3 1
     7    2   39 1
     8    3    4 1
     9    3   25 1
    10    3   26 1
    11    4    5 1
    12    4   27 1
    13    4   28 1
    14    5   10 ar
    15    5    6 ar
    16    6    7 ar
    17    6   29 1
    18    7    8 ar
    19    7   21 1
    20    8    9 ar
    21    8   20 1
    22    9   10 ar
    23    9   30 1
    24   10   11 1
    25   11   12 1
    26   11   13 1
    27   11   14 1
    28   13   31 1
    29   13   32 1
    30   14   19 ar
    31   14   15 ar
    32   15   16 ar
    33   15   33 1
    34   16   17 ar
    35   16   34 1
    36   17   18 ar
    37   17   35 1
    38   18   19 ar
    39   18   36 1
    40   19   37 1
    41   20   38 1
@<TRIPOS>MOLECULE
ZINC00001931
   41    42     0     0     0
SMALL
USER_CHARGES

@<TRIPOS>ATOM
      1 C1         -0.0178    1.4648    0.0101 C.3       1 <0>        -0.0543
      2 N1          0.0021   -0.0041    0.0020 N.4       1 <0>        -0.3888
      3 C2          0.6897   -0.4778   -1.2066 C.3       1 <0>        -0.0480
      4 C3          0.7126   -0.4907    1.1921 C.3       1 <0>        -0.0022
      5 C4         -0.0711   -0.1034    2.4478 C.3       1 <0>         0.0237
      6 O1         -1.3280   -0.7834    2.4535 O.3       1 <0>        -0.3239
      7 C5         -2.1519   -0.5481    3.5084 C.ar      1 <0>         0.1190
      8 C6         -1.7611    0.3238    4.5145 C.ar      1 <0>        -0.2009
      9 C7         -2.6006    0.5616    5.5853 C.ar      1 <0>        -0.0812
     10 C8         -3.8295   -0.0686    5.6552 C.ar      1 <0>        -0.1366
     11 C9         -4.2210   -0.9381    4.6542 C.ar      1 <0>        -0.0754
     12 C10        -3.3874   -1.1749    3.5782 C.ar      1 <0>        -0.0972
     13 C11        -3.8174   -2.1181    2.4843 C.3       1 <0>        -0.0314
     14 C12        -3.2661   -3.4930    2.7611 C.ar      1 <0>        -0.0813
     15 C13        -2.0239   -3.8511    2.2715 C.ar      1 <0>        -0.1132
     16 C14        -1.5182   -5.1123    2.5253 C.ar      1 <0>        -0.1224
     17 C15        -2.2544   -6.0153    3.2692 C.ar      1 <0>        -0.1189
     18 C16        -3.4962   -5.6570    3.7596 C.ar      1 <0>        -0.1130
     19 C17        -4.0001   -4.3943    3.5093 C.ar      1 <0>        -0.1127
     20 H1          1.0047    1.8421    0.0024 H         1 <0>         0.1247
     21 H2         -0.5450    1.8259   -0.8730 H         1 <0>         0.1274
     22 H3         -0.5280    1.8163    0.9069 H         1 <0>         0.1217
     23 H4          1.7123   -0.1005   -1.2143 H         1 <0>         0.1234
     24 H5          0.7044   -1.5677   -1.2126 H         1 <0>         0.1247
     25 H6          0.1625   -0.1167   -2.0897 H         1 <0>         0.1261
     26 H7          0.8051   -1.5756    1.1418 H         1 <0>         0.1419
     27 H8          1.7055   -0.0428    1.2310 H         1 <0>         0.1494
     28 H9          0.4987   -0.3857    3.3332 H         1 <0>         0.1083
     29 H10        -0.2405    0.9733    2.4528 H         1 <0>         0.0867
     30 H11        -0.8013    0.8159    4.4605 H         1 <0>         0.1267
     31 H12        -2.2967    1.2399    6.3688 H         1 <0>         0.1306
     32 H13        -4.4845    0.1186    6.4932 H         1 <0>         0.1316
     33 H14        -5.1812   -1.4293    4.7113 H         1 <0>         0.1347
     34 H15        -4.9059   -2.1631    2.4505 H         1 <0>         0.0854
     35 H16        -3.4386   -1.7607    1.5267 H         1 <0>         0.0779
     36 H17        -1.4486   -3.1456    1.6903 H         1 <0>         0.1132
     37 H18        -0.5480   -5.3923    2.1422 H         1 <0>         0.1195
     38 H19        -1.8597   -7.0010    3.4669 H         1 <0>         0.1237
     39 H20        -4.0716   -6.3626    4.3404 H         1 <0>         0.1254
     40 H21        -4.9686   -4.1130    3.8955 H         1 <0>         0.1224
     41 H22        -0.9445   -0.3533    0.0092 H         1 <0>         0.4332
@<TRIPOS>BOND
     1    1    2 1
     2    1   20 1
     3    1   21 1
     4    1   22 1
     5    2    3 1
     6    2    4 1
     7    2   41 1
     8    3   23 1
     9    3   24 1
    10    3   25 1
    11    4    5 1
    12    4   26 1
    13    4   27 1
    14    5    6 1
    15    5   28 1
    16    5   29 1
    17    6    7 1
    18    7   12 ar
    19    7    8 ar
    20    8    9 ar
    21    8   30 1
    22    9   10 ar
    23    9   31 1
    24   10   11 ar
    25   10   32 1
    26   11   12 ar
    27   11   33 1
    28   12   13 1
    29   13   14 1
    30   13   34 1
    31   13   35 1
    32   14   19 ar
    33   14   15 ar
    34   15   16 ar
    35   15   36 1
    36   16   17 ar
    37   16   37 1
    38   17   18 ar
    39   17   38 1
    40   18   19 ar
    41   18   39 1
    42   19   40 1
@<TRIPOS>MOLECULE
ZINC03825965
   61    64     0     0     0
SMALL
USER_CHARGES
2-[4-[4-(7-methoxy-1-naphthyl)piperazin-1-yl]butyl]-4-methyl-1,2,4-triazine-3,5-dione
@<TRIPOS>ATOM
      1 C1         -2.0231    1.8137    0.6582 C.3       1 <0>         0.0742
      2 N1         -0.7874    2.5524    0.3867 N.am      1 <0>        -0.5564
      3 C2         -0.8326    3.8813    0.1583 C.2       1 <0>         0.5084
      4 O1         -1.8956    4.4738    0.1762 O.2       1 <0>        -0.4669
      5 C3          0.4140    4.6017   -0.1163 C.2       1 <0>         0.0634
      6 N2          1.5380    3.9407   -0.1287 N.2       1 <0>        -0.1777
      7 N3          1.5393    2.5628    0.1185 N.am      1 <0>        -0.4527
      8 C4          0.3932    1.9057    0.3704 C.2       1 <0>         0.6789
      9 O2          0.4233    0.7087    0.5818 O.2       1 <0>        -0.5327
     10 C5          2.8060    1.8269    0.1029 C.3       1 <0>         0.1443
     11 C6          3.0823    1.3171   -1.3129 C.3       1 <0>        -0.1367
     12 C7          4.4051    0.5485   -1.3292 C.3       1 <0>        -0.1456
     13 C8          4.6814    0.0387   -2.7450 C.3       1 <0>        -0.0029
     14 C9          7.0843    0.1963   -2.4877 C.3       1 <0>        -0.0008
     15 C10         8.3766   -0.6219   -2.4340 C.3       1 <0>         0.0217
     16 N4          8.5611   -1.3257   -3.7108 N.pl3     1 <0>        -0.4829
     17 C11         7.4284   -2.2213   -3.9837 C.3       1 <0>         0.0173
     18 C12         6.1361   -1.4030   -4.0374 C.3       1 <0>         0.0026
     19 C13         9.7664   -2.0260   -3.7256 C.ar      1 <0>         0.0812
     20 C14        10.4947   -2.1813   -2.5657 C.ar      1 <0>        -0.1408
     21 C15        11.6964   -2.8835   -2.5687 C.ar      1 <0>        -0.1158
     22 C16        12.1912   -3.4252   -3.7158 C.ar      1 <0>        -0.0881
     23 C17        11.4824   -3.2847   -4.9213 C.ar      1 <0>        -0.0708
     24 C18        10.2549   -2.5774   -4.9297 C.ar      1 <0>        -0.0049
     25 C19         9.5469   -2.4379   -6.1332 C.ar      1 <0>        -0.1649
     26 C20        10.0499   -2.9838   -7.2801 C.ar      1 <0>         0.1412
     27 C21        11.2610   -3.6818   -7.2702 C.ar      1 <0>        -0.1852
     28 C22        11.9704   -3.8345   -6.1198 C.ar      1 <0>        -0.0583
     29 O3          9.3633   -2.8476   -8.4452 O.3       1 <0>        -0.3171
     30 C23         9.9390   -3.4413   -9.6106 C.3       1 <0>         0.0231
     31 H1         -2.2167    1.8112    1.7308 H         1 <0>         0.0809
     32 H2         -2.8540    2.2926    0.1401 H         1 <0>         0.0986
     33 H3         -1.9180    0.7877    0.3055 H         1 <0>         0.0965
     34 H4          0.4017    5.6648   -0.3060 H         1 <0>         0.2278
     35 H5          3.6143    2.4882    0.4152 H         1 <0>         0.1043
     36 H6          2.7433    0.9812    0.7878 H         1 <0>         0.1061
     37 H7          2.2740    0.6558   -1.6252 H         1 <0>         0.0811
     38 H8          3.1449    2.1627   -1.9978 H         1 <0>         0.0840
     39 H9          5.2134    1.2098   -1.0169 H         1 <0>         0.0927
     40 H10         4.3425   -0.2971   -0.6443 H         1 <0>         0.0923
     41 H11         3.8731   -0.6226   -3.0573 H         1 <0>         0.1313
     42 H12         4.7441    0.8843   -3.4299 H         1 <0>         0.1342
     43 H13         7.1581    0.9411   -3.2801 H         1 <0>         0.1413
     44 H14         6.9304    0.6962   -1.5314 H         1 <0>         0.1384
     45 H15         8.3135   -1.3486   -1.6240 H         1 <0>         0.0709
     46 H16         9.2218    0.0441   -2.2604 H         1 <0>         0.1291
     47 H17         7.3545   -2.9661   -3.1914 H         1 <0>         0.0693
     48 H18         7.5822   -2.7212   -4.9400 H         1 <0>         0.1333
     49 H19         5.2909   -2.0691   -4.2110 H         1 <0>         0.1378
     50 H20         6.1987   -0.6764   -4.8475 H         1 <0>         0.1413
     51 H21        10.1265   -1.7571   -1.6432 H         1 <0>         0.1270
     52 H22        12.2479   -2.9965   -1.6471 H         1 <0>         0.1296
     53 H23        13.1276   -3.9630   -3.6992 H         1 <0>         0.1330
     54 H24         8.6099   -1.9012   -6.1528 H         1 <0>         0.1365
     55 H25        11.6388   -4.1055   -8.1890 H         1 <0>         0.1364
     56 H26        12.9046   -4.3763   -6.1269 H         1 <0>         0.1387
     57 H27         9.2919   -3.2592  -10.4686 H         1 <0>         0.1058
     58 H28        10.9195   -3.0024   -9.7954 H         1 <0>         0.0600
     59 H29        10.0448   -4.5152   -9.4568 H         1 <0>         0.0595
     60 N5          5.9513   -0.7185   -2.7404 N.4       1 <0>        -0.3980
     61 H30         5.9174   -1.4221   -1.9934 H         1 <0>         0.4253
@<TRIPOS>BOND
     1    1    2 1
     2    1   31 1
     3    1   32 1
     4    1   33 1
     5    2    8 am
     6    2    3 am
     7    3    4 2
     8    3    5 1
     9    5    6 2
    10    5   34 1
    11    6    7 1
    12    7    8 am
    13    7   10 1
    14    8    9 2
    15   10   11 1
    16   10   35 1
    17   10   36 1
    18   11   12 1
    19   11   37 1
    20   11   38 1
    21   12   13 1
    22   12   39 1
    23   12   40 1
    24   13   41 1
    25   13   42 1
    26   13   60 1
    27   14   15 1
    28   14   43 1
    29   14   44 1
    30   14   60 1
    31   15   16 1
    32   15   45 1
    33   15   46 1
    34   16   17 1
    35   16   19 1
    36   17   18 1
    37   17   47 1
    38   17   48 1
    39   18   49 1
    40   18   50 1
    41   18   60 1
    42   19   24 ar
    43   19   20 ar
    44   20   21 ar
    45   20   51 1
    46   21   22 ar
    47   21   52 1
    48   22   23 ar
    49   22   53 1
    50   23   28 ar
    51   23   24 ar
    52   24   25 ar
    53   25   26 ar
    54   25   54 1
    55   26   27 ar
    56   26   29 1
    57   27   28 ar
    58   27   55 1
    59   28   56 1
    60   29   30 1
    61   30   57 1
    62   30   58 1
    63   30   59 1
    64   60   61 1
@<TRIPOS>MOLECULE
ZINC01996374
   37    39     0     0     0
SMALL
USER_CHARGES

@<TRIPOS>ATOM
      1 C1         -0.0167    1.3781    0.0096 C.ar      1 <0>        -0.1015
      2 C2          1.1709    2.0855    0.0021 C.ar      1 <0>        -0.1129
      3 C3          2.3773    1.4107   -0.0130 C.ar      1 <0>        -0.1085
      4 C4          2.3960    0.0285   -0.0201 C.ar      1 <0>        -0.1079
      5 C5          1.2084   -0.6789   -0.0117 C.ar      1 <0>        -0.1046
      6 C6          0.0021   -0.0041    0.0020 C.ar      1 <0>        -0.1114
      7 C7          3.7112   -0.7071   -0.0376 C.3       1 <0>        -0.0099
      8 H1          4.5257    0.0172   -0.0425 H         1 <0>         0.1065
      9 C8          3.8179   -1.5729    1.2175 C.3       1 <0>        -0.0152
     10 N1          5.2268   -1.6333    1.6211 N.4       1 <0>        -0.5063
     11 C9          6.0321   -2.2539    0.5690 C.3       1 <0>        -0.0080
     12 C10         5.1671   -3.3122   -0.1228 C.3       1 <0>        -0.1081
     13 C11         4.4887   -2.7354   -1.3383 C.ar      1 <0>        -0.0931
     14 C12         3.7905   -1.5495   -1.2871 C.ar      1 <0>        -0.0848
     15 C13         3.1351   -1.0876   -2.4209 C.ar      1 <0>        -0.1103
     16 C14         3.2017   -1.7951   -3.6074 C.ar      1 <0>         0.0976
     17 C15         3.9339   -2.9771   -3.6650 C.ar      1 <0>         0.0992
     18 C16         4.5731   -3.4399   -2.5308 C.ar      1 <0>        -0.1195
     19 O1          4.0217   -3.6712   -4.8311 O.3       1 <0>        -0.4837
     20 O2          2.5544   -1.3380   -4.7126 O.3       1 <0>        -0.4829
     21 H2         -0.9591    1.9053    0.0259 H         1 <0>         0.1303
     22 H3          1.1563    3.1654    0.0076 H         1 <0>         0.1303
     23 H4          3.3051    1.9634   -0.0196 H         1 <0>         0.1248
     24 H5          1.2231   -1.7588   -0.0176 H         1 <0>         0.1221
     25 H6         -0.9258   -0.5567    0.0082 H         1 <0>         0.1298
     26 H7          3.2258   -1.1310    2.0188 H         1 <0>         0.1448
     27 H8          3.4553   -2.5778    1.0012 H         1 <0>         0.1462
     28 H9          5.5652   -0.6983    1.7928 H         1 <0>         0.4310
     29 H10         6.3395   -1.4985   -0.1542 H         1 <0>         0.1347
     30 H11         6.9116   -2.7254    1.0074 H         1 <0>         0.1430
     31 H12         5.7971   -4.1483   -0.4262 H         1 <0>         0.1175
     32 H13         4.4099   -3.6692    0.5753 H         1 <0>         0.1026
     33 H14         2.5688   -0.1691   -2.3758 H         1 <0>         0.1411
     34 H15         5.1405   -4.3579   -2.5725 H         1 <0>         0.1414
     35 H16         4.7700   -3.4136   -5.3869 H         1 <0>         0.3970
     36 H17         3.0865   -0.7486   -5.2645 H         1 <0>         0.3962
     37 H18         5.3085   -2.1759    2.4679 H         1 <0>         0.4322
@<TRIPOS>BOND
     1    1    6 ar
     2    1    2 ar
     3    1   21 1
     4    2    3 ar
     5    2   22 1
     6    3    4 ar
     7    3   23 1
     8    4    5 ar
     9    4    7 1
    10    5    6 ar
    11    5   24 1
    12    6   25 1
    13    7    8 1
    14    7   14 1
    15    7    9 1
    16    9   10 1
    17    9   26 1
    18    9   27 1
    19   10   11 1
    20   10   28 1
    21   10   37 1
    22   11   12 1
    23   11   29 1
    24   11   30 1
    25   12   13 1
    26   12   31 1
    27   12   32 1
    28   13   18 ar
    29   13   14 ar
    30   14   15 ar
    31   15   16 ar
    32   15   33 1
    33   16   17 ar
    34   16   20 1
    35   17   18 ar
    36   17   19 1
    37   18   34 1
    38   19   35 1
    39   20   36 1
@<TRIPOS>MOLECULE
ZINC14982453
   41    43     0     0     0
SMALL
USER_CHARGES
5-(4-chlorophenyl)-N-(3,5-dimethoxyphenyl)furan-2-carboxamide
@<TRIPOS>ATOM
      1 C1          2.6766   -2.4088    1.0951 C.3       1 <0>         0.0261
      2 O1          1.4013   -1.7670    1.1562 O.3       1 <0>        -0.3115
      3 C2          1.2979   -0.5435    0.5738 C.ar      1 <0>         0.1852
      4 C3          0.0890    0.1348    0.5966 C.ar      1 <0>        -0.2114
      5 C4         -0.0165    1.3849    0.0016 C.ar      1 <0>         0.2188
      6 C5          1.0890    1.9545   -0.6158 C.ar      1 <0>        -0.1889
      7 C6          2.2972    1.2750   -0.6373 C.ar      1 <0>         0.1853
      8 C7          2.4018    0.0264   -0.0427 C.ar      1 <0>        -0.3081
      9 O2          3.3796    1.8328   -1.2408 O.3       1 <0>        -0.3088
     10 C8          4.5923    1.0771   -1.2250 C.3       1 <0>         0.0257
     11 N1         -1.2367    2.0671    0.0192 N.am      1 <0>        -0.6612
     12 C9         -1.2562    3.4103    0.1283 C.2       1 <0>         0.6085
     13 O3         -0.2122    4.0363    0.1269 O.2       1 <0>        -0.4884
     14 C10        -2.5336    4.1167    0.2485 C.2       1 <0>        -0.0814
     15 C11        -2.6960    5.4796    0.3719 C.2       1 <0>        -0.1003
     16 C12        -4.0719    5.7162    0.4533 C.2       1 <0>        -0.1969
     17 C13        -4.6928    4.5018    0.3869 C.2       1 <0>         0.0677
     18 O4         -3.7567    3.5459    0.2637 O.3       1 <0>        -0.1559
     19 C14        -6.1512    4.2764    0.4422 C.ar      1 <0>        -0.0249
     20 C15        -7.0233    5.3587    0.5787 C.ar      1 <0>        -0.0777
     21 C16        -8.3844    5.1420    0.6249 C.ar      1 <0>        -0.1062
     22 C17        -8.8865    3.8536    0.5470 C.ar      1 <0>        -0.0241
     23 C18        -8.0266    2.7757    0.4168 C.ar      1 <0>        -0.1072
     24 C19        -6.6638    2.9796    0.3641 C.ar      1 <0>        -0.0837
     25 Cl1       -10.6009    3.5885    0.6132 Cl        1 <0>        -0.0594
     26 H1          2.9599   -2.5557    0.0529 H         1 <0>         0.0569
     27 H2          3.4213   -1.7852    1.5897 H         1 <0>         0.0568
     28 H3          2.6214   -3.3753    1.5962 H         1 <0>         0.1037
     29 H4         -0.7703   -0.3088    1.0774 H         1 <0>         0.1377
     30 H5          1.0076    2.9266   -1.0792 H         1 <0>         0.1505
     31 H6          3.3434   -0.5023   -0.0595 H         1 <0>         0.1371
     32 H7          5.3749    1.6353   -1.7390 H         1 <0>         0.1038
     33 H8          4.8936    0.8952   -0.1934 H         1 <0>         0.0565
     34 H9          4.4336    0.1246   -1.7306 H         1 <0>         0.0564
     35 H10        -2.0692    1.5737   -0.0472 H         1 <0>         0.4196
     36 H11        -1.9121    6.2220    0.3979 H         1 <0>         0.1686
     37 H12        -4.5527    6.6779    0.5543 H         1 <0>         0.1641
     38 H13        -6.6327    6.3635    0.6437 H         1 <0>         0.1419
     39 H14        -9.0601    5.9784    0.7263 H         1 <0>         0.1435
     40 H15        -8.4242    1.7733    0.3569 H         1 <0>         0.1416
     41 H16        -5.9942    2.1382    0.2630 H         1 <0>         0.1400
@<TRIPOS>BOND
     1    1    2 1
     2    1   26 1
     3    1   27 1
     4    1   28 1
     5    2    3 1
     6    3    8 ar
     7    3    4 ar
     8    4    5 ar
     9    4   29 1
    10    5    6 ar
    11    5   11 1
    12    6    7 ar
    13    6   30 1
    14    7    8 ar
    15    7    9 1
    16    8   31 1
    17    9   10 1
    18   10   32 1
    19   10   33 1
    20   10   34 1
    21   11   12 am
    22   11   35 1
    23   12   13 2
    24   12   14 1
    25   14   18 1
    26   14   15 2
    27   15   16 1
    28   15   36 1
    29   16   17 2
    30   16   37 1
    31   17   18 1
    32   17   19 1
    33   19   24 ar
    34   19   20 ar
    35   20   21 ar
    36   20   38 1
    37   21   22 ar
    38   21   39 1
    39   22   23 ar
    40   22   25 1
    41   23   24 ar
    42   23   40 1
    43   24   41 1
@<TRIPOS>MOLECULE
ZINC03917109
   63    66     0     0     0
SMALL
USER_CHARGES

@<TRIPOS>ATOM
      1 C1         -0.0173    1.4248    0.0099 C.3       1 <0>         0.0228
      2 O1          0.0021   -0.0041    0.0020 O.3       1 <0>        -0.3111
      3 C2          0.6063   -0.6076   -1.0566 C.ar      1 <0>         0.1291
      4 C3          1.1727    0.1584   -2.0619 C.ar      1 <0>        -0.2022
      5 C4          1.7862   -0.4565   -3.1379 C.ar      1 <0>        -0.0669
      6 C5          1.8369   -1.8361   -3.2138 C.ar      1 <0>        -0.1491
      7 C6          1.2745   -2.6077   -2.2144 C.ar      1 <0>        -0.0822
      8 C7          0.6620   -1.9977   -1.1294 C.ar      1 <0>         0.1088
      9 N1          0.0968   -2.7768   -0.1132 N.pl3     1 <0>        -0.6636
     10 C8         -1.3057   -3.2146   -0.1871 C.3       1 <0>         0.1216
     11 C9         -1.3569   -4.7253    0.0636 C.3       1 <0>        -0.0220
     12 N2         -0.6925   -5.0320    1.3366 N.4       1 <0>        -0.3806
     13 C10         0.7338   -4.6939    1.2505 C.3       1 <0>        -0.0274
     14 C11         0.8902   -3.1864    1.0559 C.3       1 <0>         0.1218
     15 C12        -0.8376   -6.4641    1.6301 C.3       1 <0>        -0.0087
     16 C13        -0.2558   -6.7628    3.0132 C.3       1 <0>        -0.1461
     17 C14        -0.4069   -8.2543    3.3189 C.3       1 <0>        -0.1300
     18 C15         0.1750   -8.5530    4.7020 C.3       1 <0>         0.1193
     19 N3          0.0302   -9.9811    4.9947 N.am      1 <0>        -0.7331
     20 C16         0.4752  -10.4775    6.1660 C.2       1 <0>         0.5643
     21 O2          0.9967   -9.7401    6.9797 O.2       1 <0>        -0.5315
     22 C17         0.3293  -11.9181    6.4612 C.ar      1 <0>        -0.1484
     23 C18        -0.2697  -12.7675    5.5136 C.ar      1 <0>        -0.0967
     24 C19        -0.4150  -14.0939    5.7614 C.ar      1 <0>        -0.1051
     25 C20         0.0356  -14.6361    6.9791 C.ar      1 <0>        -0.0320
     26 C21        -0.1038  -16.0058    7.2582 C.ar      1 <0>        -0.1147
     27 C22         0.3421  -16.5017    8.4450 C.ar      1 <0>        -0.0983
     28 C23         0.9368  -15.6705    9.3925 C.ar      1 <0>        -0.1143
     29 C24         1.0892  -14.3386    9.1579 C.ar      1 <0>        -0.0963
     30 C25         0.6411  -13.7901    7.9427 C.ar      1 <0>        -0.0651
     31 C26         0.7884  -12.4225    7.6665 C.ar      1 <0>        -0.0245
     32 H1          1.0053    1.8021    0.0021 H         1 <0>         0.0589
     33 H2         -0.5445    1.7859   -0.8732 H         1 <0>         0.0589
     34 H3         -0.5275    1.7763    0.9067 H         1 <0>         0.1037
     35 H4          1.1348    1.2363   -2.0057 H         1 <0>         0.1341
     36 H5          2.2267    0.1425   -3.9212 H         1 <0>         0.1320
     37 H6          2.3168   -2.3119   -4.0562 H         1 <0>         0.1305
     38 H7          1.3151   -3.6852   -2.2764 H         1 <0>         0.1264
     39 H8         -1.8914   -2.6971    0.5728 H         1 <0>         0.0778
     40 H9         -1.7068   -2.9936   -1.1762 H         1 <0>         0.1138
     41 H10        -2.3961   -5.0513    0.1082 H         1 <0>         0.1357
     42 H11        -0.8470   -5.2457   -0.7471 H         1 <0>         0.1295
     43 H12         1.2353   -4.9969    2.1697 H         1 <0>         0.1375
     44 H13         1.1804   -5.2153    0.4039 H         1 <0>         0.1298
     45 H14         1.9402   -2.9468    0.8881 H         1 <0>         0.1137
     46 H15         0.5300   -2.6661    1.9434 H         1 <0>         0.0774
     47 H16        -1.8938   -6.7330    1.6144 H         1 <0>         0.1318
     48 H17        -0.3036   -7.0450    0.8781 H         1 <0>         0.1294
     49 H18         0.8004   -6.4939    3.0289 H         1 <0>         0.0916
     50 H19        -0.7898   -6.1819    3.7652 H         1 <0>         0.0922
     51 H20        -1.4631   -8.5232    3.3032 H         1 <0>         0.0826
     52 H21         0.1271   -8.8352    2.5669 H         1 <0>         0.0820
     53 H22         1.2312   -8.2841    4.7177 H         1 <0>         0.0723
     54 H23        -0.3590   -7.9721    5.4540 H         1 <0>         0.0726
     55 H24        -0.3859  -10.5695    4.3454 H         1 <0>         0.4021
     56 H25        -0.6188  -12.3588    4.5768 H         1 <0>         0.1223
     57 H26        -0.8770  -14.7335    5.0239 H         1 <0>         0.1343
     58 H27        -0.5632  -16.6627    6.5343 H         1 <0>         0.1320
     59 H28         0.2331  -17.5553    8.6557 H         1 <0>         0.1293
     60 H29         1.2814  -16.0892   10.3264 H         1 <0>         0.1298
     61 H30         1.5515  -13.7060    9.9012 H         1 <0>         0.1331
     62 H31         1.2517  -11.7677    8.3897 H         1 <0>         0.1429
     63 H32        -1.1202   -4.4947    2.0759 H         1 <0>         0.4226
@<TRIPOS>BOND
     1    1    2 1
     2    1   32 1
     3    1   33 1
     4    1   34 1
     5    2    3 1
     6    3    8 ar
     7    3    4 ar
     8    4    5 ar
     9    4   35 1
    10    5    6 ar
    11    5   36 1
    12    6    7 ar
    13    6   37 1
    14    7    8 ar
    15    7   38 1
    16    8    9 1
    17    9   14 1
    18    9   10 1
    19   10   11 1
    20   10   39 1
    21   10   40 1
    22   11   12 1
    23   11   41 1
    24   11   42 1
    25   12   13 1
    26   12   15 1
    27   12   63 1
    28   13   14 1
    29   13   43 1
    30   13   44 1
    31   14   45 1
    32   14   46 1
    33   15   16 1
    34   15   47 1
    35   15   48 1
    36   16   17 1
    37   16   49 1
    38   16   50 1
    39   17   18 1
    40   17   51 1
    41   17   52 1
    42   18   19 1
    43   18   53 1
    44   18   54 1
    45   19   20 am
    46   19   55 1
    47   20   21 2
    48   20   22 1
    49   22   31 ar
    50   22   23 ar
    51   23   24 ar
    52   23   56 1
    53   24   25 ar
    54   24   57 1
    55   25   30 ar
    56   25   26 ar
    57   26   27 ar
    58   26   58 1
    59   27   28 ar
    60   27   59 1
    61   28   29 ar
    62   28   60 1
    63   29   30 ar
    64   29   61 1
    65   30   31 ar
    66   31   62 1
@<TRIPOS>MOLECULE
ZINC03917109
   62    65     0     0     0
SMALL
USER_CHARGES

@<TRIPOS>ATOM
      1 C1         -0.0173    1.4248    0.0099 C.3       1 <0>         0.0251
      2 O1          0.0021   -0.0041    0.0020 O.3       1 <0>        -0.3039
      3 C2         -1.2013   -0.6380    0.0101 C.ar      1 <0>         0.1197
      4 C3         -2.3740    0.0989    0.0195 C.ar      1 <0>        -0.2065
      5 C4         -3.5967   -0.5469    0.0283 C.ar      1 <0>        -0.0836
      6 C5         -3.6532   -1.9283    0.0271 C.ar      1 <0>        -0.1523
      7 C6         -2.4875   -2.6710    0.0173 C.ar      1 <0>        -0.0882
      8 C7         -1.2572   -2.0300    0.0032 C.ar      1 <0>         0.1390
      9 N1         -0.0754   -2.7797   -0.0127 N.pl3     1 <0>        -0.6683
     10 C8          0.5713   -3.1961    1.2410 C.3       1 <0>         0.1532
     11 C9          0.8354   -4.7041    1.1750 C.3       1 <0>         0.0416
     12 N2          1.5913   -5.0126   -0.0462 N.3       1 <0>        -0.5348
     13 C10         0.8175   -4.6811   -1.2500 C.3       1 <0>         0.0379
     14 C11         0.5494   -3.1773   -1.2834 C.3       1 <0>         0.1529
     15 C12         2.0135   -6.4196   -0.0626 C.3       1 <0>         0.0570
     16 C13         2.9994   -6.6428   -1.2111 C.3       1 <0>        -0.1132
     17 C14         3.4391   -8.1081   -1.2283 C.3       1 <0>        -0.1303
     18 C15         4.4250   -8.3314   -2.3768 C.3       1 <0>         0.1194
     19 N3          4.8460   -9.7345   -2.3932 N.am      1 <0>        -0.7276
     20 C16         5.7188  -10.1653   -3.3255 C.2       1 <0>         0.5586
     21 O2          6.1567   -9.3896   -4.1527 O.2       1 <0>        -0.5351
     22 C17         6.1435  -11.5806   -3.3420 C.ar      1 <0>        -0.1394
     23 C18         5.6291  -12.4748   -2.3860 C.ar      1 <0>        -0.0931
     24 C19         6.0037  -13.7793   -2.3806 C.ar      1 <0>        -0.1083
     25 C20         6.9183  -14.2530   -3.3393 C.ar      1 <0>        -0.0339
     26 C21         7.3209  -15.5988   -3.3538 C.ar      1 <0>        -0.1133
     27 C22         8.2070  -16.0282   -4.2939 C.ar      1 <0>        -0.1034
     28 C23         8.7244  -15.1520   -5.2462 C.ar      1 <0>        -0.1183
     29 C24         8.3580  -13.8415   -5.2638 C.ar      1 <0>        -0.0955
     30 C25         7.4441  -13.3613   -4.3084 C.ar      1 <0>        -0.0641
     31 C26         7.0406  -12.0176   -4.3023 C.ar      1 <0>        -0.0303
     32 H1          1.0053    1.8021    0.0021 H         1 <0>         0.0993
     33 H2         -0.5445    1.7859   -0.8732 H         1 <0>         0.0537
     34 H3         -0.5275    1.7763    0.9067 H         1 <0>         0.0537
     35 H4         -2.3335    1.1781    0.0204 H         1 <0>         0.1277
     36 H5         -4.5101    0.0293    0.0363 H         1 <0>         0.1245
     37 H6         -4.6104   -2.4284    0.0343 H         1 <0>         0.1238
     38 H7         -2.5344   -3.7500    0.0168 H         1 <0>         0.1249
     39 H8          1.5150   -2.6639    1.3604 H         1 <0>         0.0581
     40 H9         -0.0855   -2.9758    2.0825 H         1 <0>         0.0690
     41 H10         1.4125   -5.0108    2.0473 H         1 <0>         0.0793
     42 H11        -0.1140   -5.2393    1.1600 H         1 <0>         0.0339
     43 H12         1.3817   -4.9710   -2.1364 H         1 <0>         0.0831
     44 H13        -0.1317   -5.2166   -1.2312 H         1 <0>         0.0333
     45 H14        -0.1219   -2.9447   -2.1101 H         1 <0>         0.0686
     46 H15         1.4910   -2.6433   -1.4113 H         1 <0>         0.0577
     47 H16         2.4960   -6.6652    0.8834 H         1 <0>         0.0748
     48 H17         1.1418   -7.0588   -0.2026 H         1 <0>         0.0322
     49 H18         2.5169   -6.3971   -2.1571 H         1 <0>         0.0668
     50 H19         3.8711   -6.0035   -1.0711 H         1 <0>         0.0766
     51 H20         3.9216   -8.3538   -0.2823 H         1 <0>         0.0712
     52 H21         2.5674   -8.7474   -1.3683 H         1 <0>         0.0684
     53 H22         3.9425   -8.0857   -3.3228 H         1 <0>         0.0696
     54 H23         5.2967   -7.6921   -2.2368 H         1 <0>         0.0713
     55 H24         4.4966  -10.3534   -1.7332 H         1 <0>         0.4001
     56 H25         4.9272  -12.1188   -1.6463 H         1 <0>         0.1252
     57 H26         5.6001  -14.4539   -1.6401 H         1 <0>         0.1336
     58 H27         6.9294  -16.2899   -2.6219 H         1 <0>         0.1303
     59 H28         8.5140  -17.0636   -4.3016 H         1 <0>         0.1266
     60 H29         9.4265  -15.5182   -5.9806 H         1 <0>         0.1272
     61 H30         8.7671  -13.1735   -6.0073 H         1 <0>         0.1318
     62 H31         7.4298  -11.3288   -5.0374 H         1 <0>         0.1429
@<TRIPOS>BOND
     1    1    2 1
     2    1   32 1
     3    1   33 1
     4    1   34 1
     5    2    3 1
     6    3    8 ar
     7    3    4 ar
     8    4    5 ar
     9    4   35 1
    10    5    6 ar
    11    5   36 1
    12    6    7 ar
    13    6   37 1
    14    7    8 ar
    15    7   38 1
    16    8    9 1
    17    9   14 1
    18    9   10 1
    19   10   11 1
    20   10   39 1
    21   10   40 1
    22   11   12 1
    23   11   41 1
    24   11   42 1
    25   12   13 1
    26   12   15 1
    27   13   14 1
    28   13   43 1
    29   13   44 1
    30   14   45 1
    31   14   46 1
    32   15   16 1
    33   15   47 1
    34   15   48 1
    35   16   17 1
    36   16   49 1
    37   16   50 1
    38   17   18 1
    39   17   51 1
    40   17   52 1
    41   18   19 1
    42   18   53 1
    43   18   54 1
    44   19   20 am
    45   19   55 1
    46   20   21 2
    47   20   22 1
    48   22   31 ar
    49   22   23 ar
    50   23   24 ar
    51   23   56 1
    52   24   25 ar
    53   24   57 1
    54   25   30 ar
    55   25   26 ar
    56   26   27 ar
    57   26   58 1
    58   27   28 ar
    59   27   59 1
    60   28   29 ar
    61   28   60 1
    62   29   30 ar
    63   29   61 1
    64   30   31 ar
    65   31   62 1
@<TRIPOS>MOLECULE
ZINC25758512
   37    40     0     0     0
SMALL
USER_CHARGES

@<TRIPOS>ATOM
      1 C1         -0.0166    1.3758    0.0096 C.ar      1 <0>        -0.1157
      2 C2          1.1763    2.0743    0.0020 C.ar      1 <0>        -0.1192
      3 C3          2.3733    1.3896   -0.0385 C.ar      1 <0>        -0.1176
      4 C4          2.4009    0.0034   -0.0861 C.ar      1 <0>        -0.0687
      5 C5          1.2046   -0.6903   -0.0209 C.ar      1 <0>        -0.1153
      6 C6          0.0021   -0.0041    0.0020 C.ar      1 <0>        -0.1124
      7 C7          1.1747   -2.1927    0.1001 C.3       1 <0>         0.0903
      8 N1          2.4687   -2.6697    0.6185 N.3       1 <0>        -0.6611
      9 C8          3.5248   -2.2256   -0.2859 C.3       1 <0>         0.0873
     10 H1          3.2495   -2.4784   -1.3135 H         1 <0>         0.0869
     11 C9          3.7062   -0.7101   -0.1807 C.3       1 <0>        -0.0427
     12 H2          4.2639   -0.5125    0.7432 H         1 <0>         0.0912
     13 C10         4.5908   -0.3033   -1.3255 C.ar      1 <0>        -0.0537
     14 C11         4.3958    0.8864   -1.9965 C.ar      1 <0>        -0.1327
     15 C12         5.2340    1.2611   -3.0353 C.ar      1 <0>         0.0776
     16 C13         6.2733    0.4178   -3.4135 C.ar      1 <0>         0.0830
     17 C14         6.4491   -0.7850   -2.7594 C.ar      1 <0>        -0.1337
     18 C15         5.6055   -1.1624   -1.7191 C.ar      1 <0>        -0.0657
     19 C16         5.8510   -2.5104   -1.0979 C.3       1 <0>        -0.0803
     20 C17         4.8823   -2.8512    0.0309 C.3       1 <0>        -0.1091
     21 O1          7.1132    0.7761   -4.4215 O.3       1 <0>        -0.4882
     22 O2          5.0382    2.4433   -3.6773 O.3       1 <0>        -0.4862
     23 H3         -0.9564    1.9057    0.0259 H         1 <0>         0.1245
     24 H4          1.1697    3.1547    0.0285 H         1 <0>         0.1242
     25 H5          3.3025    1.9411   -0.0098 H         1 <0>         0.1225
     26 H6         -0.9296   -0.5512    0.0145 H         1 <0>         0.1248
     27 H7          0.3852   -2.4841    0.7865 H         1 <0>         0.0925
     28 H8          1.0003   -2.6301   -0.8788 H         1 <0>         0.0889
     29 H9          2.6220   -2.3300    1.5564 H         1 <0>         0.3432
     30 H10         3.5793    1.5447   -1.7458 H         1 <0>         0.1418
     31 H11         7.2519   -1.4441   -3.0565 H         1 <0>         0.1336
     32 H12         5.7665   -3.2743   -1.8756 H         1 <0>         0.0813
     33 H13         6.8713   -2.5358   -0.7070 H         1 <0>         0.0819
     34 H14         5.2573   -2.4506    0.9741 H         1 <0>         0.0674
     35 H15         4.7745   -3.9334    0.1136 H         1 <0>         0.0849
     36 H16         7.8888    1.2742   -4.1290 H         1 <0>         0.3876
     37 H17         5.5166    3.1871   -3.2864 H         1 <0>         0.3869
@<TRIPOS>BOND
     1    1    6 ar
     2    1    2 ar
     3    1   23 1
     4    2    3 ar
     5    2   24 1
     6    3    4 ar
     7    3   25 1
     8    4   11 1
     9    4    5 ar
    10    5    6 ar
    11    5    7 1
    12    6   26 1
    13    7    8 1
    14    7   27 1
    15    7   28 1
    16    8    9 1
    17    8   29 1
    18    9   10 1
    19    9   20 1
    20    9   11 1
    21   11   12 1
    22   11   13 1
    23   13   18 ar
    24   13   14 ar
    25   14   15 ar
    26   14   30 1
    27   15   16 ar
    28   15   22 1
    29   16   17 ar
    30   16   21 1
    31   17   18 ar
    32   17   31 1
    33   18   19 1
    34   19   20 1
    35   19   32 1
    36   19   33 1
    37   20   34 1
    38   20   35 1
    39   21   36 1
    40   22   37 1
@<TRIPOS>MOLECULE
ZINC00643233
   56    59     0     0     0
SMALL
USER_CHARGES

@<TRIPOS>ATOM
      1 C1         -0.0167    1.3786    0.0096 C.ar      1 <0>        -0.1573
      2 C2          1.1695    2.0894    0.0021 C.ar      1 <0>        -0.0635
      3 C3          2.3774    1.4200   -0.0130 C.ar      1 <0>        -0.1784
      4 C4          2.3998    0.0311   -0.0206 C.ar      1 <0>         0.2317
      5 C5          1.2064   -0.6798   -0.0130 C.ar      1 <0>        -0.1988
      6 C6          0.0021   -0.0041    0.0020 C.ar      1 <0>        -0.0706
      7 N1          3.6196   -0.6492   -0.0363 N.pl3     1 <0>        -0.6334
      8 C7          4.9637   -0.0571   -0.0400 C.3       1 <0>         0.3326
      9 N2          5.9388   -1.1470   -0.0572 N.am      1 <0>        -0.7166
     10 C8          5.3099   -2.3344   -0.0641 C.2       1 <0>         0.5288
     11 O1          5.8532   -3.4187   -0.0778 O.2       1 <0>        -0.5133
     12 C9          3.8222   -2.1026   -0.0461 C.3       1 <0>         0.1361
     13 C10         3.1820   -2.7114   -1.2943 C.3       1 <0>        -0.1499
     14 C11         3.3480   -4.2326   -1.2552 C.3       1 <0>        -0.0132
     15 N3          2.7020   -4.7671   -0.0503 N.4       1 <0>        -0.3794
     16 C12         3.3698   -4.2457    1.1482 C.3       1 <0>        -0.0190
     17 C13         3.2050   -2.7250    1.2070 C.3       1 <0>        -0.1492
     18 C14         2.7905   -6.2335   -0.0591 C.3       1 <0>        -0.0094
     19 C15         2.0109   -6.7986    1.1299 C.3       1 <0>        -0.1425
     20 C16         2.1030   -8.3258    1.1207 C.3       1 <0>        -0.1654
     21 C17         1.3351   -8.8824    2.2919 C.2       1 <0>         0.4040
     22 O2          0.7698   -8.1316    3.0583 O.2       1 <0>        -0.4484
     23 C18         1.2712  -10.3355    2.5052 C.ar      1 <0>        -0.1962
     24 C19         1.9272  -11.2044    1.6259 C.ar      1 <0>        -0.0430
     25 C20         1.8634  -12.5650    1.8315 C.ar      1 <0>        -0.1669
     26 C21         1.1505  -13.0743    2.9070 C.ar      1 <0>         0.1434
     27 C22         0.4980  -12.2186    3.7823 C.ar      1 <0>        -0.1651
     28 C23         0.5590  -10.8557    3.5917 C.ar      1 <0>        -0.0262
     29 F1          1.0910  -14.4098    3.1025 F         1 <0>        -0.1261
     30 H1         -0.9598    1.9046    0.0260 H         1 <0>         0.1276
     31 H2          1.1513    3.1692    0.0077 H         1 <0>         0.1312
     32 H3          3.3034    1.9757   -0.0192 H         1 <0>         0.1257
     33 H4          1.2204   -1.7597   -0.0193 H         1 <0>         0.1144
     34 H5         -0.9261   -0.5561    0.0079 H         1 <0>         0.1276
     35 H6          5.0901    0.5643   -0.9265 H         1 <0>         0.0880
     36 H7          5.1025    0.5473    0.8564 H         1 <0>         0.0877
     37 H8          6.9016   -1.0295   -0.0627 H         1 <0>         0.4365
     38 H9          2.1214   -2.4613   -1.3183 H         1 <0>         0.1096
     39 H10         3.6706   -2.3147   -2.1843 H         1 <0>         0.1192
     40 H11         2.8858   -4.6710   -2.1397 H         1 <0>         0.1383
     41 H12         4.4090   -4.4817   -1.2391 H         1 <0>         0.1470
     42 H13         2.9238   -4.6937    2.0361 H         1 <0>         0.1399
     43 H14         4.4303   -4.4946    1.1101 H         1 <0>         0.1471
     44 H15         3.7099   -2.3380    2.0921 H         1 <0>         0.1189
     45 H16         2.1450   -2.4752    1.2532 H         1 <0>         0.1098
     46 H17         2.3668   -6.6175   -0.9870 H         1 <0>         0.1347
     47 H18         3.8354   -6.5348    0.0153 H         1 <0>         0.1347
     48 H19         2.4346   -6.4145    2.0578 H         1 <0>         0.0947
     49 H20         0.9660   -6.4972    1.0555 H         1 <0>         0.0950
     50 H21         1.6793   -8.7098    0.1928 H         1 <0>         0.1132
     51 H22         3.1479   -8.6271    1.1951 H         1 <0>         0.1132
     52 H23         2.4820  -10.8091    0.7879 H         1 <0>         0.1415
     53 H24         2.3692  -13.2366    1.1537 H         1 <0>         0.1468
     54 H25        -0.0554  -12.6215    4.6177 H         1 <0>         0.1475
     55 H26         0.0543  -10.1903    4.2765 H         1 <0>         0.1457
     56 H27         1.7315   -4.4913   -0.0400 H         1 <0>         0.4195
@<TRIPOS>BOND
     1    1    6 ar
     2    1    2 ar
     3    1   30 1
     4    2    3 ar
     5    2   31 1
     6    3    4 ar
     7    3   32 1
     8    4    5 ar
     9    4    7 1
    10    5    6 ar
    11    5   33 1
    12    6   34 1
    13    7   12 1
    14    7    8 1
    15    8    9 1
    16    8   35 1
    17    8   36 1
    18    9   10 am
    19    9   37 1
    20   10   11 2
    21   10   12 1
    22   12   17 1
    23   12   13 1
    24   13   14 1
    25   13   38 1
    26   13   39 1
    27   14   15 1
    28   14   40 1
    29   14   41 1
    30   15   16 1
    31   15   18 1
    32   15   56 1
    33   16   17 1
    34   16   42 1
    35   16   43 1
    36   17   44 1
    37   17   45 1
    38   18   19 1
    39   18   46 1
    40   18   47 1
    41   19   20 1
    42   19   48 1
    43   19   49 1
    44   20   21 1
    45   20   50 1
    46   20   51 1
    47   21   22 2
    48   21   23 1
    49   23   28 ar
    50   23   24 ar
    51   24   25 ar
    52   24   52 1
    53   25   26 ar
    54   25   53 1
    55   26   27 ar
    56   26   29 1
    57   27   28 ar
    58   27   54 1
    59   28   55 1
@<TRIPOS>MOLECULE
ZINC27653862
   40    43     0     0     0
SMALL
USER_CHARGES
2-chloroethylBLAHdiol
@<TRIPOS>ATOM
      1 C1          1.2256    3.2277   -0.2317 C.ar      1 <0>        -0.1198
      2 C2          0.0704    3.9587   -0.0395 C.ar      1 <0>        -0.1191
      3 C3         -1.1729    3.3386   -0.0374 C.ar      1 <0>        -0.0669
      4 C4         -1.2535    1.9747   -0.2171 C.ar      1 <0>        -0.0646
      5 C5         -0.0856    1.2303   -0.3989 C.ar      1 <0>        -0.0336
      6 C6          1.1529    1.8627   -0.4206 C.ar      1 <0>        -0.1036
      7 C7         -0.1805   -0.2358   -0.5951 C.ar      1 <0>        -0.0461
      8 C8         -1.3557   -0.8932   -0.2313 C.ar      1 <0>        -0.0738
      9 C9         -1.4710   -2.2537   -0.4257 C.ar      1 <0>        -0.1098
     10 C10        -0.4134   -2.9736   -0.9543 C.ar      1 <0>        -0.1174
     11 C11         0.7705   -2.3353   -1.2879 C.ar      1 <0>         0.0671
     12 C12         0.8939   -0.9615   -1.1048 C.ar      1 <0>         0.0803
     13 O1          2.0560   -0.3312   -1.4211 O.3       1 <0>        -0.4840
     14 O2          1.8108   -3.0509   -1.7932 O.3       1 <0>        -0.4965
     15 C13        -2.4797   -0.1136    0.3954 C.3       1 <0>        -0.0701
     16 C14        -2.5864    1.2738   -0.2344 C.3       1 <0>         0.1253
     17 H1         -2.9306    1.1938   -1.2761 H         1 <0>         0.0580
     18 N1         -3.5602    2.0686    0.5282 N.3       1 <0>        -0.5193
     19 C15        -3.6825    3.4166   -0.0297 C.3       1 <0>         0.0460
     20 C16        -2.3912    4.1965    0.1530 C.3       1 <0>        -0.0786
     21 C17        -4.8662    1.3977    0.5748 C.3       1 <0>         0.0403
     22 C18        -5.4474    1.3143   -0.8381 C.3       1 <0>        -0.0784
     23 Cl1        -7.0612    0.5124   -0.7777 Cl        1 <0>        -0.1740
     24 H2          2.1850    3.7237   -0.2350 H         1 <0>         0.1239
     25 H3          0.1339    5.0262    0.1115 H         1 <0>         0.1216
     26 H4          2.0529    1.2884   -0.5837 H         1 <0>         0.1488
     27 H5         -2.3889   -2.7590   -0.1640 H         1 <0>         0.1344
     28 H6         -0.5116   -4.0381   -1.1078 H         1 <0>         0.1339
     29 H7          2.9023   -0.9073   -1.8233 H         1 <0>         0.4076
     30 H8          2.7503   -2.5436   -2.0578 H         1 <0>         0.4150
     31 H9         -3.4280   -0.6493    0.2413 H         1 <0>         0.0845
     32 H10        -2.2924   -0.0026    1.4736 H         1 <0>         0.0954
     33 H11        -3.9068    3.3496   -1.1045 H         1 <0>         0.0385
     34 H12        -4.4955    3.9528    0.4818 H         1 <0>         0.0883
     35 H13        -2.3887    4.6164    1.1697 H         1 <0>         0.0851
     36 H14        -2.3817    5.0151   -0.5817 H         1 <0>         0.0819
     37 H15        -4.7428    0.3829    0.9810 H         1 <0>         0.0966
     38 H16        -5.5497    1.9700    1.2193 H         1 <0>         0.0951
     39 H17        -5.5570    2.3284   -1.2499 H         1 <0>         0.0951
     40 H18        -4.7711    0.7295   -1.4789 H         1 <0>         0.0930
@<TRIPOS>BOND
     1    1    6 ar
     2    1    2 ar
     3    1   24 1
     4    2    3 ar
     5    2   25 1
     6    3   20 1
     7    3    4 ar
     8    4   16 1
     9    4    5 ar
    10    5    6 ar
    11    5    7 1
    12    6   26 1
    13    7   12 ar
    14    7    8 ar
    15    8    9 ar
    16    8   15 1
    17    9   10 ar
    18    9   27 1
    19   10   11 ar
    20   10   28 1
    21   11   12 ar
    22   11   14 1
    23   12   13 1
    24   13   29 1
    25   14   30 1
    26   15   16 1
    27   15   31 1
    28   15   32 1
    29   16   17 1
    30   16   18 1
    31   18   19 1
    32   18   21 1
    33   19   20 1
    34   19   33 1
    35   19   34 1
    36   20   35 1
    37   20   36 1
    38   21   22 1
    39   21   37 1
    40   21   38 1
    41   22   23 1
    42   22   39 1
    43   22   40 1
@<TRIPOS>MOLECULE
ZINC00002264
   41    43     0     0     0
SMALL
USER_CHARGES

@<TRIPOS>ATOM
      1 C1          0.7658   -0.3473   -1.0644 C.3       1 <0>        -0.0548
      2 N1         -0.0036   -0.0037    0.1389 N.4       1 <0>        -0.3894
      3 C2         -0.0391    1.4563    0.2971 C.3       1 <0>        -0.0477
      4 C3         -1.3742   -0.5153    0.0064 C.3       1 <0>        -0.0001
      5 C4         -1.3490   -2.0451   -0.0023 C.3       1 <0>         0.0179
      6 O1         -0.8829   -2.5210    1.2620 O.3       1 <0>        -0.3363
      7 C5         -0.7999   -3.8710    1.4222 C.2       1 <0>         0.1610
      8 C6         -1.2488   -4.5696    0.4577 C.2       1 <0>        -0.2032
      9 C7         -1.3500   -6.0155    0.2935 C.ar      1 <0>         0.0017
     10 C8         -2.6274   -6.5666   -0.2185 C.ar      1 <0>        -0.1185
     11 C9         -2.7810   -7.8584   -0.3863 C.ar      1 <0>        -0.0929
     12 C10        -1.6766   -8.7788   -0.0646 C.ar      1 <0>        -0.1110
     13 C11        -0.5421   -8.2947    0.3883 C.ar      1 <0>        -0.0866
     14 C12        -0.3707   -6.8406    0.5754 C.ar      1 <0>        -0.1119
     15 S1          1.1725   -6.2399    1.1799 S.3       1 <0>        -0.0138
     16 C13         0.7483   -5.4433    2.6927 C.ar      1 <0>        -0.1087
     17 C14        -0.2021   -4.3246    2.6760 C.ar      1 <0>        -0.0314
     18 C15        -0.5174   -3.7279    3.8095 C.ar      1 <0>        -0.0633
     19 C16         0.0841   -4.1790    5.0751 C.ar      1 <0>        -0.0299
     20 C17         0.9386   -5.1798    5.0804 C.ar      1 <0>        -0.0906
     21 C18         1.2819   -5.8475    3.8244 C.ar      1 <0>        -0.0433
     22 Cl1        -0.3342   -3.3890    6.5632 Cl        1 <0>        -0.0465
     23 H1          1.7828    0.0323   -0.9661 H         1 <0>         0.1280
     24 H2          0.7921   -1.4307   -1.1818 H         1 <0>         0.1221
     25 H3          0.2933    0.1014   -1.9382 H         1 <0>         0.1252
     26 H4         -0.6816    1.7151    1.1386 H         1 <0>         0.1247
     27 H5          0.9693    1.8263    0.4826 H         1 <0>         0.1262
     28 H6         -0.4312    1.9109   -0.6127 H         1 <0>         0.1236
     29 H7         -1.9750   -0.1666    0.8464 H         1 <0>         0.1430
     30 H8         -1.8085   -0.1538   -0.9257 H         1 <0>         0.1509
     31 H9         -2.3545   -2.4240   -0.1849 H         1 <0>         0.1127
     32 H10        -0.6810   -2.3930   -0.7902 H         1 <0>         0.0922
     33 H11        -1.6169   -3.9955   -0.3797 H         1 <0>         0.1306
     34 H12        -3.4409   -5.8970   -0.4556 H         1 <0>         0.1273
     35 H13        -3.7168   -8.2472   -0.7598 H         1 <0>         0.1349
     36 H14        -1.7987   -9.8433   -0.1996 H         1 <0>         0.1374
     37 H15         0.2703   -8.9655    0.6259 H         1 <0>         0.1368
     38 H16        -1.2182   -2.9062    3.8090 H         1 <0>         0.1431
     39 H17         1.3801   -5.5099    6.0091 H         1 <0>         0.1521
     40 H18         1.9826   -6.6694    3.8283 H         1 <0>         0.1546
     41 H19         0.4337   -0.4191    0.9477 H         1 <0>         0.4341
@<TRIPOS>BOND
     1    1    2 1
     2    1   23 1
     3    1   24 1
     4    1   25 1
     5    2    3 1
     6    2    4 1
     7    2   41 1
     8    3   26 1
     9    3   27 1
    10    3   28 1
    11    4    5 1
    12    4   29 1
    13    4   30 1
    14    5    6 1
    15    5   31 1
    16    5   32 1
    17    6    7 1
    18    7   17 1
    19    7    8 2
    20    8    9 1
    21    8   33 1
    22    9   14 ar
    23    9   10 ar
    24   10   11 ar
    25   10   34 1
    26   11   12 ar
    27   11   35 1
    28   12   13 ar
    29   12   36 1
    30   13   14 ar
    31   13   37 1
    32   14   15 1
    33   15   16 1
    34   16   21 ar
    35   16   17 ar
    36   17   18 ar
    37   18   19 ar
    38   18   38 1
    39   19   20 ar
    40   19   22 1
    41   20   21 ar
    42   20   39 1
    43   21   40 1
@<TRIPOS>MOLECULE
ZINC03782517
   52    56     0     0     0
SMALL
USER_CHARGES

@<TRIPOS>ATOM
      1 C1         -0.0167    1.3820    0.0096 C.ar      1 <0>        -0.1046
      2 C2          1.1640    2.0985    0.0022 C.ar      1 <0>        -0.1289
      3 C3          2.3773    1.4302   -0.0120 C.ar      1 <0>         0.1064
      4 C4          2.3980    0.0398   -0.0164 C.ar      1 <0>         0.0874
      5 C5          1.2077   -0.6752   -0.0086 C.ar      1 <0>        -0.0662
      6 C6          0.0021   -0.0041    0.0020 C.ar      1 <0>        -0.1333
      7 C7         -1.3102   -0.7446   -0.0019 C.3       1 <0>         0.1154
      8 H1         -1.7500   -0.6943   -0.9979 H         1 <0>         0.0953
      9 O1         -1.1081   -2.1109    0.3571 O.3       1 <0>        -0.3783
     10 C8         -0.0907   -2.7528   -0.4198 C.3       1 <0>         0.1128
     11 H2         -0.2624   -2.5604   -1.4789 H         1 <0>         0.0731
     12 C9          1.2670   -2.1815   -0.0082 C.3       1 <0>        -0.1146
     13 C10        -0.1194   -4.2603   -0.1599 C.3       1 <0>        -0.0421
     14 C11         0.9688   -4.9421   -0.9916 C.3       1 <0>        -0.1061
     15 C12         0.9400   -6.4496   -0.7316 C.3       1 <0>        -0.0850
     16 C13        -0.4285   -7.0090   -1.1255 C.3       1 <0>        -0.1125
     17 C14        -1.5167   -6.3271   -0.2937 C.3       1 <0>        -0.0871
     18 C15        -1.4880   -4.8197   -0.5537 C.3       1 <0>        -0.0947
     19 C16        -1.2653   -6.5934    1.1918 C.3       1 <0>        -0.1082
     20 C17         0.1033   -6.0340    1.5856 C.3       1 <0>        -0.0881
     21 C18         1.1915   -6.7158    0.7539 C.3       1 <0>        -0.1122
     22 C19         0.1320   -4.5265    1.3257 C.3       1 <0>        -0.0971
     23 C20        -2.2614   -0.0950    1.0052 C.3       1 <0>         0.0024
     24 N1         -3.5420   -0.8148    1.0039 N.4       1 <0>        -0.6348
     25 O2          3.5865   -0.6210   -0.0288 O.3       1 <0>        -0.4797
     26 O3          3.5429    2.1307   -0.0221 O.3       1 <0>        -0.4832
     27 H3         -0.9613    1.9052    0.0260 H         1 <0>         0.1312
     28 H4          1.1414    3.1782    0.0071 H         1 <0>         0.1426
     29 H5          2.0297   -2.5144   -0.7122 H         1 <0>         0.1025
     30 H6          1.5195   -2.5341    0.9919 H         1 <0>         0.0976
     31 H7          0.7897   -4.7524   -2.0499 H         1 <0>         0.0662
     32 H8          1.9438   -4.5435   -0.7110 H         1 <0>         0.0693
     33 H9          1.7153   -6.9353   -1.3241 H         1 <0>         0.0759
     34 H10        -0.6076   -6.8193   -2.1838 H         1 <0>         0.0632
     35 H11        -0.4490   -8.0829   -0.9402 H         1 <0>         0.0664
     36 H12        -2.4917   -6.7257   -0.5743 H         1 <0>         0.0716
     37 H13        -2.2632   -4.3339    0.0388 H         1 <0>         0.0608
     38 H14        -1.6671   -4.6300   -1.6120 H         1 <0>         0.0613
     39 H15        -2.0405   -6.1076    1.7843 H         1 <0>         0.0589
     40 H16        -1.2858   -7.6673    1.3770 H         1 <0>         0.0651
     41 H17         0.2824   -6.2237    2.6439 H         1 <0>         0.0719
     42 H18         1.1710   -7.7898    0.9391 H         1 <0>         0.0660
     43 H19         2.1665   -6.3173    1.0345 H         1 <0>         0.0634
     44 H20         1.1070   -4.1280    1.6063 H         1 <0>         0.0642
     45 H21        -0.6432   -4.0408    1.9182 H         1 <0>         0.0649
     46 H22        -1.8211   -0.1389    2.0014 H         1 <0>         0.1449
     47 H23        -2.4292    0.9456    0.7276 H         1 <0>         0.1486
     48 H24        -4.1693   -0.3865    1.6680 H         1 <0>         0.4399
     49 H25        -3.9496   -0.7743    0.0818 H         1 <0>         0.4352
     50 H26         3.9380   -0.8148    0.8510 H         1 <0>         0.3932
     51 H27         3.8890    2.3310    0.8584 H         1 <0>         0.3969
     52 H28        -3.3867   -1.7781    1.2609 H         1 <0>         0.4425
@<TRIPOS>BOND
     1    1    6 ar
     2    1    2 ar
     3    1   27 1
     4    2    3 ar
     5    2   28 1
     6    3    4 ar
     7    3   26 1
     8    4    5 ar
     9    4   25 1
    10    5   12 1
    11    5    6 ar
    12    6    7 1
    13    7    8 1
    14    7    9 1
    15    7   23 1
    16    9   10 1
    17   10   11 1
    18   10   12 1
    19   10   13 1
    20   12   29 1
    21   12   30 1
    22   13   18 1
    23   13   22 1
    24   13   14 1
    25   14   15 1
    26   14   31 1
    27   14   32 1
    28   15   21 1
    29   15   16 1
    30   15   33 1
    31   16   17 1
    32   16   34 1
    33   16   35 1
    34   17   18 1
    35   17   19 1
    36   17   36 1
    37   18   37 1
    38   18   38 1
    39   19   20 1
    40   19   39 1
    41   19   40 1
    42   20   21 1
    43   20   22 1
    44   20   41 1
    45   21   42 1
    46   21   43 1
    47   22   44 1
    48   22   45 1
    49   23   24 1
    50   23   46 1
    51   23   47 1
    52   24   48 1
    53   24   49 1
    54   24   52 1
    55   25   50 1
    56   26   51 1
@<TRIPOS>MOLECULE
ZINC00003897
   43    46     0     0     0
SMALL
USER_CHARGES

@<TRIPOS>ATOM
      1 C1         -0.0178    1.4648    0.0101 C.3       1 <0>        -0.0643
      2 N1          0.0021   -0.0041    0.0020 N.4       1 <0>        -0.3783
      3 C2          0.5651   -0.4783   -1.2793 C.3       1 <0>         0.0030
      4 C3          1.6130    0.4650   -1.8175 C.3       1 <0>        -0.1179
      5 C4          2.5466    1.1632   -0.9180 C.ar      1 <0>        -0.0792
      6 C5          3.1196    2.3627   -1.3347 C.ar      1 <0>        -0.0925
      7 C6          3.9970    3.0439   -0.5188 C.ar      1 <0>        -0.0497
      8 C7          4.3162    2.5319    0.7320 C.ar      1 <0>         0.1311
      9 C8          3.7475    1.3396    1.1456 C.ar      1 <0>        -0.1201
     10 C9          2.8634    0.6594    0.3194 C.ar      1 <0>        -0.0869
     11 C10         2.2696   -0.6209    0.8039 C.3       1 <0>        -0.0061
     12 H1          2.3316   -1.3285   -0.0229 H         1 <0>         0.1039
     13 C11         0.8167   -0.4865    1.1303 C.3       1 <0>         0.0306
     14 H2          0.7252    0.2389    1.9387 H         1 <0>         0.1337
     15 C12         0.2782   -1.8142    1.6644 C.3       1 <0>        -0.1325
     16 C13         0.9258   -2.0821    3.0231 C.3       1 <0>        -0.0787
     17 C14         2.4193   -1.9005    2.9633 C.ar      1 <0>        -0.0792
     18 C15         3.0470   -1.2168    1.9418 C.ar      1 <0>        -0.0879
     19 C16         4.4258   -1.0720    1.9521 C.ar      1 <0>        -0.1081
     20 C17         5.1794   -1.6148    2.9734 C.ar      1 <0>        -0.1118
     21 C18         4.5538   -2.3077    3.9926 C.ar      1 <0>        -0.0996
     22 C19         3.1816   -2.4485    3.9864 C.ar      1 <0>        -0.1134
     23 O1          5.1801    3.1966    1.5441 O.3       1 <0>        -0.4793
     24 Cl1         4.7017    4.5377   -1.0535 Cl        1 <0>        -0.0291
     25 H3          0.9919    1.8409    0.1747 H         1 <0>         0.1309
     26 H4         -0.3893    1.8284   -0.9480 H         1 <0>         0.1268
     27 H5         -0.6709    1.8149    0.8095 H         1 <0>         0.1229
     28 H6          1.0152   -1.4593   -1.1275 H         1 <0>         0.1298
     29 H7         -0.2398   -0.5679   -2.0088 H         1 <0>         0.1423
     30 H8          2.2161   -0.0994   -2.5287 H         1 <0>         0.1206
     31 H9          1.0901    1.2297   -2.3918 H         1 <0>         0.1003
     32 H10         2.8735    2.7631   -2.3071 H         1 <0>         0.1479
     33 H11         3.9925    0.9365    2.1171 H         1 <0>         0.1568
     34 H12        -0.8040   -1.7525    1.7788 H         1 <0>         0.0975
     35 H13         0.5300   -2.6179    0.9724 H         1 <0>         0.0930
     36 H14         0.5116   -1.3918    3.7580 H         1 <0>         0.0900
     37 H15         0.7026   -3.1040    3.3295 H         1 <0>         0.0995
     38 H16         4.9140   -0.5310    1.1550 H         1 <0>         0.1296
     39 H17         6.2531   -1.4988    2.9758 H         1 <0>         0.1321
     40 H18         5.1382   -2.7382    4.7923 H         1 <0>         0.1319
     41 H19         2.6957   -2.9895    4.7848 H         1 <0>         0.1297
     42 H20         4.7543    3.8340    2.1337 H         1 <0>         0.4022
     43 H21        -0.9404   -0.3512    0.0984 H         1 <0>         0.4285
@<TRIPOS>BOND
     1    1    2 1
     2    1   25 1
     3    1   26 1
     4    1   27 1
     5    2   13 1
     6    2    3 1
     7    2   43 1
     8    3    4 1
     9    3   28 1
    10    3   29 1
    11    4    5 1
    12    4   30 1
    13    4   31 1
    14    5   10 ar
    15    5    6 ar
    16    6    7 ar
    17    6   32 1
    18    7    8 ar
    19    7   24 1
    20    8    9 ar
    21    8   23 1
    22    9   10 ar
    23    9   33 1
    24   10   11 1
    25   11   12 1
    26   11   18 1
    27   11   13 1
    28   13   14 1
    29   13   15 1
    30   15   16 1
    31   15   34 1
    32   15   35 1
    33   16   17 1
    34   16   36 1
    35   16   37 1
    36   17   22 ar
    37   17   18 ar
    38   18   19 ar
    39   19   20 ar
    40   19   38 1
    41   20   21 ar
    42   20   39 1
    43   21   22 ar
    44   21   40 1
    45   22   41 1
    46   23   42 1
@<TRIPOS>MOLECULE
ZINC05732271
   43    44     0     0     0
SMALL
USER_CHARGES
3,5-dichloro-N-[[1-(2-fluoroethyl)pyrrolidin-2-yl]methyl]-2-hydroxy-6-methoxy-benzamide
@<TRIPOS>ATOM
      1 C1         -5.8647    3.8568   -5.3967 C.3       1 <0>         0.0298
      2 O1         -5.2550    2.5842   -5.1709 O.3       1 <0>        -0.3257
      3 C2         -4.1898    2.2648   -5.9485 C.ar      1 <0>         0.1635
      4 C3         -4.3811    1.6101   -7.1555 C.ar      1 <0>        -0.0555
      5 C4         -3.2965    1.2779   -7.9469 C.ar      1 <0>        -0.0505
      6 C5         -2.0117    1.5995   -7.5468 C.ar      1 <0>        -0.0599
      7 C6         -1.7993    2.2594   -6.3468 C.ar      1 <0>         0.1661
      8 C7         -2.8922    2.6008   -5.5368 C.ar      1 <0>        -0.1707
      9 C8         -2.6780    3.3021   -4.2600 C.2       1 <0>         0.5921
     10 O2         -2.6675    4.5179   -4.2282 O.2       1 <0>        -0.4885
     11 N1         -2.4937    2.5967   -3.1264 N.am      1 <0>        -0.7465
     12 C9         -2.2806    3.2944   -1.8560 C.3       1 <0>         0.0989
     13 C10        -1.9360    2.2767   -0.7668 C.3       1 <0>         0.0158
     14 H1         -2.7519    1.5648   -0.6418 H         1 <0>         0.1533
     15 C11        -1.6383    2.9963    0.5723 C.3       1 <0>        -0.1337
     16 C12        -0.7418    1.9552    1.2984 C.3       1 <0>        -0.1383
     17 C13         0.0735    1.3373    0.1430 C.3       1 <0>        -0.0169
     18 C14        -0.9607    0.3023   -1.7918 C.3       1 <0>        -0.0434
     19 C15         0.3105   -0.1907   -2.4861 C.3       1 <0>         0.0452
     20 F1          0.0451   -1.3969   -3.1433 F         1 <0>        -0.1768
     21 O3         -0.5382    2.5746   -5.9570 O.3       1 <0>        -0.4671
     22 Cl1        -0.6611    1.1754   -8.5517 Cl        1 <0>        -0.0173
     23 Cl2        -5.9868    1.1999   -7.6722 Cl        1 <0>        -0.0160
     24 H2         -6.2256    3.9096   -6.4238 H         1 <0>         0.0597
     25 H3         -6.7017    3.9855   -4.7104 H         1 <0>         0.1082
     26 H4         -5.1319    4.6458   -5.2280 H         1 <0>         0.0591
     27 H5         -3.4536    0.7642   -8.8838 H         1 <0>         0.1650
     28 H6         -2.5021    1.6271   -3.1518 H         1 <0>         0.3965
     29 H7         -3.1886    3.8299   -1.5788 H         1 <0>         0.1196
     30 H8         -1.4595    4.0031   -1.9639 H         1 <0>         0.1034
     31 H9         -1.0951    3.9261    0.4036 H         1 <0>         0.1066
     32 H10        -2.5569    3.1788    1.1301 H         1 <0>         0.1250
     33 H11        -1.3522    1.1965    1.7881 H         1 <0>         0.1026
     34 H12        -0.0833    2.4440    2.0164 H         1 <0>         0.1189
     35 H13         0.1977    0.2670    0.3077 H         1 <0>         0.1368
     36 H14         1.0496    1.8183    0.0793 H         1 <0>         0.1366
     37 H15        -1.2904   -0.4417   -1.0666 H         1 <0>         0.1506
     38 H16        -1.7433    0.4576   -2.5344 H         1 <0>         0.1287
     39 H17         0.6402    0.5533   -3.2114 H         1 <0>         0.0973
     40 H18         1.0932   -0.3460   -1.7436 H         1 <0>         0.1032
     41 H19        -0.1071    1.8893   -5.4282 H         1 <0>         0.3900
     42 N2         -0.6764    1.5872   -1.1012 N.4       1 <0>        -0.3957
     43 H20        -0.1170    2.1844   -1.7214 H         1 <0>         0.4303
@<TRIPOS>BOND
     1    1    2 1
     2    1   24 1
     3    1   25 1
     4    1   26 1
     5    2    3 1
     6    3    8 ar
     7    3    4 ar
     8    4    5 ar
     9    4   23 1
    10    5    6 ar
    11    5   27 1
    12    6    7 ar
    13    6   22 1
    14    7    8 ar
    15    7   21 1
    16    8    9 1
    17    9   10 2
    18    9   11 am
    19   11   12 1
    20   11   28 1
    21   12   13 1
    22   12   29 1
    23   12   30 1
    24   13   14 1
    25   13   15 1
    26   13   42 1
    27   15   16 1
    28   15   31 1
    29   15   32 1
    30   16   17 1
    31   16   33 1
    32   16   34 1
    33   17   35 1
    34   17   36 1
    35   17   42 1
    36   18   19 1
    37   18   37 1
    38   18   38 1
    39   18   42 1
    40   19   20 1
    41   19   39 1
    42   19   40 1
    43   21   41 1
    44   42   43 1
@<TRIPOS>MOLECULE
ZINC03870318
   44    46     0     0     0
SMALL
USER_CHARGES

@<TRIPOS>ATOM
      1 C1         -0.0239    1.6109    1.1457 C.2       1 <0>        -0.1054
      2 C2         -0.0378    0.3251    0.8956 C.2       1 <0>        -0.2357
      3 C3          1.2554   -0.4088    0.6503 C.3       1 <0>         0.0197
      4 N1          1.3597   -1.5412    1.5803 N.4       1 <0>        -0.3820
      5 C4          1.3077   -1.0231    2.9356 C.3       1 <0>        -0.0059
      6 C5          1.1110   -2.1542    3.9498 C.3       1 <0>        -0.1315
      7 C6          2.4721   -2.7272    4.2900 C.ar      1 <0>        -0.0780
      8 C7          3.1683   -3.4398    3.3441 C.ar      1 <0>        -0.0834
      9 C8          4.4109   -3.9689    3.6396 C.ar      1 <0>        -0.1075
     10 C9          4.9556   -3.7776    4.9007 C.ar      1 <0>         0.1087
     11 C10         4.2514   -3.0561    5.8591 C.ar      1 <0>         0.1081
     12 C11         3.0050   -2.5293    5.5513 C.ar      1 <0>        -0.0441
     13 Cl1         2.1201   -1.6271    6.7415 Cl        1 <0>        -0.0272
     14 O1          4.7840   -2.8669    7.0963 O.3       1 <0>        -0.4701
     15 O2          6.1771   -4.2952    5.2001 O.3       1 <0>        -0.4762
     16 C12         2.5698   -3.6480    1.9673 C.3       1 <0>        -0.0115
     17 H1          3.1771   -4.3580    1.4059 H         1 <0>         0.1399
     18 C13         2.5524   -2.2977    1.2439 C.3       1 <0>        -0.0047
     19 C14         1.1637   -4.1739    2.0984 C.ar      1 <0>        -0.1121
     20 C15         0.2599   -3.9948    1.0678 C.ar      1 <0>        -0.1721
     21 C16        -1.0299   -4.4772    1.1880 C.ar      1 <0>        -0.0966
     22 C17        -1.4159   -5.1391    2.3386 C.ar      1 <0>        -0.1038
     23 C18        -0.5118   -5.3191    3.3687 C.ar      1 <0>        -0.0968
     24 C19         0.7793   -4.8404    3.2468 C.ar      1 <0>        -0.0995
     25 H2          0.9143    2.1451    1.1762 H         1 <0>         0.1121
     26 H3         -0.9510    2.1378    1.3170 H         1 <0>         0.1242
     27 H4         -0.9760   -0.2090    0.8651 H         1 <0>         0.1348
     28 H5          1.2749   -0.7778   -0.3751 H         1 <0>         0.1369
     29 H6          2.0938    0.2696    0.8084 H         1 <0>         0.1309
     30 H7          2.2400   -0.5032    3.1560 H         1 <0>         0.1262
     31 H8          0.4788   -0.3201    3.0184 H         1 <0>         0.1399
     32 H9          0.6413   -1.7618    4.8518 H         1 <0>         0.1215
     33 H10         0.4826   -2.9320    3.5159 H         1 <0>         0.1230
     34 H11         4.9546   -4.5279    2.8924 H         1 <0>         0.1505
     35 H12         5.3216   -2.0669    7.1749 H         1 <0>         0.3986
     36 H13         6.9144   -3.6999    5.0077 H         1 <0>         0.3991
     37 H14         2.5763   -2.4682    0.1676 H         1 <0>         0.1410
     38 H15         3.4332   -1.7249    1.5342 H         1 <0>         0.1366
     39 H16         0.5615   -3.4776    0.1689 H         1 <0>         0.1276
     40 H17        -1.7362   -4.3366    0.3832 H         1 <0>         0.1374
     41 H18        -2.4238   -5.5154    2.4328 H         1 <0>         0.1372
     42 H19        -0.8135   -5.8360    4.2678 H         1 <0>         0.1376
     43 H20         1.4866   -4.9843    4.0501 H         1 <0>         0.1351
     44 H21         0.5575   -2.1372    1.4413 H         1 <0>         0.4178
@<TRIPOS>BOND
     1    1    2 2
     2    1   25 1
     3    1   26 1
     4    2    3 1
     5    2   27 1
     6    3    4 1
     7    3   28 1
     8    3   29 1
     9    4   18 1
    10    4    5 1
    11    4   44 1
    12    5    6 1
    13    5   30 1
    14    5   31 1
    15    6    7 1
    16    6   32 1
    17    6   33 1
    18    7   12 ar
    19    7    8 ar
    20    8    9 ar
    21    8   16 1
    22    9   10 ar
    23    9   34 1
    24   10   11 ar
    25   10   15 1
    26   11   12 ar
    27   11   14 1
    28   12   13 1
    29   14   35 1
    30   15   36 1
    31   16   17 1
    32   16   18 1
    33   16   19 1
    34   18   37 1
    35   18   38 1
    36   19   24 ar
    37   19   20 ar
    38   20   21 ar
    39   20   39 1
    40   21   22 ar
    41   21   40 1
    42   22   23 ar
    43   22   41 1
    44   23   24 ar
    45   23   42 1
    46   24   43 1
@<TRIPOS>MOLECULE
ZINC03870318
   43    45     0     0     0
SMALL
USER_CHARGES

@<TRIPOS>ATOM
      1 C1         -0.0128    1.3235   -0.0419 C.2       1 <0>        -0.1896
      2 C2          0.0053    0.0136   -0.0374 C.2       1 <0>        -0.1470
      3 C3         -1.2892   -0.7578   -0.0194 C.3       1 <0>         0.0886
      4 N1         -1.3165   -1.6949   -1.1503 N.3       1 <0>        -0.5562
      5 C4         -1.1785   -0.9902   -2.4144 C.3       1 <0>         0.0831
      6 C5         -0.7593   -1.9509   -3.5314 C.3       1 <0>        -0.1081
      7 C6         -2.0064   -2.6065   -4.0883 C.ar      1 <0>        -0.0511
      8 C7         -2.7040   -3.5093   -3.3231 C.ar      1 <0>        -0.0611
      9 C8         -3.8437   -4.1150   -3.8194 C.ar      1 <0>        -0.1187
     10 C9         -4.2829   -3.8076   -5.0984 C.ar      1 <0>         0.0889
     11 C10        -3.5771   -2.8937   -5.8739 C.ar      1 <0>         0.0904
     12 C11        -2.4350   -2.2915   -5.3657 C.ar      1 <0>        -0.0498
     13 Cl1        -1.5485   -1.1498   -6.3272 Cl        1 <0>        -0.0447
     14 O1         -4.0056   -2.5910   -7.1289 O.3       1 <0>        -0.4754
     15 O2         -5.4030   -4.3989   -5.5939 O.3       1 <0>        -0.4816
     16 C12        -2.2224   -3.8450   -1.9266 C.3       1 <0>        -0.0047
     17 H1         -2.7930   -4.6866   -1.5336 H         1 <0>         0.1015
     18 C13        -2.4348   -2.6169   -1.0361 C.3       1 <0>         0.0786
     19 C14        -0.7579   -4.1983   -1.9655 C.ar      1 <0>        -0.0649
     20 C15         0.0621   -3.8642   -0.9040 C.ar      1 <0>        -0.0681
     21 C16         1.4055   -4.1883   -0.9397 C.ar      1 <0>        -0.1287
     22 C17         1.9287   -4.8469   -2.0367 C.ar      1 <0>        -0.1207
     23 C18         1.1084   -5.1818   -3.0978 C.ar      1 <0>        -0.1271
     24 C19        -0.2358   -4.8616   -3.0602 C.ar      1 <0>        -0.1171
     25 H2          0.9149    1.8763   -0.0548 H         1 <0>         0.1000
     26 H3         -0.9554    1.8505   -0.0372 H         1 <0>         0.0938
     27 H4          0.9479   -0.5135   -0.0465 H         1 <0>         0.1158
     28 H5         -1.3681   -1.3135    0.9150 H         1 <0>         0.0842
     29 H6         -2.1264   -0.0646   -0.1017 H         1 <0>         0.0373
     30 H7         -2.1324   -0.5317   -2.6751 H         1 <0>         0.0289
     31 H8         -0.4237   -0.2109   -2.3098 H         1 <0>         0.0844
     32 H9         -0.2516   -1.3970   -4.3211 H         1 <0>         0.0824
     33 H10        -0.0919   -2.7132   -3.1293 H         1 <0>         0.1176
     34 H11        -4.3888   -4.8242   -3.2142 H         1 <0>         0.1413
     35 H12        -4.6215   -1.8465   -7.1653 H         1 <0>         0.3891
     36 H13        -6.2184   -3.9126   -5.4104 H         1 <0>         0.3896
     37 H14        -2.5299   -2.9382    0.0011 H         1 <0>         0.0847
     38 H15        -3.3505   -2.1088   -1.3386 H         1 <0>         0.0394
     39 H16        -0.3466   -3.3496   -0.0469 H         1 <0>         0.1292
     40 H17         2.0463   -3.9266   -0.1107 H         1 <0>         0.1175
     41 H18         2.9783   -5.0994   -2.0649 H         1 <0>         0.1165
     42 H19         1.5173   -5.6961   -3.9550 H         1 <0>         0.1173
     43 H20        -0.8774   -5.1265   -3.8876 H         1 <0>         0.1146
@<TRIPOS>BOND
     1    1    2 2
     2    1   25 1
     3    1   26 1
     4    2    3 1
     5    2   27 1
     6    3    4 1
     7    3   28 1
     8    3   29 1
     9    4   18 1
    10    4    5 1
    11    5    6 1
    12    5   30 1
    13    5   31 1
    14    6    7 1
    15    6   32 1
    16    6   33 1
    17    7   12 ar
    18    7    8 ar
    19    8    9 ar
    20    8   16 1
    21    9   10 ar
    22    9   34 1
    23   10   11 ar
    24   10   15 1
    25   11   12 ar
    26   11   14 1
    27   12   13 1
    28   14   35 1
    29   15   36 1
    30   16   17 1
    31   16   18 1
    32   16   19 1
    33   18   37 1
    34   18   38 1
    35   19   24 ar
    36   19   20 ar
    37   20   21 ar
    38   20   39 1
    39   21   22 ar
    40   21   40 1
    41   22   23 ar
    42   22   41 1
    43   23   24 ar
    44   23   42 1
    45   24   43 1
@<TRIPOS>MOLECULE
ZINC02516061
   39    41     0     0     0
SMALL
USER_CHARGES

@<TRIPOS>ATOM
      1 C1         -0.0178    1.4648    0.0101 C.3       1 <0>        -0.0512
      2 N1          0.0021   -0.0041    0.0020 N.4       1 <0>        -0.3853
      3 C2         -1.3720   -0.5070   -0.0086 C.3       1 <0>        -0.0104
      4 C3         -1.8534   -0.6046    1.4422 C.3       1 <0>        -0.1042
      5 C4         -1.6203   -1.9904    1.9855 C.ar      1 <0>        -0.1061
      6 C5         -2.6798   -2.6310    2.6147 C.ar      1 <0>        -0.0621
      7 C6         -2.5160   -3.8908    3.1524 C.ar      1 <0>        -0.1142
      8 C7         -1.2813   -4.5201    3.0667 C.ar      1 <0>         0.1524
      9 C8         -0.2293   -3.8829    2.4315 C.ar      1 <0>        -0.1199
     10 C9         -0.4024   -2.6211    1.8787 C.ar      1 <0>        -0.0593
     11 C10         0.7670   -2.0131    1.1430 C.3       1 <0>        -0.0123
     12 H1          0.7442   -2.3391    0.1032 H         1 <0>         0.1089
     13 C11         0.7122   -0.4866    1.1916 C.3       1 <0>        -0.0136
     14 C12         2.0498   -2.4815    1.7801 C.ar      1 <0>        -0.1081
     15 C13         2.3012   -2.2063    3.1113 C.ar      1 <0>        -0.1043
     16 C14         3.4779   -2.6360    3.6957 C.ar      1 <0>        -0.1112
     17 C15         4.4031   -3.3413    2.9491 C.ar      1 <0>        -0.1008
     18 C16         4.1514   -3.6173    1.6182 C.ar      1 <0>        -0.1125
     19 C17         2.9727   -3.1913    1.0349 C.ar      1 <0>        -0.1076
     20 O1         -1.1063   -5.7560    3.6044 O.3       1 <0>        -0.4812
     21 Br1        -3.9665   -4.7569    4.0020 Br        1 <0>        -0.0128
     22 H2          1.0047    1.8421    0.0024 H         1 <0>         0.1254
     23 H3         -0.5450    1.8259   -0.8730 H         1 <0>         0.1275
     24 H4         -0.5280    1.8163    0.9069 H         1 <0>         0.1223
     25 H5         -2.0112    0.1800   -0.5633 H         1 <0>         0.1416
     26 H6         -1.3996   -1.4928   -0.4729 H         1 <0>         0.1341
     27 H7         -1.3083    0.1166    2.0511 H         1 <0>         0.1014
     28 H8         -2.9185   -0.3767    1.4836 H         1 <0>         0.1184
     29 H9         -3.6391   -2.1395    2.6831 H         1 <0>         0.1444
     30 H10         0.7320   -4.3706    2.3653 H         1 <0>         0.1456
     31 H11         1.7252   -0.0844    1.2010 H         1 <0>         0.1427
     32 H12         0.1813   -0.1680    2.0887 H         1 <0>         0.1441
     33 H13         1.5783   -1.6553    3.6946 H         1 <0>         0.1217
     34 H14         3.6746   -2.4203    4.7355 H         1 <0>         0.1299
     35 H15         5.3228   -3.6764    3.4055 H         1 <0>         0.1305
     36 H16         4.8744   -4.1680    1.0347 H         1 <0>         0.1307
     37 H17         2.7743   -3.4102   -0.0039 H         1 <0>         0.1251
     38 H18        -1.2962   -6.4812    2.9935 H         1 <0>         0.4032
     39 H19         0.4798   -0.3270   -0.8260 H         1 <0>         0.4273
@<TRIPOS>BOND
     1    1    2 1
     2    1   22 1
     3    1   23 1
     4    1   24 1
     5    2   13 1
     6    2    3 1
     7    2   39 1
     8    3    4 1
     9    3   25 1
    10    3   26 1
    11    4    5 1
    12    4   27 1
    13    4   28 1
    14    5   10 ar
    15    5    6 ar
    16    6    7 ar
    17    6   29 1
    18    7    8 ar
    19    7   21 1
    20    8    9 ar
    21    8   20 1
    22    9   10 ar
    23    9   30 1
    24   10   11 1
    25   11   12 1
    26   11   13 1
    27   11   14 1
    28   13   31 1
    29   13   32 1
    30   14   19 ar
    31   14   15 ar
    32   15   16 ar
    33   15   33 1
    34   16   17 ar
    35   16   34 1
    36   17   18 ar
    37   17   35 1
    38   18   19 ar
    39   18   36 1
    40   19   37 1
    41   20   38 1
@<TRIPOS>MOLECULE
ZINC26172891
   41    43     0     0     0
SMALL
USER_CHARGES
(5R)-5-(4-azidophenyl)-8-iodo-3-methyl-1,2,4,5-tetrahydro-3-benzazepin-7-ol
@<TRIPOS>ATOM
      1 C1          5.4396    4.9567    3.1969 C.3       1 <0>        -0.0536
      2 N1          5.7772    3.9982    2.1361 N.4       1 <0>        -0.4004
      3 C2          5.2428    4.4348    0.8449 C.3       1 <0>        -0.0058
      4 C3          5.1163    3.2013   -0.0535 C.3       1 <0>        -0.1012
      5 C4          3.7359    2.6076    0.0490 C.ar      1 <0>        -0.1449
      6 C5          3.0690    2.3088   -1.1324 C.ar      1 <0>        -0.0298
      7 C6          1.8264    1.7111   -1.1034 C.ar      1 <0>        -0.1403
      8 C7          1.2385    1.4072    0.1168 C.ar      1 <0>         0.2069
      9 C8          1.8971    1.7220    1.2926 C.ar      1 <0>        -0.1973
     10 C9          3.1466    2.3281    1.2600 C.ar      1 <0>        -0.0316
     11 C10         3.7885    2.6684    2.5824 C.3       1 <0>        -0.0160
     12 H1          3.4596    3.6775    2.8713 H         1 <0>         0.1121
     13 C11         5.3128    2.6480    2.4796 C.3       1 <0>        -0.0122
     14 C12         3.3512    1.6633    3.6166 C.ar      1 <0>        -0.1220
     15 C13         3.6323    0.3160    3.4275 C.ar      1 <0>        -0.0617
     16 C14         3.2475   -0.6051    4.3565 C.ar      1 <0>        -0.1850
     17 C15         2.5473   -0.1823    5.5151 C.ar      1 <0>         0.1346
     18 C16         2.2633    1.1961    5.6907 C.ar      1 <0>        -0.0930
     19 C17         2.6661    2.0933    4.7461 C.ar      1 <0>        -0.0754
     20 N2          2.1627   -1.0660    6.4244 N.2       1 <0>        -0.3271
     21 N3          2.3908   -2.1570    6.2795 N.1       1 <0>         0.2760
     22 N4          2.6189   -3.2480    6.1346 N.1       1 <0>        -0.0961
     23 O1          0.0192    0.8082    0.1567 O.3       1 <0>        -0.4890
     24 I1          0.8309    1.2647   -2.8919 I         1 <0>        -0.0059
     25 H2          5.7981    5.9575    2.9144 H         1 <0>         0.1284
     26 H3          5.9195    4.6472    4.1371 H         1 <0>         0.1276
     27 H4          4.3484    4.9831    3.3335 H         1 <0>         0.1196
     28 H5          4.2571    4.8997    0.9943 H         1 <0>         0.1299
     29 H6          5.9285    5.1665    0.3927 H         1 <0>         0.1405
     30 H7          5.3032    3.4883   -1.0988 H         1 <0>         0.1167
     31 H8          5.8525    2.4450    0.2563 H         1 <0>         0.0994
     32 H9          3.5274    2.5460   -2.0810 H         1 <0>         0.1403
     33 H10         1.4382    1.4906    2.2425 H         1 <0>         0.1397
     34 H11         5.6259    1.9422    1.6962 H         1 <0>         0.1437
     35 H12         5.7491    2.3441    3.4426 H         1 <0>         0.1416
     36 H13         4.1618   -0.0031    2.5420 H         1 <0>         0.1283
     37 H14         3.4710   -1.6513    4.2087 H         1 <0>         0.1245
     38 H15         1.7306    1.5333    6.5676 H         1 <0>         0.1476
     39 H16         2.4517    3.1437    4.8770 H         1 <0>         0.1361
     40 H17        -0.4444    0.5685    1.1250 H         1 <0>         0.4457
     41 H18         6.8727    3.9614    2.0434 H         1 <0>         0.4494
@<TRIPOS>BOND
     1    1    2 1
     2    1   25 1
     3    1   26 1
     4    1   27 1
     5    2   13 1
     6    2    3 1
     7    2   41 1
     8    3    4 1
     9    3   28 1
    10    3   29 1
    11    4    5 1
    12    4   30 1
    13    4   31 1
    14    5   10 ar
    15    5    6 ar
    16    6    7 ar
    17    6   32 1
    18    7    8 ar
    19    7   24 1
    20    8    9 ar
    21    8   23 1
    22    9   10 ar
    23    9   33 1
    24   10   11 1
    25   11   12 1
    26   11   13 1
    27   11   14 1
    28   13   34 1
    29   13   35 1
    30   14   19 ar
    31   14   15 ar
    32   15   16 ar
    33   15   36 1
    34   16   17 ar
    35   16   37 1
    36   17   18 ar
    37   17   20 1
    38   18   19 ar
    39   18   38 1
    40   19   39 1
    41   20   21 2
    42   21   22 2
    43   23   40 1
@<TRIPOS>MOLECULE
ZINC20639354
   45    47     0     0     0
SMALL
USER_CHARGES
4-[2-(2-benzylphenoxy)ethyl]morpholine
@<TRIPOS>ATOM
      1 C1         -2.6566    2.5964   -3.5169 C.ar      1 <0>        -0.1255
      2 C2         -1.6394    3.3979   -3.0335 C.ar      1 <0>        -0.1213
      3 C3         -0.8624    2.9655   -1.9751 C.ar      1 <0>        -0.1166
      4 C4         -1.1024    1.7314   -1.4004 C.ar      1 <0>        -0.0726
      5 C5         -2.1159    0.9274   -1.8875 C.ar      1 <0>        -0.1053
      6 C6         -2.8963    1.3621   -2.9425 C.ar      1 <0>        -0.1227
      7 C7         -0.2551    1.2599   -0.2468 C.3       1 <0>        -0.0348
      8 C8         -0.8804    1.7042    1.0504 C.ar      1 <0>        -0.1076
      9 C9         -0.4601    2.8728    1.6560 C.ar      1 <0>        -0.0776
     10 C10        -1.0367    3.2834    2.8435 C.ar      1 <0>        -0.1574
     11 C11        -2.0278    2.5206    3.4336 C.ar      1 <0>        -0.0830
     12 C12        -2.4478    1.3489    2.8349 C.ar      1 <0>        -0.2108
     13 C13        -1.8744    0.9373    1.6403 C.ar      1 <0>         0.1387
     14 O1         -2.2855   -0.2154    1.0495 O.3       1 <0>        -0.2916
     15 C14        -3.3130   -0.9540    1.7134 C.3       1 <0>         0.0637
     16 C15        -3.6410   -2.2110    0.9051 C.3       1 <0>         0.0537
     17 N1         -2.4727   -3.1013    0.8886 N.3       1 <0>        -0.5281
     18 C16        -2.5617   -4.0669   -0.2164 C.3       1 <0>         0.0176
     19 C17        -1.2996   -4.9333   -0.2328 C.3       1 <0>         0.0613
     20 O2         -1.1517   -5.5753    1.0366 O.3       1 <0>        -0.3848
     21 C18        -1.0613   -4.6644    2.1354 C.3       1 <0>         0.0622
     22 C19        -2.3210   -3.7953    2.1758 C.3       1 <0>         0.0135
     23 H1         -3.2639    2.9343   -4.3436 H         1 <0>         0.1186
     24 H2         -1.4519    4.3621   -3.4825 H         1 <0>         0.1198
     25 H3         -0.0677    3.5918   -1.5974 H         1 <0>         0.1188
     26 H4         -2.3005   -0.0386   -1.4413 H         1 <0>         0.1262
     27 H5         -3.6907    0.7357   -3.3204 H         1 <0>         0.1182
     28 H6         -0.1892    0.1620   -0.2650 H         1 <0>         0.0885
     29 H7          0.7539    1.6893   -0.3334 H         1 <0>         0.0790
     30 H8          0.3166    3.4681    1.1991 H         1 <0>         0.1268
     31 H9         -0.7097    4.1993    3.3132 H         1 <0>         0.1228
     32 H10        -2.4736    2.8412    4.3636 H         1 <0>         0.1225
     33 H11        -3.2216    0.7533    3.2964 H         1 <0>         0.1245
     34 H12        -2.9668   -1.2432    2.7167 H         1 <0>         0.0624
     35 H13        -4.2143   -0.3297    1.8023 H         1 <0>         0.0666
     36 H14        -4.4926   -2.7321    1.3670 H         1 <0>         0.0609
     37 H15        -3.9001   -1.9270   -0.1255 H         1 <0>         0.0886
     38 H16        -3.4457   -4.7060   -0.0745 H         1 <0>         0.0432
     39 H17        -2.6497   -3.5258   -1.1700 H         1 <0>         0.0890
     40 H18        -1.3873   -5.6939   -1.0226 H         1 <0>         0.1000
     41 H19        -0.4223   -4.2996   -0.4298 H         1 <0>         0.0620
     42 H20        -0.9737   -5.2303    3.0746 H         1 <0>         0.0994
     43 H21        -0.1757   -4.0242    2.0091 H         1 <0>         0.0615
     44 H22        -2.2317   -3.0541    2.9837 H         1 <0>         0.0855
     45 H23        -3.2011   -4.4300    2.3561 H         1 <0>         0.0442
@<TRIPOS>BOND
     1    1    6 ar
     2    1    2 ar
     3    1   23 1
     4    2    3 ar
     5    2   24 1
     6    3    4 ar
     7    3   25 1
     8    4    5 ar
     9    4    7 1
    10    5    6 ar
    11    5   26 1
    12    6   27 1
    13    7    8 1
    14    7   28 1
    15    7   29 1
    16    8   13 ar
    17    8    9 ar
    18    9   10 ar
    19    9   30 1
    20   10   11 ar
    21   10   31 1
    22   11   12 ar
    23   11   32 1
    24   12   13 ar
    25   12   33 1
    26   13   14 1
    27   14   15 1
    28   15   16 1
    29   15   34 1
    30   15   35 1
    31   16   17 1
    32   16   36 1
    33   16   37 1
    34   17   22 1
    35   17   18 1
    36   18   19 1
    37   18   38 1
    38   18   39 1
    39   19   20 1
    40   19   40 1
    41   19   41 1
    42   20   21 1
    43   21   22 1
    44   21   42 1
    45   21   43 1
    46   22   44 1
    47   22   45 1
@<TRIPOS>MOLECULE
ZINC00001407
   47    48     0     0     0
SMALL
USER_CHARGES
N-[2-(2-benzylphenoxy)ethyl]-N-ethyl-ethanamine
@<TRIPOS>ATOM
      1 C1         -1.5546   -0.5825    0.7975 C.3       1 <0>        -0.1867
      2 C2         -1.8839    0.8871    1.0675 C.3       1 <0>        -0.0158
      3 C3          0.0997    1.1697    2.4268 C.3       1 <0>        -0.0124
      4 C4         -0.6315    1.6109    3.6963 C.3       1 <0>        -0.1888
      5 C5          0.1988    1.5746    0.0417 C.3       1 <0>        -0.0024
      6 C6         -0.5038    2.2996   -1.1079 C.3       1 <0>         0.0251
      7 O1         -0.6095    3.6910   -0.7997 O.3       1 <0>        -0.3240
      8 C7         -1.2132    4.4835   -1.7240 C.ar      1 <0>         0.1196
      9 C8         -1.6941    3.9333   -2.9035 C.ar      1 <0>        -0.2008
     10 C9         -2.3073    4.7409   -3.8413 C.ar      1 <0>        -0.0811
     11 C10        -2.4425    6.0968   -3.6053 C.ar      1 <0>        -0.1370
     12 C11        -1.9647    6.6474   -2.4307 C.ar      1 <0>        -0.0753
     13 C12        -1.3549    5.8430   -1.4873 C.ar      1 <0>        -0.0975
     14 C13        -0.8393    6.4428   -0.2046 C.3       1 <0>        -0.0313
     15 C14         0.6243    6.7686   -0.3551 C.ar      1 <0>        -0.0810
     16 C15         1.5799    5.8269   -0.0217 C.ar      1 <0>        -0.1130
     17 C16         2.9224    6.1241   -0.1643 C.ar      1 <0>        -0.1222
     18 C17         3.3095    7.3664   -0.6308 C.ar      1 <0>        -0.1189
     19 C18         2.3541    8.3101   -0.9587 C.ar      1 <0>        -0.1131
     20 C19         1.0115    8.0111   -0.8211 C.ar      1 <0>        -0.1127
     21 H1         -1.0170   -0.9970    1.6503 H         1 <0>         0.0822
     22 H2         -2.4789   -1.1398    0.6449 H         1 <0>         0.1071
     23 H3         -0.9335   -0.6577   -0.0950 H         1 <0>         0.0793
     24 H4         -2.4891    0.9638    1.9707 H         1 <0>         0.1317
     25 H5         -2.4382    1.2963    0.2228 H         1 <0>         0.1264
     26 H6          0.1628    0.0818    2.4033 H         1 <0>         0.1333
     27 H7          1.1045    1.5922    2.4210 H         1 <0>         0.1295
     28 H8         -0.6915    2.6989    3.7215 H         1 <0>         0.0809
     29 H9         -1.6376    1.1913    3.7004 H         1 <0>         0.0793
     30 H10        -0.0865    1.2566    4.5712 H         1 <0>         0.1069
     31 H11         0.3590    0.5314   -0.2306 H         1 <0>         0.1515
     32 H12         1.1596    2.0504    0.2382 H         1 <0>         0.1402
     33 H13         0.0734    2.1732   -2.0239 H         1 <0>         0.1078
     34 H14        -1.5008    1.8813   -1.2460 H         1 <0>         0.0856
     35 H15        -1.5893    2.8743   -3.0880 H         1 <0>         0.1266
     36 H16        -2.6817    4.3131   -4.7596 H         1 <0>         0.1305
     37 H17        -2.9226    6.7265   -4.3397 H         1 <0>         0.1314
     38 H18        -2.0719    7.7065   -2.2486 H         1 <0>         0.1345
     39 H19        -1.3934    7.3546    0.0186 H         1 <0>         0.0853
     40 H20        -0.9710    5.7294    0.6088 H         1 <0>         0.0775
     41 H21         1.2774    4.8578    0.3466 H         1 <0>         0.1132
     42 H22         3.6688    5.3869    0.0923 H         1 <0>         0.1194
     43 H23         4.3585    7.5999   -0.7386 H         1 <0>         0.1236
     44 H24         2.6566    9.2809   -1.3228 H         1 <0>         0.1253
     45 H25         0.2651    8.7484   -1.0773 H         1 <0>         0.1223
     46 N1         -0.6442    1.6706    1.2520 N.4       1 <0>        -0.3970
     47 H26        -0.8919    2.6546    1.4088 H         1 <0>         0.4348
@<TRIPOS>BOND
     1    1    2 1
     2    1   21 1
     3    1   22 1
     4    1   23 1
     5    2   24 1
     6    2   25 1
     7    2   46 1
     8    3    4 1
     9    3   26 1
    10    3   27 1
    11    3   46 1
    12    4   28 1
    13    4   29 1
    14    4   30 1
    15    5    6 1
    16    5   31 1
    17    5   32 1
    18    5   46 1
    19    6    7 1
    20    6   33 1
    21    6   34 1
    22    7    8 1
    23    8   13 ar
    24    8    9 ar
    25    9   10 ar
    26    9   35 1
    27   10   11 ar
    28   10   36 1
    29   11   12 ar
    30   11   37 1
    31   12   13 ar
    32   12   38 1
    33   13   14 1
    34   14   15 1
    35   14   39 1
    36   14   40 1
    37   15   20 ar
    38   15   16 ar
    39   16   17 ar
    40   16   41 1
    41   17   18 ar
    42   17   42 1
    43   18   19 ar
    44   18   43 1
    45   19   20 ar
    46   19   44 1
    47   20   45 1
    48   46   47 1
@<TRIPOS>MOLECULE
ZINC00057058
   26    27     0     0     0
SMALL
USER_CHARGES

@<TRIPOS>ATOM
      1 C1         -0.0168    1.3880    0.0097 C.ar      1 <0>        -0.1182
      2 C2          1.1587    2.1055    0.0023 C.ar      1 <0>        -0.1024
      3 C3          2.3795    1.4398   -0.0129 C.ar      1 <0>         0.0862
      4 C4          2.4019    0.0334   -0.0206 C.ar      1 <0>        -0.0842
      5 C5          1.2039   -0.6838   -0.0130 C.ar      1 <0>        -0.1143
      6 C6          0.0021   -0.0041    0.0020 C.ar      1 <0>         0.0953
      7 O1         -1.1679   -0.6972    0.0094 O.3       1 <0>        -0.4959
      8 C7          3.8159   -0.3493   -0.0361 C.2       1 <0>        -0.2101
      9 C8          4.5307    0.7870   -0.0369 C.2       1 <0>         0.0918
     10 N1          3.6908    1.8667   -0.0231 N.pl3     1 <0>        -0.5866
     11 H1          3.9751    2.7941   -0.0208 H         1 <0>         0.4248
     12 C9          4.3642   -1.7530   -0.0489 C.3       1 <0>        -0.0616
     13 C10         4.4190   -2.2661   -1.4892 C.3       1 <0>        -0.0080
     14 N2          4.9535   -3.6343   -1.5017 N.4       1 <0>        -0.6389
     15 H2         -0.9621    1.9101    0.0260 H         1 <0>         0.1389
     16 H3          1.1325    3.1852    0.0080 H         1 <0>         0.1315
     17 H4          1.2172   -1.7637   -0.0192 H         1 <0>         0.1256
     18 H5         -1.5147   -0.8930   -0.8718 H         1 <0>         0.3922
     19 H6          5.6093    0.8408   -0.0472 H         1 <0>         0.1750
     20 H7          5.3681   -1.7548    0.3759 H         1 <0>         0.0927
     21 H8          3.7180   -2.4009    0.5433 H         1 <0>         0.0925
     22 H9          3.4152   -2.2643   -1.9140 H         1 <0>         0.1329
     23 H10         5.0652   -1.6182   -2.0814 H         1 <0>         0.1331
     24 H11         5.8827   -3.6360   -1.1085 H         1 <0>         0.4347
     25 H12         4.3553   -4.2341   -0.9535 H         1 <0>         0.4353
     26 H13         4.9896   -3.9727   -2.4515 H         1 <0>         0.4379
@<TRIPOS>BOND
     1    1    6 ar
     2    1    2 ar
     3    1   15 1
     4    2    3 ar
     5    2   16 1
     6    3   10 1
     7    3    4 ar
     8    4    5 ar
     9    4    8 1
    10    5    6 ar
    11    5   17 1
    12    6    7 1
    13    7   18 1
    14    8    9 2
    15    8   12 1
    16    9   10 1
    17    9   19 1
    18   10   11 1
    19   12   13 1
    20   12   20 1
    21   12   21 1
    22   13   14 1
    23   13   22 1
    24   13   23 1
    25   14   24 1
    26   14   25 1
    27   14   26 1
@<TRIPOS>MOLECULE
ZINC29327451
   40    40     0     0     0
SMALL
USER_CHARGES
3-[2-(dipropylamino)ethyl]phenol
@<TRIPOS>ATOM
      1 C1          1.2201    2.6070   -5.6713 C.3       1 <0>        -0.1579
      2 C2          1.9362    3.6594   -4.8226 C.3       1 <0>        -0.1520
      3 C3          3.4476    3.5372   -5.0269 C.3       1 <0>        -0.0164
      4 N1          4.1367    4.5275   -4.1888 N.4       1 <0>        -0.3991
      5 C4          3.7772    5.8952   -4.5864 C.3       1 <0>        -0.0147
      6 C5          4.4302    6.2239   -5.9304 C.3       1 <0>        -0.1486
      7 C6          4.0549    7.6480   -6.3450 C.3       1 <0>        -0.1583
      8 C7          3.8528    4.3012   -2.7653 C.3       1 <0>        -0.0088
      9 C8          4.4629    2.9676   -2.3293 C.3       1 <0>        -0.1004
     10 C9          4.1717    2.7355   -0.8690 C.ar      1 <0>        -0.0641
     11 C10         5.0553    3.1904    0.0925 C.ar      1 <0>        -0.1558
     12 C11         4.7907    2.9794    1.4329 C.ar      1 <0>        -0.0695
     13 C12         3.6399    2.3174    1.8152 C.ar      1 <0>        -0.1511
     14 C13         2.7545    1.8555    0.8525 C.ar      1 <0>         0.1663
     15 C14         3.0221    2.0689   -0.4922 C.ar      1 <0>        -0.2102
     16 O1          1.6242    1.1999    1.2258 O.3       1 <0>        -0.5045
     17 H1          0.1335    2.6949   -5.5244 H         1 <0>         0.0766
     18 H2          1.5513    1.6032   -5.3669 H         1 <0>         0.0667
     19 H3          1.4607    2.7663   -6.7328 H         1 <0>         0.0676
     20 H4          1.6050    4.6632   -5.1270 H         1 <0>         0.0854
     21 H5          1.6956    3.5001   -3.7611 H         1 <0>         0.0845
     22 H6          3.7752    2.5259   -4.7441 H         1 <0>         0.1316
     23 H7          3.6906    3.7190   -6.0842 H         1 <0>         0.1322
     24 H8          2.6841    5.9742   -4.6808 H         1 <0>         0.1291
     25 H9          4.1316    6.6040   -3.8235 H         1 <0>         0.1309
     26 H10         5.5233    6.1456   -5.8358 H         1 <0>         0.0868
     27 H11         4.0764    5.5147   -6.6932 H         1 <0>         0.0845
     28 H12         4.5244    7.8843   -7.3113 H         1 <0>         0.0779
     29 H13         4.4087    8.3572   -5.5822 H         1 <0>         0.0677
     30 H14         2.9618    7.7263   -6.4395 H         1 <0>         0.0663
     31 H15         4.2900    5.1165   -2.1701 H         1 <0>         0.1334
     32 H16         2.7644    4.2754   -2.6080 H         1 <0>         0.1303
     33 H17         4.0257    2.1524   -2.9245 H         1 <0>         0.0938
     34 H18         5.5513    2.9934   -2.4866 H         1 <0>         0.0976
     35 H19         5.9534    3.7117   -0.2042 H         1 <0>         0.1254
     36 H20         5.4822    3.3360    2.1820 H         1 <0>         0.1358
     37 H21         3.4316    2.1565    2.8627 H         1 <0>         0.1350
     38 H22         2.3323    1.7138   -1.2435 H         1 <0>         0.1261
     39 H23         0.9227    0.8340    0.4615 H         1 <0>         0.4378
     40 H24         5.2191    4.4048   -4.3414 H         1 <0>         0.4421
@<TRIPOS>BOND
     1    1    2 1
     2    1   17 1
     3    1   18 1
     4    1   19 1
     5    2    3 1
     6    2   20 1
     7    2   21 1
     8    3    4 1
     9    3   22 1
    10    3   23 1
    11    4    5 1
    12    4    8 1
    13    4   40 1
    14    5    6 1
    15    5   24 1
    16    5   25 1
    17    6    7 1
    18    6   26 1
    19    6   27 1
    20    7   28 1
    21    7   29 1
    22    7   30 1
    23    8    9 1
    24    8   31 1
    25    8   32 1
    26    9   10 1
    27    9   33 1
    28    9   34 1
    29   10   15 ar
    30   10   11 ar
    31   11   12 ar
    32   11   35 1
    33   12   13 ar
    34   12   36 1
    35   13   14 ar
    36   13   37 1
    37   14   15 ar
    38   14   16 1
    39   15   38 1
    40   16   39 1
@<TRIPOS>MOLECULE
ZINC19796155
   42    45     0     0     0
SMALL
USER_CHARGES

@<TRIPOS>ATOM
      1 C1         -0.0670    1.4396   -0.3852 C.3       1 <0>         0.0243
      2 N1         -0.0229   -0.0169   -0.1987 N.3       1 <0>        -0.5428
      3 C2          0.3808   -0.6943   -1.4380 C.3       1 <0>         0.0399
      4 C3          0.2401   -2.2095   -1.2572 C.3       1 <0>         0.1263
      5 N2          0.9912   -2.6085   -0.0572 N.pl3     1 <0>        -0.5953
      6 C4          0.7394   -1.8803    1.1955 C.3       1 <0>         0.1122
      7 C5          0.8604   -0.3781    0.9181 C.3       1 <0>         0.0393
      8 C6          1.9051   -3.6365   -0.1053 C.2       1 <0>         0.5098
      9 N3          2.1670   -4.1290   -1.2643 N.2       1 <0>        -0.6041
     10 C7          3.0130   -5.1503   -1.5719 C.ar      1 <0>         0.1655
     11 C8          2.6280   -6.0848   -2.5372 C.ar      1 <0>        -0.1058
     12 C9          3.4872   -7.1047   -2.8991 C.ar      1 <0>        -0.0230
     13 C10         4.7348   -7.2069   -2.3106 C.ar      1 <0>        -0.1209
     14 C11         5.1212   -6.2977   -1.3402 C.ar      1 <0>        -0.1017
     15 C12         4.2618   -5.2835   -0.9546 C.ar      1 <0>         0.1117
     16 N4          4.6314   -4.4326    0.1003 N.pl3     1 <0>        -0.7261
     17 C13         3.8434   -4.4184    1.2519 C.ar      1 <0>         0.2140
     18 C14         2.4943   -4.0640    1.1729 C.ar      1 <0>        -0.1453
     19 C15         1.7072   -4.1133    2.3240 C.ar      1 <0>        -0.0723
     20 C16         2.2727   -4.4729    3.5311 C.ar      1 <0>        -0.1389
     21 C17         3.6189   -4.7825    3.6069 C.ar      1 <0>        -0.0765
     22 C18         4.3974   -4.7629    2.4751 C.ar      1 <0>        -0.1433
     23 Cl1         2.9987   -8.2627   -4.0966 Cl        1 <0>        -0.0679
     24 H1          0.9359    1.8090   -0.5992 H         1 <0>         0.0255
     25 H2         -0.7279    1.6794   -1.2181 H         1 <0>         0.0711
     26 H3         -0.4416    1.9111    0.5233 H         1 <0>         0.0709
     27 H4         -0.2581   -0.3649   -2.2574 H         1 <0>         0.0878
     28 H5          1.4186   -0.4499   -1.6647 H         1 <0>         0.0378
     29 H6         -0.8117   -2.4673   -1.1334 H         1 <0>         0.0720
     30 H7          0.6453   -2.7216   -2.1299 H         1 <0>         0.1060
     31 H8         -0.2645   -2.1065    1.5551 H         1 <0>         0.0792
     32 H9          1.4746   -2.1748    1.9444 H         1 <0>         0.0984
     33 H10         1.8915   -0.1381    0.6586 H         1 <0>         0.0379
     34 H11         0.5693    0.1807    1.8075 H         1 <0>         0.0892
     35 H12         1.6558   -6.0097   -3.0016 H         1 <0>         0.1375
     36 H13         5.4083   -7.9971   -2.6081 H         1 <0>         0.1357
     37 H14         6.0961   -6.3802   -0.8829 H         1 <0>         0.1326
     38 H15         5.4169   -3.8679    0.0299 H         1 <0>         0.4097
     39 H16         0.6563   -3.8699    2.2709 H         1 <0>         0.1344
     40 H17         1.6613   -4.5124    4.4205 H         1 <0>         0.1323
     41 H18         4.0571   -5.0467    4.5580 H         1 <0>         0.1317
     42 H19         5.4473   -5.0071    2.5424 H         1 <0>         0.1313
@<TRIPOS>BOND
     1    1    2 1
     2    1   24 1
     3    1   25 1
     4    1   26 1
     5    2    7 1
     6    2    3 1
     7    3    4 1
     8    3   27 1
     9    3   28 1
    10    4    5 1
    11    4   29 1
    12    4   30 1
    13    5    6 1
    14    5    8 1
    15    6    7 1
    16    6   31 1
    17    6   32 1
    18    7   33 1
    19    7   34 1
    20    8   18 1
    21    8    9 2
    22    9   10 1
    23   10   15 ar
    24   10   11 ar
    25   11   12 ar
    26   11   35 1
    27   12   13 ar
    28   12   23 1
    29   13   14 ar
    30   13   36 1
    31   14   15 ar
    32   14   37 1
    33   15   16 1
    34   16   17 1
    35   16   38 1
    36   17   22 ar
    37   17   18 ar
    38   18   19 ar
    39   19   20 ar
    40   19   39 1
    41   20   21 ar
    42   20   40 1
    43   21   22 ar
    44   21   41 1
    45   22   42 1
@<TRIPOS>MOLECULE
ZINC19796155
   44    47     0     0     0
SMALL
USER_CHARGES

@<TRIPOS>ATOM
      1 C1         -1.5703   -0.0018   -1.9302 C.3       1 <0>        -0.0497
      2 N1         -0.7527   -0.7171   -0.9414 N.4       1 <0>        -0.3854
      3 C2         -1.0498   -2.1535   -1.0104 C.3       1 <0>        -0.0252
      4 C3         -0.2839   -2.8861    0.0962 C.3       1 <0>         0.1048
      5 N2          1.1441   -2.5548   -0.0269 N.pl3     1 <0>        -0.7052
      6 C4          1.5202   -1.1363   -0.1296 C.3       1 <0>         0.1049
      7 C5          0.6692   -0.4862   -1.2256 C.3       1 <0>        -0.0251
      8 C6          2.0831   -3.5253   -0.0448 C.2       1 <0>         0.6309
      9 C7          2.6112   -3.9094    1.2074 C.ar      1 <0>        -0.2438
     10 C8          2.0495   -3.1929    2.2728 C.ar      1 <0>         0.0055
     11 C9          2.4602   -3.4528    3.5483 C.ar      1 <0>        -0.1817
     12 C10         3.4265   -4.4148    3.8208 C.ar      1 <0>         0.0489
     13 C11         4.0101   -5.1439    2.8276 C.ar      1 <0>        -0.2233
     14 C12         3.6302   -4.9235    1.4921 C.ar      1 <0>         0.3343
     15 N3          4.2865   -5.7106    0.6358 N.pl3     1 <0>        -0.6131
     16 C13         4.1767   -5.7728   -0.7271 C.ar      1 <0>         0.1589
     17 C14         5.0408   -6.7320   -1.2562 C.ar      1 <0>        -0.1157
     18 C15         5.0795   -6.9478   -2.6222 C.ar      1 <0>        -0.0495
     19 C16         4.2642   -6.2154   -3.4643 C.ar      1 <0>        -0.0338
     20 C17         3.4016   -5.2585   -2.9468 C.ar      1 <0>        -0.0846
     21 C18         3.3520   -5.0321   -1.5848 C.ar      1 <0>         0.0769
     22 N4          2.4115   -4.0290   -1.2719 N.pl3     1 <0>        -0.5773
     23 Cl1         4.3195   -6.4929   -5.1771 Cl        1 <0>        -0.0159
     24 H1         -1.3348   -0.3678   -2.9295 H         1 <0>         0.1246
     25 H2         -2.6262   -0.1724   -1.7203 H         1 <0>         0.1321
     26 H3         -1.3566    1.0656   -1.8745 H         1 <0>         0.1321
     27 H4         -2.1201   -2.3101   -0.8766 H         1 <0>         0.1569
     28 H5         -0.7442   -2.5415   -1.9820 H         1 <0>         0.1344
     29 H6         -0.6518   -2.5648    1.0707 H         1 <0>         0.1155
     30 H7         -0.4211   -3.9618   -0.0138 H         1 <0>         0.1302
     31 H8          1.3345   -0.6383    0.8220 H         1 <0>         0.1155
     32 H9          2.5758   -1.0551   -0.3891 H         1 <0>         0.1302
     33 H10         0.9228   -0.9247   -2.1907 H         1 <0>         0.1344
     34 H11         0.8655    0.5856   -1.2504 H         1 <0>         0.1569
     35 H12         1.2975   -2.4405    2.0860 H         1 <0>         0.1502
     36 H13         2.0243   -2.8976    4.3657 H         1 <0>         0.1496
     37 H14         3.7223   -4.5886    4.8448 H         1 <0>         0.1558
     38 H15         4.7590   -5.8851    3.0650 H         1 <0>         0.1623
     39 H16         5.6790   -7.3052   -0.6001 H         1 <0>         0.1677
     40 H17         5.7487   -7.6901   -3.0316 H         1 <0>         0.1653
     41 H18         2.7675   -4.6896   -3.6107 H         1 <0>         0.1565
     42 H19         1.9393   -3.6432   -2.0263 H         1 <0>         0.4255
     43 H20         4.9278   -6.3202    1.0333 H         1 <0>         0.4372
     44 H21        -0.9695   -0.3754   -0.0171 H         1 <0>         0.4310
@<TRIPOS>BOND
     1    1    2 1
     2    1   24 1
     3    1   25 1
     4    1   26 1
     5    2    7 1
     6    2    3 1
     7    2   44 1
     8    3    4 1
     9    3   27 1
    10    3   28 1
    11    4    5 1
    12    4   29 1
    13    4   30 1
    14    5    6 1
    15    5    8 1
    16    6    7 1
    17    6   31 1
    18    6   32 1
    19    7   33 1
    20    7   34 1
    21    8   22 1
    22    8    9 2
    23    9   14 ar
    24    9   10 ar
    25   10   11 ar
    26   10   35 1
    27   11   12 ar
    28   11   36 1
    29   12   13 ar
    30   12   37 1
    31   13   14 ar
    32   13   38 1
    33   14   15 2
    34   15   16 1
    35   15   43 1
    36   16   21 ar
    37   16   17 ar
    38   17   18 ar
    39   17   39 1
    40   18   19 ar
    41   18   40 1
    42   19   20 ar
    43   19   23 1
    44   20   21 ar
    45   20   41 1
    46   21   22 1
    47   22   42 1
@<TRIPOS>MOLECULE
ZINC19796155
   43    46     0     0     0
SMALL
USER_CHARGES

@<TRIPOS>ATOM
      1 C1         -0.0523    1.4387   -0.3863 C.3       1 <0>        -0.0469
      2 N1         -0.0147   -0.0168   -0.1908 N.4       1 <0>        -0.3852
      3 C2          0.4863   -0.6601   -1.4120 C.3       1 <0>        -0.0213
      4 C3          0.4181   -2.1823   -1.2510 C.3       1 <0>         0.1002
      5 N2          1.1441   -2.5548   -0.0269 N.pl3     1 <0>        -0.6180
      6 C4          0.8178   -1.8405    1.2170 C.3       1 <0>         0.0860
      7 C5          0.8671   -0.3344    0.9395 C.3       1 <0>        -0.0221
      8 C6          2.1017   -3.5432   -0.0451 C.2       1 <0>         0.5019
      9 N3          2.4234   -4.0210   -1.1951 N.2       1 <0>        -0.5760
     10 C7          3.3217   -5.0050   -1.4750 C.ar      1 <0>         0.1390
     11 C8          3.0096   -5.9522   -2.4541 C.ar      1 <0>        -0.0932
     12 C9          3.9229   -6.9340   -2.7877 C.ar      1 <0>        -0.0267
     13 C10         5.1529   -6.9852   -2.1572 C.ar      1 <0>        -0.1032
     14 C11         5.4673   -6.0631   -1.1730 C.ar      1 <0>        -0.1031
     15 C12         4.5533   -5.0871   -0.8155 C.ar      1 <0>         0.1235
     16 N4          4.8505   -4.2243    0.2524 N.pl3     1 <0>        -0.7273
     17 C13         4.0239   -4.2464    1.3765 C.ar      1 <0>         0.2173
     18 C14         2.6645   -3.9489    1.2520 C.ar      1 <0>        -0.1537
     19 C15         1.8414   -4.0345    2.3754 C.ar      1 <0>        -0.0841
     20 C16         2.3802   -4.3733    3.6007 C.ar      1 <0>        -0.1334
     21 C17         3.7349   -4.6261    3.7220 C.ar      1 <0>        -0.0692
     22 C18         4.5500   -4.5705    2.6174 C.ar      1 <0>        -0.1369
     23 Cl1         3.5248   -8.1083   -4.0027 Cl        1 <0>        -0.0551
     24 H1          0.9534    1.8033   -0.5956 H         1 <0>         0.1211
     25 H2         -0.7066    1.6758   -1.2253 H         1 <0>         0.1256
     26 H3         -0.4316    1.9169    0.5167 H         1 <0>         0.1252
     27 H4         -0.1269   -0.3565   -2.2605 H         1 <0>         0.1425
     28 H5          1.5196   -0.3587   -1.5839 H         1 <0>         0.1315
     29 H6         -0.6226   -2.4957   -1.1694 H         1 <0>         0.0898
     30 H7          0.8819   -2.6629   -2.1125 H         1 <0>         0.1431
     31 H8         -0.1827   -2.1194    1.5479 H         1 <0>         0.0960
     32 H9          1.5457   -2.0950    1.9873 H         1 <0>         0.1385
     33 H10         1.8889   -0.0428    0.6965 H         1 <0>         0.1320
     34 H11         0.5345    0.2092    1.8238 H         1 <0>         0.1439
     35 H12         2.0515   -5.9169   -2.9512 H         1 <0>         0.1396
     36 H13         5.8689   -7.7454   -2.4325 H         1 <0>         0.1422
     37 H14         6.4287   -6.1057   -0.6827 H         1 <0>         0.1382
     38 H15         5.6134   -3.6267    0.2096 H         1 <0>         0.4129
     39 H16         0.7836   -3.8354    2.2868 H         1 <0>         0.1314
     40 H17         1.7411   -4.4409    4.4686 H         1 <0>         0.1357
     41 H18         4.1512   -4.8742    4.6872 H         1 <0>         0.1370
     42 H19         5.6063   -4.7705    2.7202 H         1 <0>         0.1363
     43 H20        -0.9456   -0.3526    0.0057 H         1 <0>         0.4250
@<TRIPOS>BOND
     1    1    2 1
     2    1   24 1
     3    1   25 1
     4    1   26 1
     5    2    7 1
     6    2    3 1
     7    2   43 1
     8    3    4 1
     9    3   27 1
    10    3   28 1
    11    4    5 1
    12    4   29 1
    13    4   30 1
    14    5    6 1
    15    5    8 1
    16    6    7 1
    17    6   31 1
    18    6   32 1
    19    7   33 1
    20    7   34 1
    21    8   18 1
    22    8    9 2
    23    9   10 1
    24   10   15 ar
    25   10   11 ar
    26   11   12 ar
    27   11   35 1
    28   12   13 ar
    29   12   23 1
    30   13   14 ar
    31   13   36 1
    32   14   15 ar
    33   14   37 1
    34   15   16 1
    35   16   17 1
    36   16   38 1
    37   17   22 ar
    38   17   18 ar
    39   18   19 ar
    40   19   20 ar
    41   19   39 1
    42   20   21 ar
    43   20   40 1
    44   21   22 ar
    45   21   41 1
    46   22   42 1
@<TRIPOS>MOLECULE
ZINC49615549
   51    54     0     0     0
SMALL
USER_CHARGES

@<TRIPOS>ATOM
      1 C1         -0.0184    1.5028    0.0103 C.3       1 <0>        -0.1534
      2 C2          0.0021   -0.0041    0.0020 C.2       1 <0>         0.0143
      3 C3          0.0056   -0.7323   -1.2582 C.ar      1 <0>        -0.0947
      4 C4         -0.0080   -0.2199   -2.5774 C.ar      1 <0>        -0.0550
      5 C5         -0.0020   -1.0582   -3.6487 C.ar      1 <0>        -0.0440
      6 C6          0.0175   -2.4386   -3.4904 C.ar      1 <0>        -0.0805
      7 C7          0.0317   -2.9769   -2.2193 C.ar      1 <0>        -0.0682
      8 C8          0.0258   -2.1375   -1.1257 C.ar      1 <0>        -0.1194
      9 S1          0.0386   -2.3909    0.6302 S.3       1 <0>         0.1545
     10 C9          0.0228   -0.6874    1.1554 C.2       1 <0>        -0.6584
     11 S2          0.0299   -0.0528    2.7992 S.o2      1 <0>         2.6347
     12 O1          1.3877   -0.0235    3.2173 O.2       1 <0>        -1.0137
     13 O2         -0.7895    1.1081    2.7899 O.2       1 <0>        -1.0123
     14 N1         -0.7363   -1.1654    3.7569 N.2       1 <0>        -1.0871
     15 C10        -0.8814   -0.9266    5.1279 C.ar      1 <0>         0.2629
     16 C11        -0.3878    0.2461    5.6844 C.ar      1 <0>        -0.2180
     17 C12        -0.5298    0.4843    7.0388 C.ar      1 <0>        -0.1367
     18 C13        -1.1648   -0.4458    7.8445 C.ar      1 <0>         0.0200
     19 C14        -1.6618   -1.6232    7.2902 C.ar      1 <0>         0.1518
     20 C15        -1.5237   -1.8593    5.9306 C.ar      1 <0>        -0.1502
     21 N2         -2.3038   -2.5642    8.1032 N.pl3     1 <0>        -0.6580
     22 C16        -3.7574   -2.5082    8.3222 C.3       1 <0>         0.1230
     23 C17        -4.3437   -3.8971    8.0482 C.3       1 <0>        -0.0259
     24 N3         -3.6449   -4.8931    8.8701 N.4       1 <0>        -0.5004
     25 C18        -2.2350   -4.9731    8.4679 C.3       1 <0>        -0.0255
     26 C19        -1.5450   -3.6409    8.7581 C.3       1 <0>         0.1225
     27 O3         -1.3030   -0.2099    9.1778 O.3       1 <0>        -0.3235
     28 C20        -0.7692    1.0176    9.6782 C.3       1 <0>         0.0306
     29 Cl1        -0.0198   -0.3882   -5.2501 Cl        1 <0>        -0.0670
     30 H1          1.0042    1.8801    0.0026 H         1 <0>         0.0834
     31 H2         -0.5455    1.8639   -0.8728 H         1 <0>         0.0787
     32 H3         -0.5286    1.8543    0.9071 H         1 <0>         0.1111
     33 H4         -0.0236    0.8483   -2.7352 H         1 <0>         0.1387
     34 H5          0.0212   -3.0854   -4.3553 H         1 <0>         0.1461
     35 H6          0.0465   -4.0481   -2.0825 H         1 <0>         0.1435
     36 H7          0.1082    0.9729    5.0582 H         1 <0>         0.1043
     37 H8         -0.1447    1.3970    7.4691 H         1 <0>         0.1164
     38 H9         -1.9118   -2.7694    5.4976 H         1 <0>         0.1191
     39 H10        -3.9616   -2.2214    9.3538 H         1 <0>         0.0712
     40 H11        -4.2026   -1.7820    7.6421 H         1 <0>         0.1144
     41 H12        -5.4047   -3.8994    8.2981 H         1 <0>         0.1327
     42 H13        -4.2180   -4.1431    6.9938 H         1 <0>         0.1329
     43 H14        -3.7016   -4.6255    9.8414 H         1 <0>         0.4238
     44 H15        -1.7421   -5.7685    9.0270 H         1 <0>         0.1331
     45 H16        -2.1731   -5.1866    7.4008 H         1 <0>         0.1328
     46 H17        -0.5282   -3.6633    8.3661 H         1 <0>         0.1145
     47 H18        -1.5220   -3.4705    9.8345 H         1 <0>         0.0707
     48 H19         0.3027    1.0537    9.4839 H         1 <0>         0.0485
     49 H20        -1.2571    1.8557    9.1804 H         1 <0>         0.0485
     50 H21        -0.9461    1.0799   10.7519 H         1 <0>         0.0883
     51 H22        -4.0804   -5.7948    8.7463 H         1 <0>         0.4247
@<TRIPOS>BOND
     1    1    2 1
     2    1   30 1
     3    1   31 1
     4    1   32 1
     5    2   10 2
     6    2    3 1
     7    3    8 ar
     8    3    4 ar
     9    4    5 ar
    10    4   33 1
    11    5    6 ar
    12    5   29 1
    13    6    7 ar
    14    6   34 1
    15    7    8 ar
    16    7   35 1
    17    8    9 1
    18    9   10 1
    19   10   11 1
    20   11   12 2
    21   11   13 2
    22   11   14 1
    23   14   15 1
    24   15   20 ar
    25   15   16 ar
    26   16   17 ar
    27   16   36 1
    28   17   18 ar
    29   17   37 1
    30   18   19 ar
    31   18   27 1
    32   19   20 ar
    33   19   21 1
    34   20   38 1
    35   21   26 1
    36   21   22 1
    37   22   23 1
    38   22   39 1
    39   22   40 1
    40   23   24 1
    41   23   41 1
    42   23   42 1
    43   24   25 1
    44   24   43 1
    45   24   51 1
    46   25   26 1
    47   25   44 1
    48   25   45 1
    49   26   46 1
    50   26   47 1
    51   27   28 1
    52   28   48 1
    53   28   49 1
    54   28   50 1
@<TRIPOS>MOLECULE
ZINC21981285
   43    46     0     0     0
SMALL
USER_CHARGES
2-methyl-4-(4-methyl-4-oxido-piperazin-4-ium-1-yl)-10H-thieno[2,3-b][1,5]benzodiazepine
@<TRIPOS>ATOM
      1 C1          2.9038    6.4918    5.1713 C.3       1 <0>        -0.0743
      2 C2          2.5841    5.9872    3.7877 C.2       1 <0>        -0.1570
      3 C3          1.6203    6.4061    2.9476 C.2       1 <0>        -0.1226
      4 C4          1.5187    5.7561    1.6557 C.2       1 <0>        -0.2098
      5 C5          2.4401    4.7329    1.4382 C.2       1 <0>         0.1289
      6 S1          3.3908    4.6901    2.8686 S.3       1 <0>         0.0930
      7 N1          2.5080    3.9286    0.3147 N.pl3     1 <0>        -0.6777
      8 C6          1.3315    3.2142   -0.0160 C.ar      1 <0>         0.1031
      9 C7          1.3808    1.8362   -0.0928 C.ar      1 <0>        -0.1116
     10 C8          0.2284    1.1107   -0.3528 C.ar      1 <0>        -0.1294
     11 C9         -0.9707    1.7703   -0.5405 C.ar      1 <0>        -0.1061
     12 C10        -1.0299    3.1476   -0.4724 C.ar      1 <0>        -0.1148
     13 C11         0.1267    3.8974   -0.2224 C.ar      1 <0>         0.1662
     14 N2          0.0187    5.2530   -0.2091 N.2       1 <0>        -0.6188
     15 C12         0.5397    6.1123    0.6013 C.2       1 <0>         0.5357
     16 N3          0.1661    7.4315    0.4793 N.pl3     1 <0>        -0.5959
     17 C13        -0.9003    7.8326   -0.4514 C.3       1 <0>         0.1204
     18 C14        -0.3898    8.9864   -1.3135 C.3       1 <0>         0.0049
     19 N4          0.0980   10.0673   -0.4475 N.4       1 <0>        -0.1193
     20 O1         -0.9664   10.4715    0.4712 O.3       1 <0>        -0.6424
     21 C15         1.2586    9.6048    0.3239 C.3       1 <0>         0.0037
     22 C16         0.8259    8.4809    1.2713 C.3       1 <0>         0.1099
     23 C17         0.4891   11.2153   -1.2764 C.3       1 <0>        -0.0176
     24 H1          2.2086    7.3022    5.4358 H         1 <0>         0.0841
     25 H2          3.9357    6.8721    5.1935 H         1 <0>         0.0783
     26 H3          2.8005    5.6694    5.8945 H         1 <0>         0.0780
     27 H4          0.9445    7.2010    3.2265 H         1 <0>         0.1434
     28 H5          3.4409    3.8717   -0.2654 H         1 <0>         0.4409
     29 H6          2.3200    1.3223    0.0498 H         1 <0>         0.1236
     30 H7          0.2689    0.0331   -0.4128 H         1 <0>         0.1263
     31 H8         -1.8690    1.2041   -0.7380 H         1 <0>         0.1261
     32 H9         -1.9741    3.6513   -0.6176 H         1 <0>         0.1273
     33 H10        -1.1691    6.9789   -1.0909 H         1 <0>         0.1157
     34 H11        -1.7833    8.1552    0.1198 H         1 <0>         0.0911
     35 H12         0.4314    8.6307   -1.9532 H         1 <0>         0.0895
     36 H13        -1.2087    9.3634   -1.9438 H         1 <0>         0.1146
     37 H14         2.0298    9.2283   -0.3642 H         1 <0>         0.0899
     38 H15         1.6668   10.4417    0.9095 H         1 <0>         0.1156
     39 H16         0.1220    8.8717    2.0209 H         1 <0>         0.0971
     40 H17         1.7054    8.0585    1.7793 H         1 <0>         0.1104
     41 H18         0.8550   12.0266   -0.6299 H         1 <0>         0.0993
     42 H19        -0.3814   11.5673   -1.8494 H         1 <0>         0.1000
     43 H20         1.2866   10.9116   -1.9705 H         1 <0>         0.0805
@<TRIPOS>BOND
     1    1    2 1
     2    1   24 1
     3    1   25 1
     4    1   26 1
     5    2    6 1
     6    2    3 2
     7    3    4 1
     8    3   27 1
     9    4   15 1
    10    4    5 2
    11    5    6 1
    12    5    7 1
    13    7    8 1
    14    7   28 1
    15    8   13 ar
    16    8    9 ar
    17    9   10 ar
    18    9   29 1
    19   10   11 ar
    20   10   30 1
    21   11   12 ar
    22   11   31 1
    23   12   13 ar
    24   12   32 1
    25   13   14 1
    26   14   15 2
    27   15   16 1
    28   16   22 1
    29   16   17 1
    30   17   18 1
    31   17   33 1
    32   17   34 1
    33   18   19 1
    34   18   35 1
    35   18   36 1
    36   19   20 1
    37   19   21 1
    38   19   23 1
    39   21   22 1
    40   21   37 1
    41   21   38 1
    42   22   39 1
    43   22   40 1
    44   23   41 1
    45   23   42 1
    46   23   43 1
@<TRIPOS>MOLECULE
ZINC01486281
   45    48     0     0     0
SMALL
USER_CHARGES

@<TRIPOS>ATOM
      1 C1         -0.0179    1.4656    0.0101 C.3       1 <0>        -0.0487
      2 N1          0.0021   -0.0041    0.0020 N.4       1 <0>        -0.3876
      3 C2          0.6866   -0.4750   -1.2088 C.3       1 <0>        -0.0093
      4 C3          0.3378   -1.9456   -1.4554 C.3       1 <0>        -0.1069
      5 C4          1.6024   -2.7643   -1.4577 C.ar      1 <0>        -0.0970
      6 C5          2.5914   -2.4544   -2.3787 C.ar      1 <0>        -0.1147
      7 C6          3.7651   -3.1802   -2.4135 C.ar      1 <0>        -0.1085
      8 C7          3.9564   -4.2213   -1.5242 C.ar      1 <0>        -0.1019
      9 C8          2.9727   -4.5320   -0.6070 C.ar      1 <0>        -0.1091
     10 C9          1.7911   -3.8057   -0.5735 C.ar      1 <0>        -0.0696
     11 C10         0.7396   -4.1857    0.4337 C.3       1 <0>        -0.0338
     12 C11         1.1619   -3.7597    1.8151 C.2       1 <0>         0.1169
     13 C12         0.7815   -2.6321    2.4351 C.2       1 <0>        -0.1914
     14 C13         1.4191   -2.6311    3.7543 C.ar      1 <0>        -0.0982
     15 C14         1.4031   -1.7487    4.8366 C.ar      1 <0>        -0.0810
     16 C15         2.1202   -2.0433    5.9617 C.ar      1 <0>        -0.1330
     17 C16         2.8657   -3.2122    6.0353 C.ar      1 <0>        -0.0915
     18 C17         2.8974   -4.0948    4.9782 C.ar      1 <0>        -0.1235
     19 C18         2.1736   -3.8155    3.8230 C.ar      1 <0>         0.1009
     20 N2          2.0006   -4.4753    2.6277 N.pl3     1 <0>        -0.5841
     21 H1          2.4129   -5.3216    2.3940 H         1 <0>         0.4182
     22 C19        -0.1276   -1.5593    1.8914 C.3       1 <0>        -0.0585
     23 C20         0.7126   -0.4887    1.1922 C.3       1 <0>        -0.0138
     24 H2          1.0047    1.8428    0.0024 H         1 <0>         0.1221
     25 H3         -0.5450    1.8266   -0.8730 H         1 <0>         0.1236
     26 H4         -0.5280    1.8171    0.9069 H         1 <0>         0.1254
     27 H5          0.3617    0.1204   -2.0630 H         1 <0>         0.1345
     28 H6          1.7636   -0.3715   -1.0838 H         1 <0>         0.1328
     29 H7         -0.3430   -2.2902   -0.6846 H         1 <0>         0.0939
     30 H8         -0.1491   -2.0370   -2.4301 H         1 <0>         0.1131
     31 H9          2.4389   -1.6399   -3.0717 H         1 <0>         0.1265
     32 H10         4.5325   -2.9366   -3.1333 H         1 <0>         0.1311
     33 H11         4.8740   -4.7902   -1.5485 H         1 <0>         0.1304
     34 H12         3.1194   -5.3439    0.0904 H         1 <0>         0.1204
     35 H13        -0.2153   -3.7387    0.1833 H         1 <0>         0.1003
     36 H14         0.6251   -5.2758    0.4250 H         1 <0>         0.0950
     37 H15         0.8262   -0.8371    4.7845 H         1 <0>         0.1200
     38 H16         2.1060   -1.3623    6.7998 H         1 <0>         0.1275
     39 H17         3.4259   -3.4324    6.9320 H         1 <0>         0.1312
     40 H18         3.4817   -5.0005    5.0457 H         1 <0>         0.1247
     41 H19        -0.8299   -1.9979    1.1852 H         1 <0>         0.0850
     42 H20        -0.6798   -1.1042    2.7153 H         1 <0>         0.1012
     43 H21         1.6723   -0.9135    0.8986 H         1 <0>         0.1319
     44 H22         0.8810    0.3432    1.8775 H         1 <0>         0.1331
     45 H23        -0.9456   -0.3503    0.0095 H         1 <0>         0.4227
@<TRIPOS>BOND
     1    1    2 1
     2    1   24 1
     3    1   25 1
     4    1   26 1
     5    2   23 1
     6    2    3 1
     7    2   45 1
     8    3    4 1
     9    3   27 1
    10    3   28 1
    11    4    5 1
    12    4   29 1
    13    4   30 1
    14    5   10 ar
    15    5    6 ar
    16    6    7 ar
    17    6   31 1
    18    7    8 ar
    19    7   32 1
    20    8    9 ar
    21    8   33 1
    22    9   10 ar
    23    9   34 1
    24   10   11 1
    25   11   12 1
    26   11   35 1
    27   11   36 1
    28   12   20 1
    29   12   13 2
    30   13   14 1
    31   13   22 1
    32   14   19 ar
    33   14   15 ar
    34   15   16 ar
    35   15   37 1
    36   16   17 ar
    37   16   38 1
    38   17   18 ar
    39   17   39 1
    40   18   19 ar
    41   18   40 1
    42   19   20 1
    43   20   21 1
    44   22   23 1
    45   22   41 1
    46   22   42 1
    47   23   43 1
    48   23   44 1
@<TRIPOS>MOLECULE
ZINC00006788
   46    49     0     0     0
SMALL
USER_CHARGES

@<TRIPOS>ATOM
      1 C1         -0.0165    1.3620    0.0095 C.ar      1 <0>        -0.1208
      2 C2          1.1697    2.0834    0.0021 C.ar      1 <0>        -0.0901
      3 C3          2.3856    1.4362   -0.0134 C.ar      1 <0>        -0.1154
      4 C4          2.4281    0.0456   -0.0212 C.ar      1 <0>         0.0939
      5 C5          1.2234   -0.6807   -0.0132 C.ar      1 <0>        -0.0966
      6 C6          0.0021   -0.0041    0.0020 C.ar      1 <0>        -0.0931
      7 C7          1.6036   -2.0953   -0.0245 C.2       1 <0>        -0.2606
      8 C8          2.9451   -2.1410   -0.0380 C.2       1 <0>         0.1191
      9 N1          3.4551   -0.8713   -0.0363 N.pl3     1 <0>        -0.5786
     10 H1          4.3995   -0.6501   -0.0442 H         1 <0>         0.4282
     11 C9          0.6664   -3.2754   -0.0210 C.3       1 <0>         0.0845
     12 N2          0.1596   -3.5022   -1.3811 N.4       1 <0>        -0.3829
     13 C10         1.2726   -3.8821   -2.2594 C.3       1 <0>        -0.0028
     14 C11         0.7641   -4.0406   -3.6939 C.3       1 <0>        -0.1316
     15 C12        -0.3120   -5.1295   -3.7308 C.3       1 <0>         0.1751
     16 C13        -1.4329   -4.7591   -2.7554 C.3       1 <0>        -0.1700
     17 C14        -0.8430   -4.5740   -1.3556 C.3       1 <0>        -0.0025
     18 C15        -0.8727   -5.2368   -5.1255 C.ar      1 <0>        -0.1248
     19 C16        -0.9053   -4.1237   -5.9446 C.ar      1 <0>        -0.1005
     20 C17        -1.4194   -4.2215   -7.2238 C.ar      1 <0>        -0.1043
     21 C18        -1.9015   -5.4337   -7.6846 C.ar      1 <0>        -0.0252
     22 C19        -1.8686   -6.5474   -6.8643 C.ar      1 <0>        -0.1019
     23 C20        -1.3490   -6.4497   -5.5873 C.ar      1 <0>        -0.0934
     24 Cl1        -2.5479   -5.5571   -9.2910 Cl        1 <0>        -0.0510
     25 O1          0.2613   -6.3810   -3.3471 O.3       1 <0>        -0.5473
     26 H2         -0.9613    1.8849    0.0259 H         1 <0>         0.1312
     27 H3          1.1388    3.1630    0.0081 H         1 <0>         0.1352
     28 H4          3.3028    2.0064   -0.0198 H         1 <0>         0.1292
     29 H5         -0.9246   -0.5587    0.0082 H         1 <0>         0.1204
     30 H6          3.5346   -3.0459   -0.0490 H         1 <0>         0.1810
     31 H7          1.2002   -4.1623    0.3203 H         1 <0>         0.1328
     32 H8         -0.1692   -3.0739    0.6492 H         1 <0>         0.1337
     33 H9          2.0390   -3.1076   -2.2295 H         1 <0>         0.1297
     34 H10         1.6978   -4.8261   -1.9187 H         1 <0>         0.1359
     35 H11         0.3389   -3.0969   -4.0357 H         1 <0>         0.1023
     36 H12         1.5916   -4.3243   -4.3441 H         1 <0>         0.1207
     37 H13        -1.9037   -3.8304   -3.0777 H         1 <0>         0.0999
     38 H14        -2.1757   -5.5565   -2.7347 H         1 <0>         0.1167
     39 H15        -0.3727   -5.5033   -1.0342 H         1 <0>         0.1351
     40 H16        -1.6384   -4.3104   -0.6586 H         1 <0>         0.1322
     41 H17        -0.5293   -3.1774   -5.5847 H         1 <0>         0.1332
     42 H18        -1.4452   -3.3517   -7.8635 H         1 <0>         0.1402
     43 H19        -2.2450   -7.4938   -7.2233 H         1 <0>         0.1410
     44 H20        -1.3189   -7.3200   -4.9486 H         1 <0>         0.1325
     45 H21        -0.3653   -7.1175   -3.3482 H         1 <0>         0.3902
     46 H22        -0.2646   -2.6544   -1.7265 H         1 <0>         0.4197
@<TRIPOS>BOND
     1    1    6 ar
     2    1    2 ar
     3    1   26 1
     4    2    3 ar
     5    2   27 1
     6    3    4 ar
     7    3   28 1
     8    4    9 1
     9    4    5 ar
    10    5    6 ar
    11    5    7 1
    12    6   29 1
    13    7    8 2
    14    7   11 1
    15    8    9 1
    16    8   30 1
    17    9   10 1
    18   11   12 1
    19   11   31 1
    20   11   32 1
    21   12   17 1
    22   12   13 1
    23   12   46 1
    24   13   14 1
    25   13   33 1
    26   13   34 1
    27   14   15 1
    28   14   35 1
    29   14   36 1
    30   15   16 1
    31   15   18 1
    32   15   25 1
    33   16   17 1
    34   16   37 1
    35   16   38 1
    36   17   39 1
    37   17   40 1
    38   18   23 ar
    39   18   19 ar
    40   19   20 ar
    41   19   41 1
    42   20   21 ar
    43   20   42 1
    44   21   22 ar
    45   21   24 1
    46   22   23 ar
    47   22   43 1
    48   23   44 1
    49   25   45 1
@<TRIPOS>MOLECULE
ZINC22066528
   45    48     0     0     0
SMALL
USER_CHARGES
(13aS)-3,9-dimethoxy-6,8,13,13a-tetrahydro-5H-isoquinolino[2,1-b]isoquinoline-2,10-diol
@<TRIPOS>ATOM
      1 C1         -3.1227   -8.2634    5.7444 C.3       1 <0>         0.0227
      2 O1         -4.1038   -7.2288    5.8401 O.3       1 <0>        -0.3067
      3 C2         -3.7706   -6.0129    5.3301 C.ar      1 <0>         0.0932
      4 C3         -2.5290   -5.8173    4.7507 C.ar      1 <0>        -0.1705
      5 C4         -2.1864   -4.5789    4.2307 C.ar      1 <0>        -0.0707
      6 C5         -3.0801   -3.5314    4.2880 C.ar      1 <0>        -0.0717
      7 C6         -4.3270   -3.7243    4.8680 C.ar      1 <0>        -0.1750
      8 C7         -4.6757   -4.9574    5.3881 C.ar      1 <0>         0.1298
      9 O2         -5.8987   -5.1378    5.9547 O.3       1 <0>        -0.4995
     10 C8         -2.7579   -2.1662    3.7402 C.3       1 <0>         0.1286
     11 H1         -2.5295   -1.4955    4.5816 H         1 <0>         0.0572
     12 C9         -3.9424   -1.6810    2.8988 C.3       1 <0>        -0.0578
     13 C10        -3.5808   -0.4048    2.1849 C.ar      1 <0>        -0.1021
     14 C11        -4.6038    0.3821    1.6772 C.ar      1 <0>        -0.0780
     15 C12        -4.3188    1.5550    1.0069 C.ar      1 <0>        -0.1500
     16 C13        -3.0014    1.9524    0.8434 C.ar      1 <0>         0.1453
     17 C14        -1.9758    1.1628    1.3483 C.ar      1 <0>        -0.0012
     18 C15        -2.2678   -0.0158    2.0264 C.ar      1 <0>        -0.0525
     19 C16        -1.1264   -0.8270    2.5772 C.3       1 <0>         0.0961
     20 N1         -1.5608   -2.1954    2.8932 N.3       1 <0>        -0.5247
     21 C17        -0.4679   -2.9269    3.5534 C.3       1 <0>         0.0500
     22 C18        -0.8241   -4.4116    3.6069 C.3       1 <0>        -0.0731
     23 O3         -0.6816    1.5467    1.1837 O.3       1 <0>        -0.3307
     24 C19        -0.0127    1.0858    0.0080 C.3       1 <0>         0.0202
     25 O4         -2.7134    3.1078    0.1865 O.3       1 <0>        -0.5027
     26 H2         -3.5189   -9.1869    6.1917 H         1 <0>         0.1021
     27 H3         -2.2130   -7.9568    6.2814 H         1 <0>         0.0550
     28 H4         -2.8810   -8.4428    4.6864 H         1 <0>         0.0555
     29 H5         -1.8234   -6.6336    4.7038 H         1 <0>         0.1345
     30 H6         -5.0296   -2.9053    4.9135 H         1 <0>         0.1347
     31 H7         -6.6127   -4.3022    5.9996 H         1 <0>         0.4304
     32 H8         -4.2034   -2.4491    2.1559 H         1 <0>         0.0897
     33 H9         -4.8063   -1.4961    3.5541 H         1 <0>         0.0816
     34 H10        -5.6311    0.0753    1.8075 H         1 <0>         0.1328
     35 H11        -5.1206    2.1632    0.6149 H         1 <0>         0.1347
     36 H12        -0.3181   -0.8754    1.8326 H         1 <0>         0.0921
     37 H13        -0.7504   -0.3540    3.4964 H         1 <0>         0.0554
     38 H14         0.4626   -2.7890    2.9831 H         1 <0>         0.0839
     39 H15        -0.3327   -2.5409    4.5745 H         1 <0>         0.0415
     40 H16        -0.0762   -4.9468    4.2105 H         1 <0>         0.0805
     41 H17        -0.8348   -4.8233    2.5869 H         1 <0>         0.0865
     42 H18         1.0193    1.4666    0.0002 H         1 <0>         0.0995
     43 H19        -0.5447    1.4502   -0.8832 H         1 <0>         0.0477
     44 H20         0.0022   -0.0141    0.0020 H         1 <0>         0.0514
     45 H21        -1.6669    3.4212    0.0579 H         1 <0>         0.4342
@<TRIPOS>BOND
     1    1    2 1
     2    1   26 1
     3    1   27 1
     4    1   28 1
     5    2    3 1
     6    3    8 ar
     7    3    4 ar
     8    4    5 ar
     9    4   29 1
    10    5   22 1
    11    5    6 ar
    12    6    7 ar
    13    6   10 1
    14    7    8 ar
    15    7   30 1
    16    8    9 1
    17    9   31 1
    18   10   11 1
    19   10   20 1
    20   10   12 1
    21   12   13 1
    22   12   32 1
    23   12   33 1
    24   13   18 ar
    25   13   14 ar
    26   14   15 ar
    27   14   34 1
    28   15   16 ar
    29   15   35 1
    30   16   17 ar
    31   16   25 1
    32   17   18 ar
    33   17   23 1
    34   18   19 1
    35   19   20 1
    36   19   36 1
    37   19   37 1
    38   20   21 1
    39   21   22 1
    40   21   38 1
    41   21   39 1
    42   22   40 1
    43   22   41 1
    44   23   24 1
    45   24   42 1
    46   24   43 1
    47   24   44 1
    48   25   45 1
@<TRIPOS>MOLECULE
ZINC01572556
   37    39     0     0     0
SMALL
USER_CHARGES

@<TRIPOS>ATOM
      1 C1         -0.0167    1.3781    0.0096 C.ar      1 <0>        -0.1021
      2 C2          1.1709    2.0855    0.0021 C.ar      1 <0>        -0.1116
      3 C3          2.3773    1.4107   -0.0130 C.ar      1 <0>        -0.1074
      4 C4          2.3960    0.0285   -0.0201 C.ar      1 <0>        -0.1062
      5 C5          1.2084   -0.6789   -0.0117 C.ar      1 <0>        -0.1069
      6 C6          0.0021   -0.0041    0.0020 C.ar      1 <0>        -0.1130
      7 C7          3.7112   -0.7071   -0.0376 C.3       1 <0>        -0.0112
      8 H1          4.5257    0.0172   -0.0425 H         1 <0>         0.1069
      9 C8          3.7915   -1.5603   -1.3031 C.3       1 <0>        -0.0144
     10 N1          5.1916   -1.6165   -1.7368 N.4       1 <0>        -0.5063
     11 C9          6.0187   -2.2475   -0.7081 C.3       1 <0>        -0.0089
     12 C10         5.1683   -3.3128   -0.0089 C.3       1 <0>        -0.1074
     13 C11         4.5156   -2.7482    1.2263 C.ar      1 <0>        -0.0936
     14 C12         3.8165   -1.5619    1.2015 C.ar      1 <0>        -0.0841
     15 C13         3.1852   -1.1114    2.3534 C.ar      1 <0>        -0.1103
     16 C14         3.2766   -1.8307    3.5311 C.ar      1 <0>         0.0980
     17 C15         4.0097   -3.0132    3.5615 C.ar      1 <0>         0.0987
     18 C16         4.6249   -3.4646    2.4096 C.ar      1 <0>        -0.1190
     19 O1          4.1218   -3.7189    4.7186 O.3       1 <0>        -0.4834
     20 O2          2.6533   -1.3843    4.6544 O.3       1 <0>        -0.4835
     21 H2         -0.9591    1.9053    0.0259 H         1 <0>         0.1302
     22 H3          1.1563    3.1654    0.0076 H         1 <0>         0.1307
     23 H4          3.3051    1.9634   -0.0196 H         1 <0>         0.1253
     24 H5          1.2231   -1.7588   -0.0176 H         1 <0>         0.1218
     25 H6         -0.9258   -0.5567    0.0082 H         1 <0>         0.1293
     26 H7          3.4334   -2.5674   -1.0894 H         1 <0>         0.1460
     27 H8          3.1827   -1.1105   -2.0875 H         1 <0>         0.1444
     28 H9          5.2555   -2.1506   -2.5905 H         1 <0>         0.4320
     29 H10         6.8888   -2.7145   -1.1695 H         1 <0>         0.1435
     30 H11         6.3413   -1.4994    0.0160 H         1 <0>         0.1353
     31 H12         4.3966   -3.6628   -0.6945 H         1 <0>         0.1021
     32 H13         5.8044   -4.1518    0.2729 H         1 <0>         0.1175
     33 H14         2.6187   -0.1922    2.3295 H         1 <0>         0.1410
     34 H15         5.1924   -4.3832    2.4301 H         1 <0>         0.1414
     35 H16         3.4269   -4.3793    4.8454 H         1 <0>         0.3971
     36 H17         1.7486   -1.7097    4.7579 H         1 <0>         0.3966
     37 H18         5.5265   -0.6799   -1.9063 H         1 <0>         0.4313
@<TRIPOS>BOND
     1    1    6 ar
     2    1    2 ar
     3    1   21 1
     4    2    3 ar
     5    2   22 1
     6    3    4 ar
     7    3   23 1
     8    4    5 ar
     9    4    7 1
    10    5    6 ar
    11    5   24 1
    12    6   25 1
    13    7    8 1
    14    7   14 1
    15    7    9 1
    16    9   10 1
    17    9   26 1
    18    9   27 1
    19   10   11 1
    20   10   28 1
    21   10   37 1
    22   11   12 1
    23   11   29 1
    24   11   30 1
    25   12   13 1
    26   12   31 1
    27   12   32 1
    28   13   18 ar
    29   13   14 ar
    30   14   15 ar
    31   15   16 ar
    32   15   33 1
    33   16   17 ar
    34   16   20 1
    35   17   18 ar
    36   17   19 1
    37   18   34 1
    38   19   35 1
    39   20   36 1
@<TRIPOS>MOLECULE
ZINC02511851
   43    45     0     0     0
SMALL
USER_CHARGES

@<TRIPOS>ATOM
      1 C1         -2.4928   -0.7791   -1.2923 C.3       1 <0>        -0.1292
      2 C2         -1.1811   -1.0965   -0.6216 C.ar      1 <0>        -0.0567
      3 C3          0.0071   -0.6899   -1.1998 C.ar      1 <0>        -0.1088
      4 C4          1.2101   -0.9810   -0.5846 C.ar      1 <0>        -0.0900
      5 C5          1.2252   -1.6783    0.6091 C.ar      1 <0>        -0.1809
      6 C6          0.0373   -2.0840    1.1875 C.ar      1 <0>        -0.1051
      7 C7         -1.1663   -1.7891    0.5744 C.ar      1 <0>        -0.1043
      8 C8          0.0538   -2.8445    2.4885 C.3       1 <0>        -0.0124
      9 H1          0.1384   -2.1465    3.3213 H         1 <0>         0.1393
     10 C9          1.2390   -3.8148    2.5049 C.3       1 <0>        -0.0053
     11 N1          1.5026   -4.3390    1.1768 N.4       1 <0>        -0.3851
     12 C10         0.5130   -5.2685    0.6623 C.3       1 <0>        -0.0059
     13 C11        -0.7973   -4.5482    0.3291 C.3       1 <0>        -0.1331
     14 C12        -1.6271   -4.4652    1.5944 C.ar      1 <0>        -0.0785
     15 C13        -1.2219   -3.6514    2.6252 C.ar      1 <0>        -0.0831
     16 C14        -1.9683   -3.5641    3.7856 C.ar      1 <0>        -0.1074
     17 C15        -3.1353   -4.3037    3.9077 C.ar      1 <0>         0.1090
     18 C16        -3.5478   -5.1271    2.8652 C.ar      1 <0>         0.1078
     19 C17        -2.7887   -5.2088    1.7039 C.ar      1 <0>        -0.0440
     20 Cl1        -3.2956   -6.2342    0.3980 Cl        1 <0>        -0.0271
     21 O1         -4.6916   -5.8538    2.9831 O.3       1 <0>        -0.4711
     22 O2         -3.8755   -4.2241    5.0458 O.3       1 <0>        -0.4775
     23 C18         2.8045   -5.0192    1.2004 C.3       1 <0>        -0.0567
     24 H2         -2.8574    0.1855   -0.9391 H         1 <0>         0.0829
     25 H3         -2.3486   -0.7398   -2.3720 H         1 <0>         0.0773
     26 H4         -3.2210   -1.5533   -1.0509 H         1 <0>         0.0726
     27 H5         -0.0047   -0.1452   -2.1322 H         1 <0>         0.1365
     28 H6          2.1383   -0.6640   -1.0366 H         1 <0>         0.1378
     29 H7          2.1652   -1.9064    1.0894 H         1 <0>         0.1278
     30 H8         -2.0947   -2.1028    1.0283 H         1 <0>         0.1340
     31 H9          2.1248   -3.2915    2.8652 H         1 <0>         0.1415
     32 H10         1.0148   -4.6421    3.1781 H         1 <0>         0.1373
     33 H11         0.9010   -5.7411   -0.2401 H         1 <0>         0.1391
     34 H12         0.3189   -6.0357    1.4118 H         1 <0>         0.1290
     35 H13        -0.5822   -3.5439   -0.0361 H         1 <0>         0.1238
     36 H14        -1.3415   -5.1080   -0.4316 H         1 <0>         0.1217
     37 H15        -1.6443   -2.9239    4.5928 H         1 <0>         0.1503
     38 H16        -5.4832   -5.3946    2.6709 H         1 <0>         0.3998
     39 H17        -4.5501   -3.5316    5.0287 H         1 <0>         0.4006
     40 H18         2.7762   -5.8329    1.9250 H         1 <0>         0.1243
     41 H19         3.0224   -5.4211    0.2109 H         1 <0>         0.1262
     42 H20         3.5808   -4.3081    1.4827 H         1 <0>         0.1253
     43 H21         1.5687   -3.5614    0.5373 H         1 <0>         0.4181
@<TRIPOS>BOND
     1    1    2 1
     2    1   24 1
     3    1   25 1
     4    1   26 1
     5    2    7 ar
     6    2    3 ar
     7    3    4 ar
     8    3   27 1
     9    4    5 ar
    10    4   28 1
    11    5    6 ar
    12    5   29 1
    13    6    7 ar
    14    6    8 1
    15    7   30 1
    16    8    9 1
    17    8   15 1
    18    8   10 1
    19   10   11 1
    20   10   31 1
    21   10   32 1
    22   11   12 1
    23   11   23 1
    24   11   43 1
    25   12   13 1
    26   12   33 1
    27   12   34 1
    28   13   14 1
    29   13   35 1
    30   13   36 1
    31   14   19 ar
    32   14   15 ar
    33   15   16 ar
    34   16   17 ar
    35   16   37 1
    36   17   18 ar
    37   17   22 1
    38   18   19 ar
    39   18   21 1
    40   19   20 1
    41   21   38 1
    42   22   39 1
    43   23   40 1
    44   23   41 1
    45   23   42 1
@<TRIPOS>MOLECULE
ZINC03996039
   43    45     0     0     0
SMALL
USER_CHARGES

@<TRIPOS>ATOM
      1 C1         -1.6235    0.9728   -0.2791 C.3       1 <0>        -0.1251
      2 C2         -0.7658   -0.2580   -0.1367 C.ar      1 <0>        -0.0692
      3 C3          0.0060   -0.6895   -1.1995 C.ar      1 <0>        -0.1053
      4 C4          0.7927   -1.8184   -1.0689 C.ar      1 <0>        -0.1028
      5 C5          0.8082   -2.5158    0.1248 C.ar      1 <0>        -0.1250
      6 C6          0.0373   -2.0840    1.1875 C.ar      1 <0>        -0.1033
      7 C7         -0.7464   -0.9523    1.0582 C.ar      1 <0>        -0.1175
      8 C8          0.0537   -2.8385    2.4782 C.3       1 <0>        -0.0188
      9 H1          0.1425   -2.0421    3.2712 H         1 <0>         0.1289
     10 C9         -1.2193   -3.5828    2.8065 C.3       1 <0>        -0.0007
     11 N1         -1.7216   -4.4807    1.7714 N.4       1 <0>        -0.3779
     12 C10        -0.6262   -5.1383    1.0399 C.3       1 <0>        -0.0173
     13 C11         0.2095   -5.8835    2.0969 C.3       1 <0>        -0.1083
     14 C12         1.3850   -5.0184    2.4888 C.ar      1 <0>        -0.0817
     15 C13         1.3068   -3.6552    2.6382 C.ar      1 <0>        -0.0642
     16 C14         2.4572   -2.9403    2.9744 C.ar      1 <0>        -0.1150
     17 C15         3.6636   -3.5824    3.1710 C.ar      1 <0>         0.1126
     18 C16         3.7339   -4.9648    3.0377 C.ar      1 <0>         0.1091
     19 C17         2.5956   -5.6737    2.6990 C.ar      1 <0>        -0.0502
     20 Cl1         2.6793   -7.4006    2.5375 Cl        1 <0>        -0.0297
     21 O1          4.9118   -5.6139    3.2392 O.3       1 <0>        -0.4705
     22 O2          4.7764   -2.8696    3.4934 O.3       1 <0>        -0.4769
     23 C18        -2.6364   -3.8082    0.8524 C.3       1 <0>        -0.0553
     24 H2         -1.0488    1.8520    0.0122 H         1 <0>         0.0793
     25 H3         -1.9431    1.0750   -1.3162 H         1 <0>         0.0735
     26 H4         -2.4992    0.8819    0.3636 H         1 <0>         0.0701
     27 H5         -0.0060   -0.1447   -2.1319 H         1 <0>         0.1311
     28 H6          1.3951   -2.1558   -1.8993 H         1 <0>         0.1310
     29 H7          1.4224   -3.3983    0.2266 H         1 <0>         0.1258
     30 H8         -1.3458   -0.6127    1.8899 H         1 <0>         0.1279
     31 H9         -1.0715   -4.1709    3.7287 H         1 <0>         0.1362
     32 H10        -2.0160   -2.8538    3.0396 H         1 <0>         0.1368
     33 H11        -1.0613   -5.8839    0.3637 H         1 <0>         0.1352
     34 H12        -0.0164   -4.4594    0.4799 H         1 <0>         0.1455
     35 H13        -0.4083   -6.0784    2.9667 H         1 <0>         0.1037
     36 H14         0.5637   -6.8145    1.6663 H         1 <0>         0.1245
     37 H15         2.3968   -1.8670    3.0841 H         1 <0>         0.1448
     38 H16         5.0550   -5.8943    4.1535 H         1 <0>         0.3995
     39 H17         4.9090   -2.7561    4.4445 H         1 <0>         0.3999
     40 H18        -2.1183   -2.9838    0.3625 H         1 <0>         0.1219
     41 H19        -2.9828   -4.5175    0.1008 H         1 <0>         0.1254
     42 H20        -3.4906   -3.4216    1.4082 H         1 <0>         0.1255
     43 H21        -2.2477   -5.2232    2.2427 H         1 <0>         0.4266
@<TRIPOS>BOND
     1    1    2 1
     2    1   24 1
     3    1   25 1
     4    1   26 1
     5    2    7 ar
     6    2    3 ar
     7    3    4 ar
     8    3   27 1
     9    4    5 ar
    10    4   28 1
    11    5    6 ar
    12    5   29 1
    13    6    7 ar
    14    6    8 1
    15    7   30 1
    16    8    9 1
    17    8   15 1
    18    8   10 1
    19   10   11 1
    20   10   31 1
    21   10   32 1
    22   11   12 1
    23   11   23 1
    24   11   43 1
    25   12   13 1
    26   12   33 1
    27   12   34 1
    28   13   14 1
    29   13   35 1
    30   13   36 1
    31   14   19 ar
    32   14   15 ar
    33   15   16 ar
    34   16   17 ar
    35   16   37 1
    36   17   18 ar
    37   17   22 1
    38   18   19 ar
    39   18   21 1
    40   19   20 1
    41   21   38 1
    42   22   39 1
    43   23   40 1
    44   23   41 1
    45   23   42 1
@<TRIPOS>MOLECULE
ZINC00009073
   38    41     0     0     0
SMALL
USER_CHARGES

@<TRIPOS>ATOM
      1 C1         -0.0178    1.4648    0.0101 C.3       1 <0>        -0.0530
      2 N1          0.0021   -0.0041    0.0020 N.4       1 <0>        -0.3818
      3 C2         -1.3707   -0.5099    0.0093 C.3       1 <0>        -0.0045
      4 C3         -1.3945   -2.0165   -0.1908 C.3       1 <0>        -0.1054
      5 C4         -0.2778   -2.7021    0.5444 C.ar      1 <0>        -0.0840
      6 C5         -0.2629   -4.0910    0.5709 C.ar      1 <0>        -0.1053
      7 C6          0.7244   -4.7743    1.2518 C.ar      1 <0>        -0.0885
      8 C7          1.7146   -4.0754    1.9128 C.ar      1 <0>        -0.0992
      9 C8          1.7194   -2.6860    1.8733 C.ar      1 <0>        -0.0068
     10 C9          0.7130   -1.9965    1.1919 C.ar      1 <0>        -0.1248
     11 C10         0.7133   -0.4906    1.1934 C.3       1 <0>         0.0895
     12 H1          0.2077   -0.1297    2.0890 H         1 <0>         0.1464
     13 C11         2.1391    0.0560    1.1696 C.3       1 <0>        -0.0929
     14 C12         2.9742   -0.5785    2.2479 C.ar      1 <0>        -0.0798
     15 C13         2.7759   -1.9188    2.5745 C.ar      1 <0>        -0.0653
     16 C14         3.5639   -2.5230    3.5530 C.ar      1 <0>         0.1042
     17 C15         4.5367   -1.7751    4.2088 C.ar      1 <0>         0.0998
     18 C16         4.7147   -0.4388    3.8881 C.ar      1 <0>        -0.1167
     19 C17         3.9357    0.1560    2.9107 C.ar      1 <0>        -0.0938
     20 O1          5.3124   -2.3551    5.1634 O.3       1 <0>        -0.4826
     21 O2          3.3828   -3.8338    3.8646 O.3       1 <0>        -0.4754
     22 H2          1.0047    1.8421    0.0024 H         1 <0>         0.1274
     23 H3         -0.5450    1.8259   -0.8730 H         1 <0>         0.1292
     24 H4         -0.5280    1.8163    0.9069 H         1 <0>         0.1253
     25 H5         -1.8367   -0.2679    0.9645 H         1 <0>         0.1303
     26 H6         -1.9326   -0.0329   -0.7937 H         1 <0>         0.1395
     27 H7         -2.3469   -2.4064    0.1685 H         1 <0>         0.1232
     28 H8         -1.3037   -2.2338   -1.2551 H         1 <0>         0.1049
     29 H9         -1.0333   -4.6427    0.0527 H         1 <0>         0.1363
     30 H10         0.7220   -5.8542    1.2677 H         1 <0>         0.1404
     31 H11         2.4813   -4.6056    2.4582 H         1 <0>         0.1525
     32 H12         2.5874   -0.1542    0.1986 H         1 <0>         0.1009
     33 H13         2.1121    1.1345    1.3252 H         1 <0>         0.1081
     34 H14         5.4652    0.1418    4.4038 H         1 <0>         0.1453
     35 H15         4.0810    1.1979    2.6663 H         1 <0>         0.1401
     36 H16         6.1269   -2.7493    4.8224 H         1 <0>         0.3972
     37 H17         3.9208   -4.4411    3.3384 H         1 <0>         0.3936
     38 H18         0.4752   -0.3291   -0.8278 H         1 <0>         0.4258
@<TRIPOS>BOND
     1    1    2 1
     2    1   22 1
     3    1   23 1
     4    1   24 1
     5    2   11 1
     6    2    3 1
     7    2   38 1
     8    3    4 1
     9    3   25 1
    10    3   26 1
    11    4    5 1
    12    4   27 1
    13    4   28 1
    14    5   10 ar
    15    5    6 ar
    16    6    7 ar
    17    6   29 1
    18    7    8 ar
    19    7   30 1
    20    8    9 ar
    21    8   31 1
    22    9   15 1
    23    9   10 ar
    24   10   11 1
    25   11   12 1
    26   11   13 1
    27   13   14 1
    28   13   32 1
    29   13   33 1
    30   14   19 ar
    31   14   15 ar
    32   15   16 ar
    33   16   17 ar
    34   16   21 1
    35   17   18 ar
    36   17   20 1
    37   18   19 ar
    38   18   34 1
    39   19   35 1
    40   20   36 1
    41   21   37 1
@<TRIPOS>MOLECULE
ZINC00009073
   37    40     0     0     0
SMALL
USER_CHARGES

@<TRIPOS>ATOM
      1 C1         -0.0178    1.4648    0.0101 C.3       1 <0>         0.0190
      2 N1          0.0021   -0.0041    0.0020 N.3       1 <0>        -0.5347
      3 C2         -1.3554   -0.5468   -0.0771 C.3       1 <0>         0.0548
      4 C3         -1.3255   -2.0437   -0.3363 C.3       1 <0>        -0.0776
      5 C4         -0.2136   -2.7298    0.4050 C.ar      1 <0>        -0.0660
      6 C5         -0.1676   -4.1185    0.3764 C.ar      1 <0>        -0.1168
      7 C6          0.8160   -4.8083    1.0555 C.ar      1 <0>        -0.1183
      8 C7          1.7732   -4.1167    1.7707 C.ar      1 <0>        -0.1100
      9 C8          1.7473   -2.7271    1.7884 C.ar      1 <0>        -0.0402
     10 C9          0.7422   -2.0318    1.1101 C.ar      1 <0>        -0.0602
     11 C10         0.7070   -0.5281    1.1816 C.3       1 <0>         0.1292
     12 H1          0.1788   -0.2212    2.0843 H         1 <0>         0.0565
     13 C11         2.1199    0.0508    1.2084 C.3       1 <0>        -0.0723
     14 C12         2.9454   -0.6100    2.2786 C.ar      1 <0>        -0.0656
     15 C13         2.7694   -1.9666    2.5450 C.ar      1 <0>        -0.0523
     16 C14         3.5484   -2.5938    3.5165 C.ar      1 <0>         0.0945
     17 C15         4.4897   -1.8532    4.2246 C.ar      1 <0>         0.0806
     18 C16         4.6455   -0.5013    3.9627 C.ar      1 <0>        -0.1259
     19 C17         3.8757    0.1166    2.9923 C.ar      1 <0>        -0.1047
     20 O1          5.2558   -2.4554    5.1733 O.3       1 <0>        -0.4864
     21 O2          3.3897   -3.9199    3.7698 O.3       1 <0>        -0.4768
     22 H2          1.0047    1.8421    0.0024 H         1 <0>         0.0749
     23 H3         -0.5450    1.8259   -0.8730 H         1 <0>         0.0732
     24 H4         -0.5280    1.8163    0.9069 H         1 <0>         0.0286
     25 H5         -1.8730   -0.3560    0.8630 H         1 <0>         0.0357
     26 H6         -1.8920   -0.0533   -0.8874 H         1 <0>         0.0839
     27 H7         -2.2767   -2.4752   -0.0246 H         1 <0>         0.0807
     28 H8         -1.1956   -2.2145   -1.4050 H         1 <0>         0.0833
     29 H9         -0.9115   -4.6650   -0.1844 H         1 <0>         0.1227
     30 H10         0.8367   -5.8878    1.0279 H         1 <0>         0.1259
     31 H11         2.5378   -4.6525    2.3137 H         1 <0>         0.1407
     32 H12         2.5925   -0.1106    0.2395 H         1 <0>         0.0936
     33 H13         2.0656    1.1213    1.4066 H         1 <0>         0.0843
     34 H14         5.3712    0.0734    4.5190 H         1 <0>         0.1363
     35 H15         4.0042    1.1703    2.7931 H         1 <0>         0.1343
     36 H16         6.0862   -2.8185    4.8360 H         1 <0>         0.3882
     37 H17         3.9530   -4.4932    3.2322 H         1 <0>         0.3868
@<TRIPOS>BOND
     1    1    2 1
     2    1   22 1
     3    1   23 1
     4    1   24 1
     5    2   11 1
     6    2    3 1
     7    3    4 1
     8    3   25 1
     9    3   26 1
    10    4    5 1
    11    4   27 1
    12    4   28 1
    13    5   10 ar
    14    5    6 ar
    15    6    7 ar
    16    6   29 1
    17    7    8 ar
    18    7   30 1
    19    8    9 ar
    20    8   31 1
    21    9   15 1
    22    9   10 ar
    23   10   11 1
    24   11   12 1
    25   11   13 1
    26   13   14 1
    27   13   32 1
    28   13   33 1
    29   14   19 ar
    30   14   15 ar
    31   15   16 ar
    32   16   17 ar
    33   16   21 1
    34   17   18 ar
    35   17   20 1
    36   18   19 ar
    37   18   34 1
    38   19   35 1
    39   20   36 1
    40   21   37 1
@<TRIPOS>MOLECULE
ZINC00537822
   50    52     0     0     0
SMALL
USER_CHARGES

@<TRIPOS>ATOM
      1 C1         -0.0169    1.3952    0.0097 C.ar      1 <0>        -0.0260
      2 C2          1.1683    2.0970    0.0022 C.ar      1 <0>        -0.1650
      3 C3          2.3789    1.4198   -0.0130 C.ar      1 <0>         0.1439
      4 C4          2.4047    0.0329   -0.0212 C.ar      1 <0>        -0.1670
      5 C5          1.2267   -0.6810   -0.0142 C.ar      1 <0>        -0.0432
      6 C6          0.0021   -0.0041    0.0020 C.ar      1 <0>        -0.1967
      7 C7         -1.2591   -0.7596    0.0105 C.2       1 <0>         0.4038
      8 O1         -2.3189   -0.1702    0.0242 O.2       1 <0>        -0.4483
      9 C8         -1.2348   -2.2664    0.0022 C.3       1 <0>        -0.1653
     10 C9         -2.6689   -2.7996    0.0135 C.3       1 <0>        -0.1429
     11 C10        -2.6443   -4.3293    0.0051 C.3       1 <0>        -0.0092
     12 N1         -4.0211   -4.8413    0.0160 N.4       1 <0>        -0.3830
     13 C11        -4.6726   -4.4620    1.2755 C.3       1 <0>        -0.0093
     14 C12        -6.1318   -4.9225    1.2582 C.3       1 <0>        -0.1330
     15 C13        -6.1791   -6.4445    1.0954 C.3       1 <0>         0.1746
     16 C14        -5.4322   -6.8346   -0.1834 C.3       1 <0>        -0.1706
     17 C15        -3.9990   -6.3033   -0.1127 C.3       1 <0>        -0.0017
     18 C16        -7.6135   -6.8966    0.9991 C.ar      1 <0>        -0.1262
     19 C17        -8.5661   -6.0599    0.4482 C.ar      1 <0>        -0.1006
     20 C18        -9.8818   -6.4740    0.3596 C.ar      1 <0>        -0.1039
     21 C19       -10.2453   -7.7262    0.8224 C.ar      1 <0>        -0.0247
     22 C20        -9.2914   -8.5631    1.3735 C.ar      1 <0>        -0.1016
     23 C21        -7.9750   -8.1501    1.4564 C.ar      1 <0>        -0.0934
     24 Cl1       -11.8977   -8.2468    0.7119 Cl        1 <0>        -0.0500
     25 O2         -5.5554   -7.0652    2.2213 O.3       1 <0>        -0.5474
     26 F1          3.5378    2.1141   -0.0204 F         1 <0>        -0.1258
     27 H1         -0.9587    1.9236    0.0260 H         1 <0>         0.1459
     28 H2          1.1551    3.1769    0.0077 H         1 <0>         0.1477
     29 H3          3.3506   -0.4883   -0.0334 H         1 <0>         0.1469
     30 H4          1.2482   -1.7608   -0.0213 H         1 <0>         0.1412
     31 H5         -0.7241   -2.6166   -0.8948 H         1 <0>         0.1127
     32 H6         -0.7064   -2.6261    0.8850 H         1 <0>         0.1127
     33 H7         -3.1796   -2.4493    0.9105 H         1 <0>         0.0952
     34 H8         -3.1973   -2.4398   -0.8693 H         1 <0>         0.0947
     35 H9         -2.1335   -4.6796   -0.8919 H         1 <0>         0.1333
     36 H10        -2.1158   -4.6891    0.8880 H         1 <0>         0.1327
     37 H11        -4.1530   -4.9339    2.1093 H         1 <0>         0.1388
     38 H12        -4.6353   -3.3788    1.3915 H         1 <0>         0.1356
     39 H13        -6.6132   -4.6415    2.1949 H         1 <0>         0.1238
     40 H14        -6.6524   -4.4509    0.4248 H         1 <0>         0.1045
     41 H15        -5.4137   -7.9204   -0.2771 H         1 <0>         0.1175
     42 H16        -5.9384   -6.4027   -1.0467 H         1 <0>         0.1009
     43 H17        -3.4644   -6.5795   -1.0215 H         1 <0>         0.1329
     44 H18        -3.4937   -6.7360    0.7507 H         1 <0>         0.1354
     45 H19        -8.2824   -5.0823    0.0874 H         1 <0>         0.1334
     46 H20       -10.6260   -5.8201   -0.0704 H         1 <0>         0.1408
     47 H21        -9.5746   -9.5405    1.7352 H         1 <0>         0.1414
     48 H22        -7.2294   -8.8051    1.8823 H         1 <0>         0.1323
     49 H23        -5.5495   -8.0314    2.1846 H         1 <0>         0.3907
     50 H24        -4.5327   -4.4442   -0.7578 H         1 <0>         0.4215
@<TRIPOS>BOND
     1    1    6 ar
     2    1    2 ar
     3    1   27 1
     4    2    3 ar
     5    2   28 1
     6    3    4 ar
     7    3   26 1
     8    4    5 ar
     9    4   29 1
    10    5    6 ar
    11    5   30 1
    12    6    7 1
    13    7    8 2
    14    7    9 1
    15    9   10 1
    16    9   31 1
    17    9   32 1
    18   10   11 1
    19   10   33 1
    20   10   34 1
    21   11   12 1
    22   11   35 1
    23   11   36 1
    24   12   17 1
    25   12   13 1
    26   12   50 1
    27   13   14 1
    28   13   37 1
    29   13   38 1
    30   14   15 1
    31   14   39 1
    32   14   40 1
    33   15   16 1
    34   15   18 1
    35   15   25 1
    36   16   17 1
    37   16   41 1
    38   16   42 1
    39   17   43 1
    40   17   44 1
    41   18   23 ar
    42   18   19 ar
    43   19   20 ar
    44   19   45 1
    45   20   21 ar
    46   20   46 1
    47   21   22 ar
    48   21   24 1
    49   22   23 ar
    50   22   47 1
    51   23   48 1
    52   25   49 1
@<TRIPOS>MOLECULE
ZINC02516058
   36    38     0     0     0
SMALL
USER_CHARGES
10-chloro-6-phenyl-4-azabicyclo[5.4.0]undeca-7,9,11-trien-9-ol
@<TRIPOS>ATOM
      1 C1          6.6758   -0.2307    1.8253 C.ar      1 <0>        -0.1008
      2 C2          6.8162    0.1032    0.4912 C.ar      1 <0>        -0.1125
      3 C3          5.8538    0.8743   -0.1333 C.ar      1 <0>        -0.1078
      4 C4          4.7510    1.3115    0.5763 C.ar      1 <0>        -0.1089
      5 C5          4.6132    0.9821    1.9117 C.ar      1 <0>        -0.1047
      6 C6          5.5730    0.2066    2.5349 C.ar      1 <0>        -0.1111
      7 C7          3.7020    2.1526   -0.1044 C.3       1 <0>        -0.0111
      8 H1          3.9808    2.2948   -1.1485 H         1 <0>         0.1084
      9 C8          3.6292    3.5151    0.5831 C.3       1 <0>        -0.0086
     10 C9          1.9516    4.2460   -1.0046 C.3       1 <0>        -0.0041
     11 C10         1.0800    3.5989    0.0753 C.3       1 <0>        -0.1059
     12 C11         1.1701    2.0973    0.0022 C.ar      1 <0>        -0.0991
     13 C12         2.3756    1.4360   -0.0401 C.ar      1 <0>        -0.0709
     14 C13         2.3983    0.0473   -0.0421 C.ar      1 <0>        -0.1147
     15 C14         1.2176   -0.6745   -0.0173 C.ar      1 <0>         0.1347
     16 C15         0.0021   -0.0041    0.0020 C.ar      1 <0>        -0.0565
     17 C16        -0.0166    1.3758    0.0096 C.ar      1 <0>        -0.0837
     18 Cl1        -1.4867   -0.8969    0.0159 Cl        1 <0>        -0.0332
     19 O1          1.2480   -2.0334   -0.0122 O.3       1 <0>        -0.4820
     20 H2          7.4279   -0.8328    2.3133 H         1 <0>         0.1305
     21 H3          7.6780   -0.2382   -0.0630 H         1 <0>         0.1307
     22 H4          5.9636    1.1354   -1.1755 H         1 <0>         0.1251
     23 H5          3.7538    1.3274    2.4672 H         1 <0>         0.1220
     24 H6          5.4635   -0.0539    3.5772 H         1 <0>         0.1300
     25 H7          2.8748    3.4883    1.3693 H         1 <0>         0.1439
     26 H8          4.6004    3.7605    1.0127 H         1 <0>         0.1437
     27 H9          1.4922    5.1755   -1.3411 H         1 <0>         0.1421
     28 H10         2.0630    3.5630   -1.8467 H         1 <0>         0.1340
     29 H11         1.4183    3.9313    1.0567 H         1 <0>         0.1029
     30 H12         0.0436    3.9041   -0.0690 H         1 <0>         0.1190
     31 H13         3.3443   -0.4732   -0.0636 H         1 <0>         0.1458
     32 H14        -0.9616    1.8987    0.0169 H         1 <0>         0.1452
     33 H15         1.2408   -2.4303   -0.8939 H         1 <0>         0.4022
     34 N1          3.2708    4.5367   -0.4206 N.4       1 <0>        -0.5183
     35 H16         3.9768    4.5401   -1.1660 H         1 <0>         0.4361
     36 H17         3.2447    5.4587    0.0304 H         1 <0>         0.4375
@<TRIPOS>BOND
     1    1    6 ar
     2    1    2 ar
     3    1   20 1
     4    2    3 ar
     5    2   21 1
     6    3    4 ar
     7    3   22 1
     8    4    5 ar
     9    4    7 1
    10    5    6 ar
    11    5   23 1
    12    6   24 1
    13    7    8 1
    14    7   13 1
    15    7    9 1
    16    9   25 1
    17    9   26 1
    18    9   34 1
    19   10   11 1
    20   10   27 1
    21   10   28 1
    22   10   34 1
    23   11   12 1
    24   11   29 1
    25   11   30 1
    26   12   17 ar
    27   12   13 ar
    28   13   14 ar
    29   14   15 ar
    30   14   31 1
    31   15   16 ar
    32   15   19 1
    33   16   17 ar
    34   16   18 1
    35   17   32 1
    36   19   33 1
    37   34   35 1
    38   34   36 1
@<TRIPOS>MOLECULE
ZINC02539831
   36    38     0     0     0
SMALL
USER_CHARGES
10-chloro-6-phenyl-4-azabicyclo[5.4.0]undeca-7,9,11-trien-9-ol
@<TRIPOS>ATOM
      1 C1          0.6642    3.4549   -5.4278 C.ar      1 <0>        -0.1007
      2 C2          1.5138    2.3792   -5.6068 C.ar      1 <0>        -0.1126
      3 C3          2.5078    2.1221   -4.6812 C.ar      1 <0>        -0.1076
      4 C4          2.6522    2.9407   -3.5767 C.ar      1 <0>        -0.1092
      5 C5          1.7992    4.0132   -3.3950 C.ar      1 <0>        -0.1044
      6 C6          0.8085    4.2734   -4.3233 C.ar      1 <0>        -0.1113
      7 C7          3.7356    2.6601   -2.5674 C.3       1 <0>        -0.0110
      8 H1          4.2852    1.7698   -2.8730 H         1 <0>         0.1086
      9 C8          4.6947    3.8485   -2.5190 C.3       1 <0>        -0.0086
     10 C9          6.0743    2.6935   -0.8968 C.3       1 <0>        -0.0042
     11 C10         5.0696    3.4019    0.0160 C.3       1 <0>        -0.1058
     12 C11         3.7307    2.7140   -0.0332 C.ar      1 <0>        -0.0991
     13 C12         3.1037    2.4128   -1.2196 C.ar      1 <0>        -0.0709
     14 C13         1.8429    1.8304   -1.2026 C.ar      1 <0>        -0.1150
     15 C14         1.2230    1.5325   -0.0014 C.ar      1 <0>         0.1347
     16 C15         1.8652    1.8236    1.1945 C.ar      1 <0>        -0.0564
     17 C16         3.1159    2.4062    1.1737 C.ar      1 <0>        -0.0838
     18 Cl1         1.1018    1.4499    2.7082 Cl        1 <0>        -0.0331
     19 O1         -0.0110    0.9628    0.0073 O.3       1 <0>        -0.4820
     20 H2         -0.1127    3.6555   -6.1508 H         1 <0>         0.1305
     21 H3          1.4008    1.7395   -6.4696 H         1 <0>         0.1307
     22 H4          3.1714    1.2816   -4.8209 H         1 <0>         0.1251
     23 H5          1.9093    4.6501   -2.5297 H         1 <0>         0.1220
     24 H6          0.1445    5.1135   -4.1832 H         1 <0>         0.1300
     25 H7          4.3718    4.5478   -1.7477 H         1 <0>         0.1438
     26 H8          4.7067    4.3484   -3.4875 H         1 <0>         0.1436
     27 H9          7.0751    2.7684   -0.4716 H         1 <0>         0.1420
     28 H10         5.7977    1.6448   -1.0057 H         1 <0>         0.1340
     29 H11         4.9545    4.4356   -0.3102 H         1 <0>         0.1029
     30 H12         5.4430    3.3885    1.0399 H         1 <0>         0.1190
     31 H13         1.3423    1.6086   -2.1335 H         1 <0>         0.1458
     32 H14         3.6185    2.6295    2.1032 H         1 <0>         0.1452
     33 H15         0.0021   -0.0041    0.0020 H         1 <0>         0.4024
     34 N1          6.0515    3.3551   -2.2113 N.4       1 <0>        -0.5182
     35 H16         6.7049    4.1470   -2.2022 H         1 <0>         0.4375
     36 H17         6.3382    2.6830   -2.9327 H         1 <0>         0.4361
@<TRIPOS>BOND
     1    1    6 ar
     2    1    2 ar
     3    1   20 1
     4    2    3 ar
     5    2   21 1
     6    3    4 ar
     7    3   22 1
     8    4    5 ar
     9    4    7 1
    10    5    6 ar
    11    5   23 1
    12    6   24 1
    13    7    8 1
    14    7   13 1
    15    7    9 1
    16    9   25 1
    17    9   26 1
    18    9   34 1
    19   10   11 1
    20   10   27 1
    21   10   28 1
    22   10   34 1
    23   11   12 1
    24   11   29 1
    25   11   30 1
    26   12   17 ar
    27   12   13 ar
    28   13   14 ar
    29   14   15 ar
    30   14   31 1
    31   15   16 ar
    32   15   19 1
    33   16   17 ar
    34   16   18 1
    35   17   32 1
    36   19   33 1
    37   34   35 1
    38   34   36 1
@<TRIPOS>MOLECULE
ZINC05966782
   40    42     0     0     0
SMALL
USER_CHARGES
11-chloro-4-methyl-6-phenyl-4-azabicyclo[5.4.0]undeca-7,9,11-triene-9,10-diol
@<TRIPOS>ATOM
      1 C1          4.8885    4.0248    1.4291 C.3       1 <0>        -0.0488
      2 C2          3.2373    2.3193    0.9738 C.3       1 <0>        -0.0008
      3 C3          2.3252    1.8796   -0.1749 C.3       1 <0>        -0.1191
      4 C4          1.1731    2.8360   -0.3377 C.ar      1 <0>        -0.0847
      5 C5          1.3581    4.1973   -0.4211 C.ar      1 <0>        -0.0714
      6 C6          0.2645    5.0294   -0.6275 C.ar      1 <0>        -0.1084
      7 C7         -1.0111    4.5040   -0.7238 C.ar      1 <0>         0.1123
      8 C8         -1.1994    3.1293   -0.6234 C.ar      1 <0>         0.1093
      9 C9         -0.1063    2.3024   -0.4312 C.ar      1 <0>        -0.0473
     10 Cl1        -0.3346    0.5855   -0.3132 Cl        1 <0>        -0.0288
     11 O1         -2.4502    2.6017   -0.7090 O.3       1 <0>        -0.4756
     12 O2         -2.0759    5.3268   -0.9203 O.3       1 <0>        -0.4823
     13 C10         2.7106    4.8502   -0.2756 C.3       1 <0>        -0.0092
     14 H1          2.8736    5.1040    0.7718 H         1 <0>         0.1109
     15 C11         3.8289    3.9210   -0.7451 C.3       1 <0>        -0.0096
     16 C12         2.7391    6.1120   -1.0991 C.ar      1 <0>        -0.1060
     17 C13         2.5786    6.0461   -2.4705 C.ar      1 <0>        -0.1073
     18 C14         2.6000    7.2040   -3.2253 C.ar      1 <0>        -0.1116
     19 C15         2.7924    8.4268   -2.6099 C.ar      1 <0>        -0.1014
     20 C16         2.9582    8.4922   -1.2391 C.ar      1 <0>        -0.1112
     21 C17         2.9316    7.3348   -0.4837 C.ar      1 <0>        -0.1071
     22 H2          5.4077    3.4218    2.1740 H         1 <0>         0.1267
     23 H3          5.5949    4.7091    0.9591 H         1 <0>         0.1255
     24 H4          4.0959    4.5962    1.9123 H         1 <0>         0.1230
     25 H5          2.6655    2.9005    1.6973 H         1 <0>         0.1352
     26 H6          3.6669    1.4433    1.4599 H         1 <0>         0.1405
     27 H7          1.9372    0.8831    0.0362 H         1 <0>         0.1244
     28 H8          2.9017    1.8517   -1.0995 H         1 <0>         0.1065
     29 H9          0.4121    6.0958   -0.7140 H         1 <0>         0.1474
     30 H10        -2.9054    2.5289    0.1411 H         1 <0>         0.4045
     31 H11        -2.2847    5.4843   -1.8512 H         1 <0>         0.4050
     32 H12         4.6490    4.5120   -1.1528 H         1 <0>         0.1416
     33 H13         3.4462    3.2443   -1.5091 H         1 <0>         0.1410
     34 H14         2.4327    5.0904   -2.9518 H         1 <0>         0.1222
     35 H15         2.4708    7.1529   -4.2963 H         1 <0>         0.1299
     36 H16         2.8135    9.3310   -3.2001 H         1 <0>         0.1305
     37 H17         3.1089    9.4474   -0.7583 H         1 <0>         0.1309
     38 H18         3.0615    7.3858    0.5873 H         1 <0>         0.1250
     39 N1          4.3288    3.1268    0.3982 N.4       1 <0>        -0.3969
     40 H19         5.0691    2.4970    0.0672 H         1 <0>         0.4352
@<TRIPOS>BOND
     1    1   22 1
     2    1   23 1
     3    1   24 1
     4    1   39 1
     5    2    3 1
     6    2   25 1
     7    2   26 1
     8    2   39 1
     9    3    4 1
    10    3   27 1
    11    3   28 1
    12    4    9 ar
    13    4    5 ar
    14    5    6 ar
    15    5   13 1
    16    6    7 ar
    17    6   29 1
    18    7    8 ar
    19    7   12 1
    20    8    9 ar
    21    8   11 1
    22    9   10 1
    23   11   30 1
    24   12   31 1
    25   13   14 1
    26   13   15 1
    27   13   16 1
    28   15   32 1
    29   15   33 1
    30   15   39 1
    31   16   21 ar
    32   16   17 ar
    33   17   18 ar
    34   17   34 1
    35   18   19 ar
    36   18   35 1
    37   19   20 ar
    38   19   36 1
    39   20   21 ar
    40   20   37 1
    41   21   38 1
    42   39   40 1
@<TRIPOS>MOLECULE
ZINC05966783
   40    42     0     0     0
SMALL
USER_CHARGES
11-chloro-4-methyl-6-phenyl-4-azabicyclo[5.4.0]undeca-7,9,11-triene-9,10-diol
@<TRIPOS>ATOM
      1 C1         -1.6421    0.9986    2.8173 C.3       1 <0>        -0.0409
      2 C2         -2.8127    0.1275    0.8310 C.3       1 <0>        -0.0080
      3 C3         -2.8597   -1.1478   -0.0138 C.3       1 <0>        -0.1200
      4 C4         -1.9811   -1.0323   -1.2336 C.ar      1 <0>        -0.0798
      5 C5         -0.7057   -0.5228   -1.2180 C.ar      1 <0>        -0.0632
      6 C6          0.0233   -0.4679   -2.4071 C.ar      1 <0>        -0.1152
      7 C7         -0.5182   -0.9086   -3.5980 C.ar      1 <0>         0.1136
      8 C8         -1.8112   -1.4195   -3.6124 C.ar      1 <0>         0.1083
      9 C9         -2.5303   -1.4832   -2.4332 C.ar      1 <0>        -0.0507
     10 Cl1        -4.1395   -2.1360   -2.4509 Cl        1 <0>        -0.0298
     11 O1         -2.3631   -1.8548   -4.7765 O.3       1 <0>        -0.4703
     12 O2          0.2056   -0.8455   -4.7478 O.3       1 <0>        -0.4767
     13 C10         0.0021   -0.0041    0.0020 C.3       1 <0>        -0.0033
     14 H1          1.0671   -0.3027   -0.1027 H         1 <0>         0.1336
     15 C11        -0.4961   -0.5892    1.3129 C.3       1 <0>         0.0009
     16 C12        -0.0183    1.4994    0.0103 C.ar      1 <0>        -0.1096
     17 C13        -1.0235    2.1807   -0.6504 C.ar      1 <0>        -0.1210
     18 C14        -1.0449    3.5628   -0.6386 C.ar      1 <0>        -0.1109
     19 C15        -0.0554    4.2638    0.0248 C.ar      1 <0>        -0.1033
     20 C16         0.9528    3.5827    0.6810 C.ar      1 <0>        -0.1082
     21 C17         0.9713    2.2005    0.6737 C.ar      1 <0>        -0.1116
     22 H2         -1.0263    1.8342    2.4844 H         1 <0>         0.1335
     23 H3         -2.6443    1.3570    3.0522 H         1 <0>         0.1190
     24 H4         -1.1982    0.5519    3.7069 H         1 <0>         0.1133
     25 H5         -3.7642    0.2300    1.3659 H         1 <0>         0.1292
     26 H6         -2.6944    0.9919    0.1774 H         1 <0>         0.1537
     27 H7         -2.5235   -1.9887    0.5923 H         1 <0>         0.1013
     28 H8         -3.8899   -1.3239   -0.3211 H         1 <0>         0.1246
     29 H9          1.0298   -0.0756   -2.3889 H         1 <0>         0.1449
     30 H10        -2.8425   -1.1713   -5.2644 H         1 <0>         0.3992
     31 H11         0.0969   -0.0180   -5.2361 H         1 <0>         0.3999
     32 H12        -0.6250   -1.6775    1.1934 H         1 <0>         0.1239
     33 H13         0.2895   -0.4603    2.0785 H         1 <0>         0.1393
     34 H14        -1.7941    1.6330   -1.1725 H         1 <0>         0.1242
     35 H15        -1.8324    4.0950   -1.1516 H         1 <0>         0.1293
     36 H16        -0.0696    5.3437    0.0302 H         1 <0>         0.1308
     37 H17         1.7261    4.1303    1.1990 H         1 <0>         0.1319
     38 H18         1.7591    1.6683    1.1861 H         1 <0>         0.1289
     39 N1         -1.7903   -0.1413    1.8764 N.4       1 <0>        -0.3924
     40 H19        -2.1466   -0.9282    2.4314 H         1 <0>         0.4318
@<TRIPOS>BOND
     1    1   22 1
     2    1   23 1
     3    1   24 1
     4    1   39 1
     5    2    3 1
     6    2   25 1
     7    2   26 1
     8    2   39 1
     9    3    4 1
    10    3   27 1
    11    3   28 1
    12    4    9 ar
    13    4    5 ar
    14    5    6 ar
    15    5   13 1
    16    6    7 ar
    17    6   29 1
    18    7    8 ar
    19    7   12 1
    20    8    9 ar
    21    8   11 1
    22    9   10 1
    23   11   30 1
    24   12   31 1
    25   13   14 1
    26   13   15 1
    27   13   16 1
    28   15   32 1
    29   15   33 1
    30   15   39 1
    31   16   21 ar
    32   16   17 ar
    33   17   18 ar
    34   17   34 1
    35   18   19 ar
    36   18   35 1
    37   19   20 ar
    38   19   36 1
    39   20   21 ar
    40   20   37 1
    41   21   38 1
    42   39   40 1
@<TRIPOS>MOLECULE
ZINC02530682
   44    46     0     0     0
SMALL
USER_CHARGES

@<TRIPOS>ATOM
      1 C1         -0.1460    1.2050   -0.0082 C.2       1 <0>        -0.1014
      2 C2         -0.0990   -0.1042    0.0023 C.2       1 <0>        -0.2403
      3 C3          1.2319   -0.8106   -0.0228 C.3       1 <0>         0.0204
      4 N1          1.3189   -1.7318    1.1181 N.4       1 <0>        -0.3810
      5 C4          0.2263   -2.6828    1.0194 C.3       1 <0>        -0.0104
      6 C5          0.0728   -3.4811    2.3178 C.3       1 <0>        -0.1377
      7 C6          1.0206   -4.6624    2.2621 C.ar      1 <0>        -0.0581
      8 C7          2.3766   -4.4529    2.3278 C.ar      1 <0>        -0.0894
      9 C8          3.2538   -5.5205    2.2786 C.ar      1 <0>        -0.0974
     10 C9          2.7581   -6.8105    2.1625 C.ar      1 <0>         0.1027
     11 C10         1.3849   -7.0234    2.0960 C.ar      1 <0>         0.1266
     12 C11         0.5141   -5.9444    2.1460 C.ar      1 <0>        -0.1023
     13 Br1        -1.3538   -6.2246    2.0554 Br        1 <0>        -0.0054
     14 O1          0.8967   -8.2877    1.9811 O.3       1 <0>        -0.4706
     15 O2          3.6137   -7.8665    2.1132 O.3       1 <0>        -0.4777
     16 C12         2.9150   -3.0420    2.4556 C.3       1 <0>        -0.0116
     17 H1          3.9868   -3.0737    2.6510 H         1 <0>         0.1395
     18 C13         2.6515   -2.3079    1.1371 C.3       1 <0>        -0.0068
     19 C14         2.2135   -2.3304    3.5838 C.ar      1 <0>        -0.1109
     20 C15         1.6289   -3.0588    4.6029 C.ar      1 <0>        -0.1005
     21 C16         0.9854   -2.4061    5.6378 C.ar      1 <0>        -0.0973
     22 C17         0.9271   -1.0251    5.6537 C.ar      1 <0>        -0.1041
     23 C18         1.5125   -0.2967    4.6351 C.ar      1 <0>        -0.0955
     24 C19         2.1597   -0.9493    3.6025 C.ar      1 <0>        -0.1710
     25 H2          0.7691    1.7780   -0.0349 H         1 <0>         0.1124
     26 H3         -1.0999    1.7112    0.0053 H         1 <0>         0.1242
     27 H4         -1.0141   -0.6771    0.0289 H         1 <0>         0.1357
     28 H5          1.3273   -1.3728   -0.9518 H         1 <0>         0.1363
     29 H6          2.0345   -0.0759    0.0413 H         1 <0>         0.1321
     30 H7         -0.6999   -2.1443    0.8189 H         1 <0>         0.1425
     31 H8          0.4241   -3.3710    0.1976 H         1 <0>         0.1286
     32 H9          0.3227   -2.8490    3.1699 H         1 <0>         0.1241
     33 H10        -0.9532   -3.8370    2.4115 H         1 <0>         0.1242
     34 H11         4.3191   -5.3507    2.3299 H         1 <0>         0.1505
     35 H12         0.7233   -8.7208    2.8281 H         1 <0>         0.4009
     36 H13         3.8292   -8.2388    2.9792 H         1 <0>         0.4000
     37 H14         2.7489   -3.0115    0.3103 H         1 <0>         0.1378
     38 H15         3.3870   -1.5124    1.0173 H         1 <0>         0.1407
     39 H16         1.6744   -4.1377    4.5904 H         1 <0>         0.1339
     40 H17         0.5280   -2.9752    6.4336 H         1 <0>         0.1371
     41 H18         0.4238   -0.5152    6.4619 H         1 <0>         0.1371
     42 H19         1.4666    0.7822    4.6474 H         1 <0>         0.1372
     43 H20         2.6203   -0.3801    2.8086 H         1 <0>         0.1270
     44 H21         1.1937   -1.1968    1.9644 H         1 <0>         0.4174
@<TRIPOS>BOND
     1    1    2 2
     2    1   25 1
     3    1   26 1
     4    2    3 1
     5    2   27 1
     6    3    4 1
     7    3   28 1
     8    3   29 1
     9    4   18 1
    10    4    5 1
    11    4   44 1
    12    5    6 1
    13    5   30 1
    14    5   31 1
    15    6    7 1
    16    6   32 1
    17    6   33 1
    18    7   12 ar
    19    7    8 ar
    20    8    9 ar
    21    8   16 1
    22    9   10 ar
    23    9   34 1
    24   10   11 ar
    25   10   15 1
    26   11   12 ar
    27   11   14 1
    28   12   13 1
    29   14   35 1
    30   15   36 1
    31   16   17 1
    32   16   18 1
    33   16   19 1
    34   18   37 1
    35   18   38 1
    36   19   24 ar
    37   19   20 ar
    38   20   21 ar
    39   20   39 1
    40   21   22 ar
    41   21   40 1
    42   22   23 ar
    43   22   41 1
    44   23   24 ar
    45   23   42 1
    46   24   43 1
@<TRIPOS>MOLECULE
ZINC02530682
   43    45     0     0     0
SMALL
USER_CHARGES

@<TRIPOS>ATOM
      1 C1         -0.7269    1.7743   -0.1220 C.2       1 <0>        -0.1784
      2 C2         -0.5743    0.4774   -0.0182 C.2       1 <0>        -0.1524
      3 C3         -1.7782   -0.4284   -0.0565 C.3       1 <0>         0.0890
      4 N1         -1.6007   -1.4343   -1.1123 N.3       1 <0>        -0.5547
      5 C4         -0.3983   -2.2196   -0.8868 C.3       1 <0>         0.0785
      6 C5          0.0337   -2.9363   -2.1699 C.3       1 <0>        -0.1135
      7 C6         -0.7380   -4.2359   -2.2719 C.ar      1 <0>        -0.0314
      8 C7         -2.0885   -4.2114   -2.5221 C.ar      1 <0>        -0.0674
      9 C8         -2.8046   -5.3905   -2.6178 C.ar      1 <0>        -0.1083
     10 C9         -2.1526   -6.6042   -2.4602 C.ar      1 <0>         0.0828
     11 C10        -0.7849   -6.6297   -2.2070 C.ar      1 <0>         0.1091
     12 C11        -0.0765   -5.4406   -2.1125 C.ar      1 <0>        -0.1071
     13 Br1         1.7828   -5.4663   -1.7686 Br        1 <0>        -0.0249
     14 O1         -0.1431   -7.8189   -2.0522 O.3       1 <0>        -0.4750
     15 O2         -2.8495   -7.7683   -2.5527 O.3       1 <0>        -0.4820
     16 C12        -2.7992   -2.8848   -2.6951 C.3       1 <0>        -0.0044
     17 H1         -3.8177   -3.0564   -3.0437 H         1 <0>         0.1010
     18 C13        -2.8310   -2.1752   -1.3380 C.3       1 <0>         0.0767
     19 C14        -2.0562   -2.0372   -3.6954 C.ar      1 <0>        -0.0643
     20 C15        -1.4215   -2.6323   -4.7695 C.ar      1 <0>        -0.1183
     21 C16        -0.7399   -1.8547   -5.6870 C.ar      1 <0>        -0.1278
     22 C17        -0.6935   -0.4820   -5.5306 C.ar      1 <0>        -0.1213
     23 C18        -1.3290    0.1131   -4.4569 C.ar      1 <0>        -0.1264
     24 C19        -2.0142   -0.6640   -3.5418 C.ar      1 <0>        -0.0661
     25 H2          0.1358    2.4234   -0.0946 H         1 <0>         0.0983
     26 H3         -1.7150    2.1941   -0.2396 H         1 <0>         0.0965
     27 H4          0.4142    0.0573    0.0949 H         1 <0>         0.1092
     28 H5         -1.8880   -0.9276    0.9062 H         1 <0>         0.0423
     29 H6         -2.6707    0.1621   -0.2635 H         1 <0>         0.0801
     30 H7          0.4043   -1.5598   -0.5572 H         1 <0>         0.0857
     31 H8         -0.5938   -2.9600   -0.1112 H         1 <0>         0.0311
     32 H9         -0.1877   -2.3089   -3.0334 H         1 <0>         0.1187
     33 H10         1.1027   -3.1457   -2.1317 H         1 <0>         0.0858
     34 H11        -3.8664   -5.3662   -2.8139 H         1 <0>         0.1415
     35 H12         0.2028   -8.1893   -2.8758 H         1 <0>         0.3906
     36 H13        -2.8911   -8.1318   -3.4479 H         1 <0>         0.3896
     37 H14        -2.9527   -2.9169   -0.5485 H         1 <0>         0.0406
     38 H15        -3.6745   -1.4853   -1.3138 H         1 <0>         0.0846
     39 H16        -1.4577   -3.7047   -4.8917 H         1 <0>         0.1130
     40 H17        -0.2434   -2.3197   -6.5258 H         1 <0>         0.1166
     41 H18        -0.1604    0.1254   -6.2470 H         1 <0>         0.1163
     42 H19        -1.2924    1.1856   -4.3345 H         1 <0>         0.1174
     43 H20        -2.5138   -0.1987   -2.7050 H         1 <0>         0.1289
@<TRIPOS>BOND
     1    1    2 2
     2    1   25 1
     3    1   26 1
     4    2    3 1
     5    2   27 1
     6    3    4 1
     7    3   28 1
     8    3   29 1
     9    4   18 1
    10    4    5 1
    11    5    6 1
    12    5   30 1
    13    5   31 1
    14    6    7 1
    15    6   32 1
    16    6   33 1
    17    7   12 ar
    18    7    8 ar
    19    8    9 ar
    20    8   16 1
    21    9   10 ar
    22    9   34 1
    23   10   11 ar
    24   10   15 1
    25   11   12 ar
    26   11   14 1
    27   12   13 1
    28   14   35 1
    29   15   36 1
    30   16   17 1
    31   16   18 1
    32   16   19 1
    33   18   37 1
    34   18   38 1
    35   19   24 ar
    36   19   20 ar
    37   20   21 ar
    38   20   39 1
    39   21   22 ar
    40   21   40 1
    41   22   23 ar
    42   22   41 1
    43   23   24 ar
    44   23   42 1
    45   24   43 1
