@<TRIPOS>MOLECULE
ZINC03785159
   38    39     0     0     0
SMALL
USER_CHARGES

@<TRIPOS>ATOM
      1 C1         -0.0187    1.5258    0.0104 C.3       1 <0>        -0.1566
      2 C2          0.0021   -0.0041    0.0020 C.3       1 <0>        -0.1507
      3 C3          0.7421   -0.5109    1.2415 C.3       1 <0>        -0.0110
      4 N1          0.7620   -1.9797    1.2335 N.4       1 <0>        -0.3831
      5 C4          1.5443   -2.4507    0.0842 C.3       1 <0>        -0.0135
      6 C5          1.5009   -3.9791    0.0247 C.3       1 <0>        -0.1453
      7 C6          2.0923   -4.5518    1.3160 C.3       1 <0>        -0.1318
      8 C7          1.3153   -3.9953    2.5125 C.3       1 <0>        -0.0601
      9 H1          0.2782   -4.3266    2.4589 H         1 <0>         0.1042
     10 C8          1.3656   -2.4663    2.4799 C.3       1 <0>        -0.0041
     11 C9          1.9371   -4.4929    3.7918 C.ar      1 <0>        -0.0999
     12 C10         3.2550   -4.1875    4.0833 C.ar      1 <0>        -0.0864
     13 C11         3.8337   -4.6403    5.2554 C.ar      1 <0>        -0.1095
     14 C12         3.0992   -5.3998    6.1426 C.ar      1 <0>        -0.0579
     15 C13         1.7690   -5.7113    5.8551 C.ar      1 <0>        -0.0108
     16 C14         1.1897   -5.2470    4.6723 C.ar      1 <0>        -0.0597
     17 C15         1.0006   -6.4993    6.7713 C.1       1 <0>         0.2349
     18 N2          0.3911   -7.1243    7.4981 N.1       1 <0>        -0.3886
     19 H2          1.0039    1.9031    0.0027 H         1 <0>         0.0669
     20 H3         -0.5459    1.8868   -0.8726 H         1 <0>         0.0774
     21 H4         -0.5289    1.8773    0.9072 H         1 <0>         0.0673
     22 H5         -1.0205   -0.3814    0.0098 H         1 <0>         0.0859
     23 H6          0.5123   -0.3556   -0.8948 H         1 <0>         0.0861
     24 H7          1.7647   -0.1336    1.2338 H         1 <0>         0.1296
     25 H8          0.2319   -0.1594    2.1383 H         1 <0>         0.1311
     26 H9          1.1241   -2.0397   -0.8337 H         1 <0>         0.1326
     27 H10         2.5779   -2.1208    0.1892 H         1 <0>         0.1291
     28 H11         0.4677   -4.3100   -0.0805 H         1 <0>         0.0890
     29 H12         2.0838   -4.3268   -0.8282 H         1 <0>         0.1149
     30 H13         2.0121   -5.6388    1.3029 H         1 <0>         0.0982
     31 H14         3.1404   -4.2635    1.3960 H         1 <0>         0.0856
     32 H15         2.4030   -2.1361    2.5337 H         1 <0>         0.1312
     33 H16         0.8134   -2.0668    3.3305 H         1 <0>         0.1336
     34 H17         3.8345   -3.5933    3.3923 H         1 <0>         0.1298
     35 H18         4.8629   -4.3989    5.4763 H         1 <0>         0.1417
     36 H19         3.5523   -5.7530    7.0571 H         1 <0>         0.1409
     37 H20         0.1600   -5.4811    4.4456 H         1 <0>         0.1364
     38 H21        -0.1823   -2.3275    1.1601 H         1 <0>         0.4227
@<TRIPOS>BOND
     1    1    2 1
     2    1   19 1
     3    1   20 1
     4    1   21 1
     5    2    3 1
     6    2   22 1
     7    2   23 1
     8    3    4 1
     9    3   24 1
    10    3   25 1
    11    4   10 1
    12    4    5 1
    13    4   38 1
    14    5    6 1
    15    5   26 1
    16    5   27 1
    17    6    7 1
    18    6   28 1
    19    6   29 1
    20    7    8 1
    21    7   30 1
    22    7   31 1
    23    8    9 1
    24    8   10 1
    25    8   11 1
    26   10   32 1
    27   10   33 1
    28   11   16 ar
    29   11   12 ar
    30   12   13 ar
    31   12   34 1
    32   13   14 ar
    33   13   35 1
    34   14   15 ar
    35   14   36 1
    36   15   16 ar
    37   15   17 1
    38   16   37 1
    39   17   18 3
@<TRIPOS>MOLECULE
ZINC02169415
   51    53     0     0     0
SMALL
USER_CHARGES

@<TRIPOS>ATOM
      1 C1          0.1211    1.2205   -3.1182 C.3       1 <0>        -0.1554
      2 C2          0.1212   -0.2930   -2.8943 C.3       1 <0>        -0.1522
      3 C3          0.5756   -0.5972   -1.4653 C.3       1 <0>        -0.0201
      4 N1          0.5307   -2.0474   -1.2355 N.4       1 <0>        -0.3814
      5 C4         -0.8598   -2.5136   -1.3189 C.3       1 <0>        -0.0169
      6 C5         -1.6744   -1.8943   -0.1814 C.3       1 <0>        -0.0968
      7 C6         -3.0637   -2.4784   -0.1827 C.ar      1 <0>        -0.1073
      8 C7         -4.0648   -1.8787   -0.9236 C.ar      1 <0>        -0.1097
      9 C8         -5.3392   -2.4144   -0.9248 C.ar      1 <0>        -0.1136
     10 C9         -5.6122   -3.5500   -0.1855 C.ar      1 <0>        -0.1044
     11 C10        -4.6108   -4.1503    0.5547 C.ar      1 <0>        -0.1137
     12 C11        -3.3354   -3.6170    0.5525 C.ar      1 <0>        -0.1108
     13 C12         1.3381   -2.7300   -2.2553 C.3       1 <0>         0.0202
     14 H1          0.9446   -2.5044   -3.2465 H         1 <0>         0.1445
     15 C13         2.7949   -2.2617   -2.1593 C.3       1 <0>        -0.1386
     16 C14         3.5541   -2.7985   -3.3710 C.3       1 <0>        -0.0685
     17 C15         3.3324   -4.2809   -3.5206 C.ar      1 <0>        -0.1100
     18 C16         2.2929   -4.9405   -2.9056 C.ar      1 <0>        -0.0755
     19 C17         2.1397   -6.3086   -3.0915 C.ar      1 <0>        -0.1201
     20 C18         3.0232   -7.0147   -3.8823 C.ar      1 <0>        -0.0943
     21 C19         4.0710   -6.3578   -4.4975 C.ar      1 <0>        -0.1328
     22 C20         4.2258   -4.9935   -4.3180 C.ar      1 <0>         0.1136
     23 O1          5.2555   -4.3454   -4.9234 O.3       1 <0>        -0.4942
     24 C21         1.2991   -4.2382   -2.0176 C.3       1 <0>        -0.0918
     25 H2         -0.5617    1.6923   -2.4116 H         1 <0>         0.0668
     26 H3          1.1276    1.6103   -2.9662 H         1 <0>         0.0672
     27 H4         -0.2026    1.4372   -4.1362 H         1 <0>         0.0768
     28 H5         -0.8853   -0.6828   -3.0463 H         1 <0>         0.0858
     29 H6          0.8041   -0.7648   -3.6009 H         1 <0>         0.0873
     30 H7          1.5950   -0.2382   -1.3241 H         1 <0>         0.1334
     31 H8         -0.0869   -0.0967   -0.7591 H         1 <0>         0.1340
     32 H9         -1.2865   -2.2144   -2.2762 H         1 <0>         0.1340
     33 H10        -0.8845   -3.6000   -1.2338 H         1 <0>         0.1338
     34 H11        -1.1906   -2.1099    0.7712 H         1 <0>         0.0938
     35 H12        -1.7338   -0.8152   -0.3228 H         1 <0>         0.0953
     36 H13        -3.8515   -0.9914   -1.5013 H         1 <0>         0.1234
     37 H14        -6.1215   -1.9455   -1.5031 H         1 <0>         0.1293
     38 H15        -6.6080   -3.9682   -0.1859 H         1 <0>         0.1296
     39 H16        -4.8242   -5.0373    1.1326 H         1 <0>         0.1293
     40 H17        -2.5522   -4.0881    1.1278 H         1 <0>         0.1236
     41 H18         2.8309   -1.1723   -2.1566 H         1 <0>         0.0944
     42 H19         3.2447   -2.6466   -1.2441 H         1 <0>         0.0924
     43 H20         3.2032   -2.2902   -4.2691 H         1 <0>         0.0891
     44 H21         4.6191   -2.6055   -3.2423 H         1 <0>         0.0953
     45 H22         1.3212   -6.8249   -2.6121 H         1 <0>         0.1287
     46 H23         2.8959   -8.0784   -4.0194 H         1 <0>         0.1355
     47 H24         4.7668   -6.9060   -5.1155 H         1 <0>         0.1369
     48 H25         6.0632   -4.3085   -4.3930 H         1 <0>         0.3953
     49 H26         1.5412   -4.4440   -0.9749 H         1 <0>         0.0972
     50 H27         0.2976   -4.6103   -2.2335 H         1 <0>         0.0996
     51 H28         0.9005   -2.2543   -0.3198 H         1 <0>         0.4223
@<TRIPOS>BOND
     1    1    2 1
     2    1   25 1
     3    1   26 1
     4    1   27 1
     5    2    3 1
     6    2   28 1
     7    2   29 1
     8    3    4 1
     9    3   30 1
    10    3   31 1
    11    4    5 1
    12    4   13 1
    13    4   51 1
    14    5    6 1
    15    5   32 1
    16    5   33 1
    17    6    7 1
    18    6   34 1
    19    6   35 1
    20    7   12 ar
    21    7    8 ar
    22    8    9 ar
    23    8   36 1
    24    9   10 ar
    25    9   37 1
    26   10   11 ar
    27   10   38 1
    28   11   12 ar
    29   11   39 1
    30   12   40 1
    31   13   14 1
    32   13   24 1
    33   13   15 1
    34   15   16 1
    35   15   41 1
    36   15   42 1
    37   16   17 1
    38   16   43 1
    39   16   44 1
    40   17   22 ar
    41   17   18 ar
    42   18   19 ar
    43   18   24 1
    44   19   20 ar
    45   19   45 1
    46   20   21 ar
    47   20   46 1
    48   21   22 ar
    49   21   47 1
    50   22   23 1
    51   23   48 1
    52   24   49 1
    53   24   50 1
@<TRIPOS>MOLECULE
ZINC02169418
   51    53     0     0     0
SMALL
USER_CHARGES

@<TRIPOS>ATOM
      1 C1         -0.1570    1.5040   -0.0065 C.3       1 <0>        -0.1558
      2 C2         -0.1131   -0.0252   -0.0294 C.3       1 <0>        -0.1485
      3 C3          0.6431   -0.4951   -1.2737 C.3       1 <0>        -0.0231
      4 N1          0.8044   -1.9545   -1.2266 N.4       1 <0>        -0.3815
      5 C4         -0.5154   -2.5956   -1.2986 C.3       1 <0>        -0.0142
      6 C5         -1.1513   -2.3024   -2.6589 C.3       1 <0>        -0.0995
      7 C6         -2.5572   -2.8446   -2.6836 C.ar      1 <0>        -0.1068
      8 C7         -2.7912   -4.1397   -3.1064 C.ar      1 <0>        -0.1099
      9 C8         -4.0807   -4.6371   -3.1290 C.ar      1 <0>        -0.1131
     10 C9         -5.1363   -3.8394   -2.7283 C.ar      1 <0>        -0.1045
     11 C10        -4.9022   -2.5446   -2.3046 C.ar      1 <0>        -0.1133
     12 C11        -3.6121   -2.0487   -2.2780 C.ar      1 <0>        -0.1110
     13 C12         1.6246   -2.3934   -2.3635 C.3       1 <0>         0.0189
     14 H1          1.1134   -2.1588   -3.2971 H         1 <0>         0.1441
     15 C13         1.8663   -3.9047   -2.2728 C.3       1 <0>        -0.1380
     16 C14         2.5094   -4.3686   -3.5782 C.3       1 <0>        -0.0721
     17 C15         3.7047   -3.5150   -3.9122 C.ar      1 <0>        -0.1100
     18 C16         3.9158   -2.2801   -3.3428 C.ar      1 <0>        -0.0758
     19 C17         5.0353   -1.5394   -3.7004 C.ar      1 <0>        -0.1203
     20 C18         5.9413   -2.0317   -4.6175 C.ar      1 <0>        -0.0943
     21 C19         5.7364   -3.2728   -5.1880 C.ar      1 <0>        -0.1328
     22 C20         4.6204   -4.0137   -4.8367 C.ar      1 <0>         0.1139
     23 O1          4.4168   -5.2348   -5.3974 O.3       1 <0>        -0.4943
     24 C21         2.9772   -1.6850   -2.3257 C.3       1 <0>        -0.0918
     25 H2          0.8596    1.8964    0.0164 H         1 <0>         0.0669
     26 H3         -0.6663    1.8663   -0.8995 H         1 <0>         0.0668
     27 H4         -0.6957    1.8388    0.8800 H         1 <0>         0.0774
     28 H5          0.3962   -0.3874    0.8637 H         1 <0>         0.0854
     29 H6         -1.1298   -0.4176   -0.0523 H         1 <0>         0.0867
     30 H7          0.0806   -0.2203   -2.1660 H         1 <0>         0.1320
     31 H8          1.6245   -0.0218   -1.3028 H         1 <0>         0.1335
     32 H9         -0.4033   -3.6727   -1.1745 H         1 <0>         0.1341
     33 H10        -1.1536   -2.2031   -0.5070 H         1 <0>         0.1358
     34 H11        -1.1743   -1.2253   -2.8247 H         1 <0>         0.0938
     35 H12        -0.5645   -2.7784   -3.4445 H         1 <0>         0.0952
     36 H13        -1.9665   -4.7629   -3.4194 H         1 <0>         0.1234
     37 H14        -4.2636   -5.6487   -3.4600 H         1 <0>         0.1294
     38 H15        -6.1439   -4.2278   -2.7467 H         1 <0>         0.1296
     39 H16        -5.7269   -1.9213   -1.9919 H         1 <0>         0.1292
     40 H17        -3.4288   -1.0383   -1.9434 H         1 <0>         0.1226
     41 H18         2.5331   -4.1205   -1.4380 H         1 <0>         0.0933
     42 H19         0.9169   -4.4203   -2.1278 H         1 <0>         0.0937
     43 H20         2.8266   -5.4062   -3.4738 H         1 <0>         0.1023
     44 H21         1.7793   -4.2959   -4.3843 H         1 <0>         0.0849
     45 H22         5.1980   -0.5685   -3.2564 H         1 <0>         0.1287
     46 H23         6.8084   -1.4477   -4.8889 H         1 <0>         0.1355
     47 H24         6.4431   -3.6637   -5.9050 H         1 <0>         0.1368
     48 H25         3.9013   -5.2111   -6.2152 H         1 <0>         0.3956
     49 H26         2.8347   -0.6265   -2.5431 H         1 <0>         0.1001
     50 H27         3.4111   -1.7918   -1.3315 H         1 <0>         0.0973
     51 H28         1.2583   -2.2150   -0.3640 H         1 <0>         0.4235
@<TRIPOS>BOND
     1    1    2 1
     2    1   25 1
     3    1   26 1
     4    1   27 1
     5    2    3 1
     6    2   28 1
     7    2   29 1
     8    3    4 1
     9    3   30 1
    10    3   31 1
    11    4    5 1
    12    4   13 1
    13    4   51 1
    14    5    6 1
    15    5   32 1
    16    5   33 1
    17    6    7 1
    18    6   34 1
    19    6   35 1
    20    7   12 ar
    21    7    8 ar
    22    8    9 ar
    23    8   36 1
    24    9   10 ar
    25    9   37 1
    26   10   11 ar
    27   10   38 1
    28   11   12 ar
    29   11   39 1
    30   12   40 1
    31   13   14 1
    32   13   24 1
    33   13   15 1
    34   15   16 1
    35   15   41 1
    36   15   42 1
    37   16   17 1
    38   16   43 1
    39   16   44 1
    40   17   22 ar
    41   17   18 ar
    42   18   19 ar
    43   18   24 1
    44   19   20 ar
    45   19   45 1
    46   20   21 ar
    47   20   46 1
    48   21   22 ar
    49   21   47 1
    50   22   23 1
    51   23   48 1
    52   24   49 1
    53   24   50 1
@<TRIPOS>MOLECULE
ZINC01735106
   44    47     0     0     0
SMALL
USER_CHARGES

@<TRIPOS>ATOM
      1 C1         -0.0187    1.5258    0.0104 C.3       1 <0>        -0.1559
      2 C2          0.0021   -0.0041    0.0020 C.3       1 <0>        -0.1498
      3 C3          0.7182   -0.4975   -1.2568 C.3       1 <0>        -0.0179
      4 N1          0.7381   -1.9663   -1.2649 N.4       1 <0>        -0.3808
      5 C4         -0.6309   -2.4715   -1.3713 C.3       1 <0>        -0.0091
      6 C5         -0.6674   -3.9804   -1.1911 C.3       1 <0>        -0.1040
      7 C6          0.4971   -4.6576   -1.8567 C.ar      1 <0>        -0.0852
      8 C7          0.5145   -6.0460   -1.8985 C.ar      1 <0>        -0.1049
      9 C8          1.5466   -6.7216   -2.5180 C.ar      1 <0>        -0.0901
     10 C9          2.5791   -6.0152   -3.1019 C.ar      1 <0>        -0.1020
     11 C10         2.5800   -4.6263   -3.0466 C.ar      1 <0>        -0.0116
     12 C11         1.5293   -3.9447   -2.4270 C.ar      1 <0>        -0.1241
     13 C12         1.5291   -2.4389   -2.4108 C.3       1 <0>         0.0913
     14 H1          1.0854   -2.0673   -3.3344 H         1 <0>         0.1455
     15 C13         2.9497   -1.8929   -2.2835 C.3       1 <0>        -0.0937
     16 C14         3.8562   -2.5150   -3.3100 C.ar      1 <0>        -0.0796
     17 C15         3.6812   -3.8512   -3.6652 C.ar      1 <0>        -0.0644
     18 C16         4.5349   -4.4443   -4.5942 C.ar      1 <0>         0.1045
     19 C17         5.5497   -3.6890   -5.1735 C.ar      1 <0>         0.0996
     20 C18         5.7043   -2.3564   -4.8263 C.ar      1 <0>        -0.1173
     21 C19         4.8603   -1.7731   -3.8971 C.ar      1 <0>        -0.0939
     22 O1          6.3893   -4.2581   -6.0795 O.3       1 <0>        -0.4821
     23 O2          4.3773   -5.7517   -4.9314 O.3       1 <0>        -0.4759
     24 H2          1.0039    1.9031    0.0027 H         1 <0>         0.0676
     25 H3         -0.5459    1.8868   -0.8726 H         1 <0>         0.0673
     26 H4         -0.5289    1.8773    0.9072 H         1 <0>         0.0780
     27 H5          0.5293   -0.3651    0.8851 H         1 <0>         0.0869
     28 H6         -1.0205   -0.3814    0.0098 H         1 <0>         0.0869
     29 H7          0.1910   -0.1364   -2.1398 H         1 <0>         0.1325
     30 H8          1.7408   -0.1202   -1.2645 H         1 <0>         0.1348
     31 H9         -1.2462   -2.0038   -0.6028 H         1 <0>         0.1402
     32 H10        -1.0310   -2.2181   -2.3530 H         1 <0>         0.1302
     33 H11        -0.6491   -4.2102   -0.1258 H         1 <0>         0.1043
     34 H12        -1.5929   -4.3657   -1.6190 H         1 <0>         0.1229
     35 H13        -0.2891   -6.6036   -1.4405 H         1 <0>         0.1356
     36 H14         1.5466   -7.8013   -2.5455 H         1 <0>         0.1399
     37 H15         3.3818   -6.5391   -3.5994 H         1 <0>         0.1672
     38 H16         2.9328   -0.8126   -2.4277 H         1 <0>         0.1073
     39 H17         3.3311   -2.1148   -1.2868 H         1 <0>         0.1010
     40 H18         6.4880   -1.7699   -5.2826 H         1 <0>         0.1450
     41 H19         4.9883   -0.7342   -3.6308 H         1 <0>         0.1396
     42 H20         6.0854   -4.1892   -6.9949 H         1 <0>         0.3965
     43 H21         3.7843   -5.8957   -5.6816 H         1 <0>         0.3942
     44 H22         1.1538   -2.3014   -0.4087 H         1 <0>         0.4239
@<TRIPOS>BOND
     1    1    2 1
     2    1   24 1
     3    1   25 1
     4    1   26 1
     5    2    3 1
     6    2   27 1
     7    2   28 1
     8    3    4 1
     9    3   29 1
    10    3   30 1
    11    4   13 1
    12    4    5 1
    13    4   44 1
    14    5    6 1
    15    5   31 1
    16    5   32 1
    17    6    7 1
    18    6   33 1
    19    6   34 1
    20    7   12 ar
    21    7    8 ar
    22    8    9 ar
    23    8   35 1
    24    9   10 ar
    25    9   36 1
    26   10   11 ar
    27   10   37 1
    28   11   17 1
    29   11   12 ar
    30   12   13 1
    31   13   14 1
    32   13   15 1
    33   15   16 1
    34   15   38 1
    35   15   39 1
    36   16   21 ar
    37   16   17 ar
    38   17   18 ar
    39   18   19 ar
    40   18   23 1
    41   19   20 ar
    42   19   22 1
    43   20   21 ar
    44   20   40 1
    45   21   41 1
    46   22   42 1
    47   23   43 1
@<TRIPOS>MOLECULE
ZINC01735106
   43    46     0     0     0
SMALL
USER_CHARGES

@<TRIPOS>ATOM
      1 C1         -0.0187    1.5258    0.0104 C.3       1 <0>        -0.1525
      2 C2          0.0021   -0.0041    0.0020 C.3       1 <0>        -0.1213
      3 C3          0.7182   -0.4975   -1.2568 C.3       1 <0>         0.0485
      4 N1          0.7381   -1.9663   -1.2649 N.3       1 <0>        -0.5302
      5 C4         -0.6146   -2.5086   -1.4036 C.3       1 <0>         0.0526
      6 C5         -0.6236   -4.0088   -1.1621 C.3       1 <0>        -0.0769
      7 C6          0.5903   -4.6864   -1.7312 C.ar      1 <0>        -0.0672
      8 C7          0.6326   -6.0755   -1.7136 C.ar      1 <0>        -0.1165
      9 C8          1.7101   -6.7575   -2.2416 C.ar      1 <0>        -0.1201
     10 C9          2.7659   -6.0576   -2.7908 C.ar      1 <0>        -0.1129
     11 C10         2.7415   -4.6678   -2.7940 C.ar      1 <0>        -0.0450
     12 C11         1.6430   -3.9804   -2.2706 C.ar      1 <0>        -0.0594
     13 C12         1.6176   -2.4756   -2.3277 C.3       1 <0>         0.1315
     14 H1          1.2350   -2.1569   -3.2973 H         1 <0>         0.0551
     15 C13         3.0169   -1.8977   -2.1285 C.3       1 <0>        -0.0733
     16 C14         3.9991   -2.5458   -3.0659 C.ar      1 <0>        -0.0657
     17 C15         3.8681   -3.8987   -3.3736 C.ar      1 <0>        -0.0514
     18 C16         4.7888   -4.5143   -4.2205 C.ar      1 <0>         0.0945
     19 C17         5.8273   -3.7656   -4.7649 C.ar      1 <0>         0.0806
     20 C18         5.9393   -2.4174   -4.4649 C.ar      1 <0>        -0.1265
     21 C19         5.0279   -1.8112   -3.6179 C.ar      1 <0>        -0.1048
     22 O1          6.7316   -4.3563   -5.5913 O.3       1 <0>        -0.4862
     23 O2          4.6722   -5.8367   -4.5126 O.3       1 <0>        -0.4773
     24 H2          1.0039    1.9031    0.0027 H         1 <0>         0.0554
     25 H3         -0.5459    1.8868   -0.8726 H         1 <0>         0.0526
     26 H4         -0.5289    1.8773    0.9072 H         1 <0>         0.0577
     27 H5          0.5293   -0.3651    0.8851 H         1 <0>         0.0718
     28 H6         -1.0205   -0.3814    0.0098 H         1 <0>         0.0622
     29 H7          0.1910   -0.1364   -2.1398 H         1 <0>         0.0354
     30 H8          1.7408   -0.1202   -1.2645 H         1 <0>         0.0817
     31 H9         -1.2706   -2.0250   -0.6798 H         1 <0>         0.0866
     32 H10        -0.9808   -2.3053   -2.4099 H         1 <0>         0.0343
     33 H11        -0.6605   -4.1934   -0.0885 H         1 <0>         0.0826
     34 H12        -1.5147   -4.4352   -1.6228 H         1 <0>         0.0795
     35 H13        -0.1884   -6.6283   -1.2815 H         1 <0>         0.1217
     36 H14         1.7276   -7.8373   -2.2248 H         1 <0>         0.1252
     37 H15         3.6061   -6.5869   -3.2151 H         1 <0>         0.1553
     38 H16         2.9927   -0.8249   -2.3194 H         1 <0>         0.0840
     39 H17         3.3339   -2.0715   -1.1002 H         1 <0>         0.0939
     40 H18         6.7420   -1.8365   -4.8946 H         1 <0>         0.1359
     41 H19         5.1225   -0.7601   -3.3885 H         1 <0>         0.1337
     42 H20         6.4860   -4.3299   -6.5262 H         1 <0>         0.3877
     43 H21         4.1312   -6.0210   -5.2927 H         1 <0>         0.3872
@<TRIPOS>BOND
     1    1    2 1
     2    1   24 1
     3    1   25 1
     4    1   26 1
     5    2    3 1
     6    2   27 1
     7    2   28 1
     8    3    4 1
     9    3   29 1
    10    3   30 1
    11    4   13 1
    12    4    5 1
    13    5    6 1
    14    5   31 1
    15    5   32 1
    16    6    7 1
    17    6   33 1
    18    6   34 1
    19    7   12 ar
    20    7    8 ar
    21    8    9 ar
    22    8   35 1
    23    9   10 ar
    24    9   36 1
    25   10   11 ar
    26   10   37 1
    27   11   17 1
    28   11   12 ar
    29   12   13 1
    30   13   14 1
    31   13   15 1
    32   15   16 1
    33   15   38 1
    34   15   39 1
    35   16   21 ar
    36   16   17 ar
    37   17   18 ar
    38   18   19 ar
    39   18   23 1
    40   19   20 ar
    41   19   22 1
    42   20   21 ar
    43   20   40 1
    44   21   41 1
    45   22   42 1
    46   23   43 1
@<TRIPOS>MOLECULE
ZINC03786466
   49    52     0     0     0
SMALL
USER_CHARGES

@<TRIPOS>ATOM
      1 C1         -0.0187    1.5258    0.0104 C.3       1 <0>        -0.1558
      2 C2          0.0021   -0.0041    0.0020 C.3       1 <0>        -0.1498
      3 C3          0.7421   -0.5109    1.2415 C.3       1 <0>        -0.0188
      4 N1          0.7620   -1.9797    1.2335 N.4       1 <0>        -0.3806
      5 C4         -0.6101   -2.4861    1.3521 C.3       1 <0>        -0.0057
      6 C5         -0.6004   -4.0136    1.2571 C.3       1 <0>        -0.0898
      7 H1         -0.1781   -4.3164    0.2989 H         1 <0>         0.1056
      8 C6          0.2521   -4.5820    2.3946 C.3       1 <0>        -0.1280
      9 C7          1.6621   -3.9884    2.3134 C.3       1 <0>        -0.0374
     10 H2          2.1261   -4.2935    1.3755 H         1 <0>         0.1035
     11 C8          1.5740   -2.4625    2.3580 C.3       1 <0>         0.0403
     12 H3          1.0792   -2.1743    3.2855 H         1 <0>         0.1338
     13 C9          2.9415   -1.7644    2.3169 C.3       1 <0>        -0.0487
     14 C10         3.7806   -2.3188    3.4398 C.2       1 <0>        -0.2002
     15 C11         4.7972   -1.8861    4.1694 C.2       1 <0>         0.0906
     16 N2          5.1731   -2.8522    5.0907 N.pl3     1 <0>        -0.5885
     17 H4          5.8954   -2.7557    5.7308 H         1 <0>         0.4238
     18 C12         4.3837   -3.9557    4.9695 C.ar      1 <0>         0.1146
     19 C13         3.4898   -3.6653    3.9323 C.ar      1 <0>        -0.1355
     20 C14         2.4854   -4.4951    3.4586 C.ar      1 <0>        -0.0472
     21 C15         2.3923   -5.6916    4.0965 C.ar      1 <0>        -0.1170
     22 C16         3.2547   -5.9991    5.1479 C.ar      1 <0>        -0.0959
     23 C17         4.2659   -5.2011    5.5842 C.ar      1 <0>        -0.1047
     24 C18        -2.0313   -4.5424    1.3751 C.3       1 <0>        -0.0921
     25 S1         -2.0359   -6.3376    1.1149 S.3       1 <0>        -0.2398
     26 C19        -3.7814   -6.8013    1.2853 C.3       1 <0>        -0.1232
     27 H5          1.0039    1.9031    0.0027 H         1 <0>         0.0674
     28 H6         -0.5459    1.8868   -0.8726 H         1 <0>         0.0771
     29 H7         -0.5289    1.8773    0.9072 H         1 <0>         0.0665
     30 H8         -1.0205   -0.3814    0.0098 H         1 <0>         0.0853
     31 H9          0.5123   -0.3556   -0.8948 H         1 <0>         0.0868
     32 H10         1.7647   -0.1336    1.2338 H         1 <0>         0.1371
     33 H11         0.2319   -0.1594    2.1383 H         1 <0>         0.1304
     34 H12        -1.0268   -2.1845    2.3131 H         1 <0>         0.1316
     35 H13        -1.2196   -2.0759    0.5469 H         1 <0>         0.1362
     36 H14        -0.1981   -4.3211    3.3524 H         1 <0>         0.0877
     37 H15         0.3078   -5.6666    2.3010 H         1 <0>         0.1093
     38 H16         3.4275   -1.9619    1.3614 H         1 <0>         0.0928
     39 H17         2.8112   -0.6904    2.4498 H         1 <0>         0.0980
     40 H18         5.2667   -0.9194    4.0622 H         1 <0>         0.1734
     41 H19         1.6457   -6.4082    3.7873 H         1 <0>         0.1269
     42 H20         3.1443   -6.9607    5.6271 H         1 <0>         0.1259
     43 H21         4.9178   -5.4969    6.3928 H         1 <0>         0.1359
     44 H22        -2.4207   -4.3182    2.3682 H         1 <0>         0.0922
     45 H23        -2.6585   -4.0646    0.6225 H         1 <0>         0.0926
     46 H24        -4.3718   -6.2760    0.5346 H         1 <0>         0.0810
     47 H25        -3.8871   -7.8768    1.1435 H         1 <0>         0.1099
     48 H26        -4.1340   -6.5296    2.2803 H         1 <0>         0.0813
     49 H27         1.1636   -2.3045    0.3667 H         1 <0>         0.4212
@<TRIPOS>BOND
     1    1    2 1
     2    1   27 1
     3    1   28 1
     4    1   29 1
     5    2    3 1
     6    2   30 1
     7    2   31 1
     8    3    4 1
     9    3   32 1
    10    3   33 1
    11    4   11 1
    12    4    5 1
    13    4   49 1
    14    5    6 1
    15    5   34 1
    16    5   35 1
    17    6    7 1
    18    6    8 1
    19    6   24 1
    20    8    9 1
    21    8   36 1
    22    8   37 1
    23    9   10 1
    24    9   20 1
    25    9   11 1
    26   11   12 1
    27   11   13 1
    28   13   14 1
    29   13   38 1
    30   13   39 1
    31   14   19 1
    32   14   15 2
    33   15   16 1
    34   15   40 1
    35   16   17 1
    36   16   18 1
    37   18   23 ar
    38   18   19 ar
    39   19   20 ar
    40   20   21 ar
    41   21   22 ar
    42   21   41 1
    43   22   23 ar
    44   22   42 1
    45   23   43 1
    46   24   25 1
    47   24   44 1
    48   24   45 1
    49   25   26 1
    50   26   46 1
    51   26   47 1
    52   26   48 1
@<TRIPOS>MOLECULE
ZINC00004028
   48    50     0     0     0
SMALL
USER_CHARGES

@<TRIPOS>ATOM
      1 C1          2.6184    1.2327    1.6979 C.3       1 <0>        -0.1554
      2 C2          2.4485   -0.2812    1.5557 C.3       1 <0>        -0.1529
      3 C3          0.9894   -0.6020    1.2256 C.3       1 <0>        -0.0212
      4 N1          0.8360   -2.0514    1.0424 N.4       1 <0>        -0.3812
      5 C4          1.6121   -2.4819   -0.1282 C.3       1 <0>        -0.0188
      6 C5          1.0259   -1.8464   -1.3906 C.3       1 <0>        -0.0477
      7 C6          1.7319   -2.3952   -2.6036 C.2       1 <0>        -0.1917
      8 C7          1.4198   -3.4790   -3.3554 C.2       1 <0>        -0.1225
      9 C8          2.2198   -3.7976   -4.4367 C.2       1 <0>        -0.1695
     10 C9          3.2928   -3.0169   -4.7132 C.2       1 <0>        -0.1431
     11 S1          3.1920   -1.7820   -3.4279 S.3       1 <0>         0.0577
     12 C10         1.3251   -2.7506    2.2382 C.3       1 <0>         0.0204
     13 H1          2.3765   -2.5120    2.3985 H         1 <0>         0.1452
     14 C11         0.5055   -2.3190    3.4600 C.3       1 <0>        -0.1385
     15 C12         1.1825   -2.8706    4.7131 C.3       1 <0>        -0.0686
     16 C13         1.4456   -4.3464    4.5666 C.ar      1 <0>        -0.1099
     17 C14         1.4438   -4.9820    3.3461 C.ar      1 <0>        -0.0756
     18 C15         1.7023   -6.3452    3.2794 C.ar      1 <0>        -0.1201
     19 C16         1.9552   -7.0706    4.4259 C.ar      1 <0>        -0.0943
     20 C17         1.9532   -6.4380    5.6538 C.ar      1 <0>        -0.1326
     21 C18         1.6995   -5.0785    5.7249 C.ar      1 <0>         0.1136
     22 O1          1.6981   -4.4542    6.9321 O.3       1 <0>        -0.4942
     23 C19         1.1618   -4.2581    2.0553 C.3       1 <0>        -0.0920
     24 H2          1.9760    1.5966    2.4997 H         1 <0>         0.0674
     25 H3          3.6579    1.4612    1.9330 H         1 <0>         0.0772
     26 H4          2.3422    1.7187    0.7621 H         1 <0>         0.0670
     27 H5          3.0909   -0.6452    0.7538 H         1 <0>         0.0859
     28 H6          2.7247   -0.7673    2.4914 H         1 <0>         0.0880
     29 H7          0.3503   -0.2695    2.0436 H         1 <0>         0.1350
     30 H8          0.7028   -0.0875    0.3084 H         1 <0>         0.1340
     31 H9          2.6495   -2.1682   -0.0117 H         1 <0>         0.1360
     32 H10         1.5682   -3.5676   -0.2140 H         1 <0>         0.1367
     33 H11        -0.0374   -2.0776   -1.4535 H         1 <0>         0.1051
     34 H12         1.1609   -0.7656   -1.3495 H         1 <0>         0.1008
     35 H13         0.5591   -4.0847   -3.1131 H         1 <0>         0.1354
     36 H14         1.9935   -4.6560   -5.0518 H         1 <0>         0.1421
     37 H15         4.0181   -3.1143   -5.5075 H         1 <0>         0.1932
     38 H16         0.4685   -1.2308    3.5115 H         1 <0>         0.0948
     39 H17        -0.5059   -2.7180    3.3832 H         1 <0>         0.0927
     40 H18         2.1277   -2.3508    4.8694 H         1 <0>         0.0894
     41 H19         0.5350   -2.7046    5.5741 H         1 <0>         0.0955
     42 H20         1.7050   -6.8425    2.3207 H         1 <0>         0.1286
     43 H21         2.1539   -8.1303    4.3632 H         1 <0>         0.1354
     44 H22         2.1482   -7.0012    6.5544 H         1 <0>         0.1369
     45 H23         0.8341   -4.4392    7.3661 H         1 <0>         0.3954
     46 H24         0.1413   -4.4732    1.7385 H         1 <0>         0.0975
     47 H25         1.8558   -4.6044    1.2895 H         1 <0>         0.0997
     48 H26        -0.1383   -2.2711    0.8992 H         1 <0>         0.4230
@<TRIPOS>BOND
     1    1    2 1
     2    1   24 1
     3    1   25 1
     4    1   26 1
     5    2    3 1
     6    2   27 1
     7    2   28 1
     8    3    4 1
     9    3   29 1
    10    3   30 1
    11    4    5 1
    12    4   12 1
    13    4   48 1
    14    5    6 1
    15    5   31 1
    16    5   32 1
    17    6    7 1
    18    6   33 1
    19    6   34 1
    20    7   11 1
    21    7    8 2
    22    8    9 1
    23    8   35 1
    24    9   10 2
    25    9   36 1
    26   10   11 1
    27   10   37 1
    28   12   13 1
    29   12   23 1
    30   12   14 1
    31   14   15 1
    32   14   38 1
    33   14   39 1
    34   15   16 1
    35   15   40 1
    36   15   41 1
    37   16   21 ar
    38   16   17 ar
    39   17   18 ar
    40   17   23 1
    41   18   19 ar
    42   18   42 1
    43   19   20 ar
    44   19   43 1
    45   20   21 ar
    46   20   44 1
    47   21   22 1
    48   22   45 1
    49   23   46 1
    50   23   47 1
@<TRIPOS>MOLECULE
ZINC19796084
   64    68     0     0     0
SMALL
USER_CHARGES

@<TRIPOS>ATOM
      1 C1         -0.2663   -0.3620    5.4641 C.ar      1 <0>        -0.0986
      2 C2          0.6994    0.5149    5.0004 C.ar      1 <0>        -0.1026
      3 C3          1.8638    0.0332    4.4352 C.ar      1 <0>        -0.1044
      4 C4          2.0664   -1.3346    4.3318 C.ar      1 <0>         0.0788
      5 C5          1.0924   -2.2191    4.7995 C.ar      1 <0>         0.0916
      6 C6         -0.0735   -1.7260    5.3654 C.ar      1 <0>        -0.0998
      7 N1          1.5706   -3.5059    4.5639 N.am      1 <0>        -0.6391
      8 H1          1.1107   -4.3313    4.7830 H         1 <0>         0.4399
      9 C7          2.7798   -3.4086    3.9799 C.2       1 <0>         0.6857
     10 O1          3.4724   -4.3503    3.6415 O.2       1 <0>        -0.5583
     11 N2          3.1062   -2.1115    3.8266 N.am      1 <0>        -0.5378
     12 C8          4.3442   -1.6036    3.2301 C.3       1 <0>         0.1610
     13 C9          4.4622   -2.1072    1.7886 C.3       1 <0>        -0.1674
     14 C10         5.7941   -1.6393    1.1981 C.3       1 <0>         0.0018
     15 N3          6.9027   -2.1747    1.9974 N.4       1 <0>        -0.3868
     16 C11         6.8368   -1.6390    3.3624 C.3       1 <0>        -0.0033
     17 C12         5.5451   -2.1068    4.0361 C.3       1 <0>        -0.1667
     18 C13         8.1794   -1.7878    1.3822 C.3       1 <0>        -0.0099
     19 C14         9.3321   -2.4478    2.1415 C.3       1 <0>        -0.1521
     20 C15        10.6618   -2.0449    1.5008 C.3       1 <0>        -0.1087
     21 C16        11.8145   -2.7048    2.2601 C.3       1 <0>         0.0020
     22 C17        11.7312   -4.2008    2.0984 C.ar      1 <0>        -0.0960
     23 C18        11.6406   -4.7550    0.8351 C.ar      1 <0>        -0.0887
     24 C19        11.5647   -6.1268    0.6856 C.ar      1 <0>        -0.1502
     25 C20        11.5793   -6.9462    1.8016 C.ar      1 <0>         0.1040
     26 C21        11.6701   -6.3900    3.0664 C.ar      1 <0>        -0.1491
     27 C22        11.7512   -5.0182    3.2131 C.ar      1 <0>        -0.0845
     28 F1         11.5046   -8.2873    1.6567 F         1 <0>        -0.1345
     29 C23        13.1272   -2.2122    1.7076 C.ar      1 <0>        -0.0972
     30 C24        13.3682   -2.2667    0.3474 C.ar      1 <0>        -0.0865
     31 C25        14.5714   -1.8148   -0.1604 C.ar      1 <0>        -0.1502
     32 C26        15.5358   -1.3073    0.6937 C.ar      1 <0>         0.1057
     33 C27        15.2933   -1.2531    2.0559 C.ar      1 <0>        -0.1489
     34 C28        14.0872   -1.7008    2.5608 C.ar      1 <0>        -0.0812
     35 F2         16.7126   -0.8656    0.1985 F         1 <0>        -0.1344
     36 H2         -1.1724    0.0221    5.9090 H         1 <0>         0.1403
     37 H3          0.5414    1.5802    5.0807 H         1 <0>         0.1389
     38 H4          2.6148    0.7203    4.0743 H         1 <0>         0.1287
     39 H5         -0.8291   -2.4070    5.7282 H         1 <0>         0.1370
     40 H6          4.3316   -0.5137    3.2367 H         1 <0>         0.1148
     41 H7          4.4224   -3.1964    1.7792 H         1 <0>         0.1076
     42 H8          3.6403   -1.7072    1.1949 H         1 <0>         0.1178
     43 H9          5.8813   -1.9960    0.1718 H         1 <0>         0.1377
     44 H10         5.8327   -0.5501    1.2078 H         1 <0>         0.1327
     45 H11         7.6939   -1.9955    3.9338 H         1 <0>         0.1389
     46 H12         6.8532   -0.5498    3.3259 H         1 <0>         0.1330
     47 H13         5.4972   -1.7066    5.0489 H         1 <0>         0.1174
     48 H14         5.5278   -3.1961    4.0734 H         1 <0>         0.1073
     49 H15         8.1953   -2.1141    0.3423 H         1 <0>         0.1326
     50 H16         8.2896   -0.7042    1.4247 H         1 <0>         0.1320
     51 H17         9.3162   -2.1215    3.1814 H         1 <0>         0.0898
     52 H18         9.2220   -3.5314    2.0990 H         1 <0>         0.0914
     53 H19        10.6777   -2.3712    0.4609 H         1 <0>         0.0799
     54 H20        10.7720   -0.9613    1.5433 H         1 <0>         0.0841
     55 H21        11.7465   -2.4493    3.3175 H         1 <0>         0.0944
     56 H22        11.6289   -4.1157   -0.0352 H         1 <0>         0.1319
     57 H23        11.4935   -6.5595   -0.3014 H         1 <0>         0.1380
     58 H24        11.6812   -7.0281    3.9376 H         1 <0>         0.1387
     59 H25        11.8265   -4.5844    4.1993 H         1 <0>         0.1333
     60 H26        12.6160   -2.6630   -0.3186 H         1 <0>         0.1302
     61 H27        14.7596   -1.8579   -1.2230 H         1 <0>         0.1383
     62 H28        16.0449   -0.8577    2.7231 H         1 <0>         0.1395
     63 H29        13.8961   -1.6545    3.6228 H         1 <0>         0.1335
     64 H30         6.8381   -3.1812    2.0286 H         1 <0>         0.4267
@<TRIPOS>BOND
     1    1    6 ar
     2    1    2 ar
     3    1   36 1
     4    2    3 ar
     5    2   37 1
     6    3    4 ar
     7    3   38 1
     8    4   11 1
     9    4    5 ar
    10    5    6 ar
    11    5    7 1
    12    6   39 1
    13    7    8 1
    14    7    9 am
    15    9   10 2
    16    9   11 am
    17   11   12 1
    18   12   17 1
    19   12   13 1
    20   12   40 1
    21   13   14 1
    22   13   41 1
    23   13   42 1
    24   14   15 1
    25   14   43 1
    26   14   44 1
    27   15   16 1
    28   15   18 1
    29   15   64 1
    30   16   17 1
    31   16   45 1
    32   16   46 1
    33   17   47 1
    34   17   48 1
    35   18   19 1
    36   18   49 1
    37   18   50 1
    38   19   20 1
    39   19   51 1
    40   19   52 1
    41   20   21 1
    42   20   53 1
    43   20   54 1
    44   21   22 1
    45   21   29 1
    46   21   55 1
    47   22   27 ar
    48   22   23 ar
    49   23   24 ar
    50   23   56 1
    51   24   25 ar
    52   24   57 1
    53   25   26 ar
    54   25   28 1
    55   26   27 ar
    56   26   58 1
    57   27   59 1
    58   29   34 ar
    59   29   30 ar
    60   30   31 ar
    61   30   60 1
    62   31   32 ar
    63   31   61 1
    64   32   33 ar
    65   32   35 1
    66   33   34 ar
    67   33   62 1
    68   34   63 1
@<TRIPOS>MOLECULE
ZINC13782161
   34    35     0     0     0
SMALL
USER_CHARGES
(3S)-3-(2,3-dimethylphenyl)piperidine
@<TRIPOS>ATOM
      1 C1         -1.0942   -1.0000    0.4744 C.3       1 <0>        -0.1267
      2 C2          0.0970   -0.1116    0.2238 C.ar      1 <0>        -0.0754
      3 C3         -0.0559    1.2624    0.2109 C.ar      1 <0>        -0.1036
      4 C4          1.0367    2.0773   -0.0184 C.ar      1 <0>        -0.1139
      5 C5          2.2823    1.5183   -0.2364 C.ar      1 <0>        -0.1184
      6 C6          2.4353    0.1447   -0.2231 C.ar      1 <0>        -0.0980
      7 C7          1.3425   -0.6703    0.0073 C.ar      1 <0>        -0.0732
      8 C8          1.5093   -2.1680    0.0218 C.3       1 <0>        -0.1280
      9 C9          3.7933   -0.4645   -0.4591 C.3       1 <0>        -0.0652
     10 H1          3.7029   -1.5500   -0.5008 H         1 <0>         0.1054
     11 C10         4.7346   -0.0735    0.6835 C.3       1 <0>        -0.1308
     12 C11         6.1272   -0.6462    0.4057 C.3       1 <0>        -0.1471
     13 C12         6.6287   -0.1235   -0.9425 C.3       1 <0>        -0.0044
     14 C13         4.3624    0.0528   -1.7821 C.3       1 <0>        -0.0002
     15 H2         -1.5709   -1.2448   -0.4748 H         1 <0>         0.0765
     16 H3         -0.7667   -1.9173    0.9637 H         1 <0>         0.0741
     17 H4         -1.8064   -0.4805    1.1154 H         1 <0>         0.0722
     18 H5         -1.0299    1.6989    0.3756 H         1 <0>         0.1290
     19 H6          0.9173    3.1506   -0.0285 H         1 <0>         0.1282
     20 H7          3.1361    2.1550   -0.4156 H         1 <0>         0.1194
     21 H8          1.4541   -2.5497   -0.9977 H         1 <0>         0.0736
     22 H9          2.4779   -2.4216    0.4527 H         1 <0>         0.0666
     23 H10         0.7166   -2.6161    0.6209 H         1 <0>         0.0797
     24 H11         4.7942    1.0128    0.7508 H         1 <0>         0.0834
     25 H12         4.3554   -0.4773    1.6223 H         1 <0>         0.0946
     26 H13         6.8125   -0.3353    1.1942 H         1 <0>         0.1136
     27 H14         6.0741   -1.7345    0.3771 H         1 <0>         0.0886
     28 H15         6.6947    0.9639   -0.9086 H         1 <0>         0.1295
     29 H16         7.6140   -0.5409   -1.1500 H         1 <0>         0.1326
     30 H17         3.7018   -0.2363   -2.5995 H         1 <0>         0.1332
     31 H18         4.4390    1.1395   -1.7443 H         1 <0>         0.1311
     32 N1          5.6976   -0.5314   -2.0117 N.4       1 <0>        -0.5156
     33 H19         5.6216   -1.5553   -2.0216 H         1 <0>         0.4320
     34 H20         6.0581   -0.2062   -2.9164 H         1 <0>         0.4371
@<TRIPOS>BOND
     1    1    2 1
     2    1   15 1
     3    1   16 1
     4    1   17 1
     5    2    7 ar
     6    2    3 ar
     7    3    4 ar
     8    3   18 1
     9    4    5 ar
    10    4   19 1
    11    5    6 ar
    12    5   20 1
    13    6    7 ar
    14    6    9 1
    15    7    8 1
    16    8   21 1
    17    8   22 1
    18    8   23 1
    19    9   10 1
    20    9   14 1
    21    9   11 1
    22   11   12 1
    23   11   24 1
    24   11   25 1
    25   12   13 1
    26   12   26 1
    27   12   27 1
    28   13   28 1
    29   13   29 1
    30   13   32 1
    31   14   30 1
    32   14   31 1
    33   14   32 1
    34   32   33 1
    35   32   34 1
@<TRIPOS>MOLECULE
ZINC13782162
   34    35     0     0     0
SMALL
USER_CHARGES
(3R)-3-(2,3-dimethylphenyl)piperidine
@<TRIPOS>ATOM
      1 C1         -0.8031   -0.4546    5.8172 C.3       1 <0>        -0.1267
      2 C2         -0.0234    0.1245    4.6649 C.ar      1 <0>        -0.0753
      3 C3          1.3220    0.4062    4.8128 C.ar      1 <0>        -0.1037
      4 C4          2.0371    0.9373    3.7560 C.ar      1 <0>        -0.1138
      5 C5          1.4079    1.1833    2.5498 C.ar      1 <0>        -0.1184
      6 C6          0.0616    0.9066    2.4036 C.ar      1 <0>        -0.0979
      7 C7         -0.6535    0.3745    3.4604 C.ar      1 <0>        -0.0733
      8 C8         -2.1201    0.0674    3.2992 C.3       1 <0>        -0.1280
      9 C9         -0.6254    1.1792    1.0903 C.3       1 <0>        -0.0652
     10 H1         -1.6528    0.8179    1.1345 H         1 <0>         0.1053
     11 C10        -0.6244    2.6856    0.8161 C.3       1 <0>        -0.1307
     12 C11        -1.2704    2.9485   -0.5470 C.3       1 <0>        -0.1472
     13 C12        -0.5055    2.1782   -1.6257 C.3       1 <0>        -0.0044
     14 C13         0.1211    0.4602   -0.0357 C.3       1 <0>        -0.0002
     15 H2         -0.7578   -1.5429    5.7761 H         1 <0>         0.0765
     16 H3         -0.3735   -0.1083    6.7572 H         1 <0>         0.0722
     17 H4         -1.8421   -0.1315    5.7518 H         1 <0>         0.0741
     18 H5          1.8142    0.2115    5.7542 H         1 <0>         0.1290
     19 H6          3.0881    1.1576    3.8716 H         1 <0>         0.1282
     20 H7          1.9675    1.5948    1.7228 H         1 <0>         0.1194
     21 H8         -2.2376   -0.9199    2.8526 H         1 <0>         0.0737
     22 H9         -2.6043    0.0845    4.2756 H         1 <0>         0.0797
     23 H10        -2.5790    0.8156    2.6529 H         1 <0>         0.0666
     24 H11         0.4013    3.0543    0.8103 H         1 <0>         0.0835
     25 H12        -1.1921    3.1976    1.5930 H         1 <0>         0.0946
     26 H13        -1.2343    4.0155   -0.7671 H         1 <0>         0.1136
     27 H14        -2.3081    2.6156   -0.5289 H         1 <0>         0.0886
     28 H15         0.5286    2.5219   -1.6531 H         1 <0>         0.1295
     29 H16        -0.9716    2.3519   -2.5956 H         1 <0>         0.1326
     30 H17         0.1100   -0.6140    0.1492 H         1 <0>         0.1332
     31 H18         1.1521    0.8121   -0.0705 H         1 <0>         0.1310
     32 N1         -0.5409    0.7342   -1.3254 N.4       1 <0>        -0.5156
     33 H19        -0.0549    0.2217   -2.0707 H         1 <0>         0.4371
     34 H20        -1.5181    0.4227   -1.2769 H         1 <0>         0.4320
@<TRIPOS>BOND
     1    1    2 1
     2    1   15 1
     3    1   16 1
     4    1   17 1
     5    2    7 ar
     6    2    3 ar
     7    3    4 ar
     8    3   18 1
     9    4    5 ar
    10    4   19 1
    11    5    6 ar
    12    5   20 1
    13    6    7 ar
    14    6    9 1
    15    7    8 1
    16    8   21 1
    17    8   22 1
    18    8   23 1
    19    9   10 1
    20    9   14 1
    21    9   11 1
    22   11   12 1
    23   11   24 1
    24   11   25 1
    25   12   13 1
    26   12   26 1
    27   12   27 1
    28   13   28 1
    29   13   29 1
    30   13   32 1
    31   14   30 1
    32   14   31 1
    33   14   32 1
    34   32   33 1
    35   32   34 1
@<TRIPOS>MOLECULE
ZINC05833076
   45    46     0     0     0
SMALL
USER_CHARGES
6-dipropylaminotetralin-1,2-diol
@<TRIPOS>ATOM
      1 C1         -0.1778    6.7385   -1.2871 C.3       1 <0>        -0.1561
      2 C2          0.7374    5.9534   -0.3453 C.3       1 <0>        -0.1504
      3 C3          0.6496    4.4619   -0.6748 C.3       1 <0>        -0.0141
      4 C4          1.0503    3.7883    1.6161 C.3       1 <0>        -0.0141
      5 C5          2.1955    3.4456    2.5710 C.3       1 <0>        -0.1499
      6 C6          1.7348    3.6532    4.0152 C.3       1 <0>        -0.1558
      7 C7          1.6549    2.3101   -0.2037 C.3       1 <0>         0.0261
      8 H1          2.1625    1.7308    0.5675 H         1 <0>         0.1420
      9 C8          0.2628    1.7208   -0.4599 C.3       1 <0>        -0.1333
     10 C9          0.4086    0.2153   -0.6716 C.3       1 <0>        -0.0702
     11 C10         1.4632   -0.0744   -1.7074 C.ar      1 <0>        -0.0927
     12 C11         2.4072    0.8552   -2.0847 C.ar      1 <0>        -0.0865
     13 C12         3.3585    0.5236   -3.0407 C.ar      1 <0>        -0.1009
     14 C13         3.3670   -0.7278   -3.6222 C.ar      1 <0>        -0.1247
     15 C14         2.4176   -1.6656   -3.2504 C.ar      1 <0>         0.0985
     16 C15         1.4667   -1.3372   -2.2924 C.ar      1 <0>         0.0851
     17 O1          0.5337   -2.2554   -1.9237 O.3       1 <0>        -0.4820
     18 O2          2.4163   -2.9004   -3.8201 O.3       1 <0>        -0.4843
     19 C16         2.4526    2.2448   -1.5044 C.3       1 <0>        -0.0930
     20 H2         -0.1153    7.8011   -1.0523 H         1 <0>         0.0775
     21 H3          0.1357    6.5751   -2.3182 H         1 <0>         0.0669
     22 H4         -1.2058    6.3986   -1.1617 H         1 <0>         0.0667
     23 H5          0.4239    6.1167    0.6858 H         1 <0>         0.0858
     24 H6          1.7654    6.2933   -0.4707 H         1 <0>         0.0856
     25 H7          0.9631    4.2985   -1.7059 H         1 <0>         0.1296
     26 H8         -0.3784    4.1220   -0.5494 H         1 <0>         0.1325
     27 H9          0.6967    4.7989    1.8207 H         1 <0>         0.1328
     28 H10         0.2332    3.0814    1.7602 H         1 <0>         0.1317
     29 H11         2.4880    2.4053    2.4290 H         1 <0>         0.0850
     30 H12         3.0471    4.0940    2.3645 H         1 <0>         0.0849
     31 H13         2.5507    3.4091    4.6955 H         1 <0>         0.0774
     32 H14         1.4423    4.6936    4.1572 H         1 <0>         0.0668
     33 H15         0.8833    3.0049    4.2217 H         1 <0>         0.0671
     34 H16        -0.1707    2.1765   -1.3501 H         1 <0>         0.0924
     35 H17        -0.3799    1.9101    0.4000 H         1 <0>         0.0917
     36 H18         0.6914   -0.2544    0.2704 H         1 <0>         0.0919
     37 H19        -0.5448   -0.1947   -1.0050 H         1 <0>         0.0965
     38 H20         4.1001    1.2528   -3.3316 H         1 <0>         0.1342
     39 H21         4.1109   -0.9750   -4.3650 H         1 <0>         0.1418
     40 H22        -0.2754   -2.2280   -2.4525 H         1 <0>         0.3912
     41 H23         1.8772   -2.9638   -4.6204 H         1 <0>         0.3956
     42 H24         3.4889    2.5171   -1.3044 H         1 <0>         0.1005
     43 H25         2.0289    2.9478   -2.2216 H         1 <0>         0.0975
     44 N1          1.5544    3.7200    0.2284 N.4       1 <0>        -0.3932
     45 H26         2.4871    4.1476    0.1910 H         1 <0>         0.4261
@<TRIPOS>BOND
     1    1    2 1
     2    1   20 1
     3    1   21 1
     4    1   22 1
     5    2    3 1
     6    2   23 1
     7    2   24 1
     8    3   25 1
     9    3   26 1
    10    3   44 1
    11    4    5 1
    12    4   27 1
    13    4   28 1
    14    4   44 1
    15    5    6 1
    16    5   29 1
    17    5   30 1
    18    6   31 1
    19    6   32 1
    20    6   33 1
    21    7    8 1
    22    7   19 1
    23    7    9 1
    24    7   44 1
    25    9   10 1
    26    9   34 1
    27    9   35 1
    28   10   11 1
    29   10   36 1
    30   10   37 1
    31   11   16 ar
    32   11   12 ar
    33   12   13 ar
    34   12   19 1
    35   13   14 ar
    36   13   38 1
    37   14   15 ar
    38   14   39 1
    39   15   16 ar
    40   15   18 1
    41   16   17 1
    42   17   40 1
    43   18   41 1
    44   19   42 1
    45   19   43 1
    46   44   45 1
@<TRIPOS>MOLECULE
ZINC06398231
   39    39     0     0     0
SMALL
USER_CHARGES
4-ethynyl-N,N-dipropyl-cyclohex-3-en-1-amine
@<TRIPOS>ATOM
      1 C1          2.7641    4.0146    0.5920 C.3       1 <0>        -0.1562
      2 C2          1.3396    3.4686    0.4755 C.3       1 <0>        -0.1485
      3 C3          1.3860    2.0287   -0.0398 C.3       1 <0>        -0.0173
      4 C4         -0.8044    2.0689   -1.0709 C.3       1 <0>        -0.0133
      5 C5         -0.3159    1.6117   -2.4468 C.3       1 <0>        -0.1481
      6 C6         -1.0957    2.3504   -3.5363 C.3       1 <0>        -0.1559
      7 C7          0.0724   -0.0010   -0.1713 C.3       1 <0>         0.0221
      8 H1          0.5123   -0.2620   -1.1338 H         1 <0>         0.1450
      9 C8         -1.3502   -0.5674   -0.0843 C.3       1 <0>        -0.1398
     10 C9         -1.3014   -2.0576   -0.4280 C.3       1 <0>        -0.0785
     11 C10        -0.2275   -2.7372    0.3706 C.2       1 <0>         0.0029
     12 C11         0.7468   -2.0982    0.9786 C.2       1 <0>        -0.1415
     13 C12         0.9060   -0.6059    0.9604 C.3       1 <0>        -0.1006
     14 C13        -0.2671   -4.1647    0.4765 C.1       1 <0>        -0.1931
     15 C14        -0.2996   -5.3351    0.5634 C.1       1 <0>        -0.1369
     16 H2          2.7311    5.0404    0.9591 H         1 <0>         0.0772
     17 H3          3.3338    3.3981    1.2873 H         1 <0>         0.0669
     18 H4          3.2423    3.9944   -0.3873 H         1 <0>         0.0669
     19 H5          0.7700    4.0851   -0.2198 H         1 <0>         0.0855
     20 H6          0.8615    3.4888    1.4548 H         1 <0>         0.0846
     21 H7          2.0356    1.4338    0.6022 H         1 <0>         0.1316
     22 H8          1.7745    2.0196   -1.0582 H         1 <0>         0.1325
     23 H9         -1.8406    1.7603   -0.9322 H         1 <0>         0.1300
     24 H10        -0.7365    3.1547   -1.0035 H         1 <0>         0.1311
     25 H11         0.7467    1.8330   -2.5470 H         1 <0>         0.0838
     26 H12        -0.4748    0.5383   -2.5506 H         1 <0>         0.0864
     27 H13        -0.7476    2.0247   -4.5165 H         1 <0>         0.0769
     28 H14        -2.1583    2.1291   -3.4360 H         1 <0>         0.0673
     29 H15        -0.9367    3.4238   -3.4325 H         1 <0>         0.0665
     30 H16        -1.7349   -0.4373    0.9272 H         1 <0>         0.0934
     31 H17        -1.9956   -0.0464   -0.7914 H         1 <0>         0.0960
     32 H18        -2.2649   -2.5130   -0.1990 H         1 <0>         0.0994
     33 H19        -1.0913   -2.1766   -1.4910 H         1 <0>         0.0925
     34 H20         1.4752   -2.6808    1.5230 H         1 <0>         0.1294
     35 H21         1.9561   -0.3563    0.8088 H         1 <0>         0.1018
     36 H22         0.5730   -0.1953    1.9136 H         1 <0>         0.0993
     37 H23        -0.3286   -6.3818    0.6410 H         1 <0>         0.2274
     38 N1          0.0196    1.4664   -0.0019 N.4       1 <0>        -0.3926
     39 H24        -0.4046    1.6820    0.9079 H         1 <0>         0.4262
@<TRIPOS>BOND
     1    1    2 1
     2    1   16 1
     3    1   17 1
     4    1   18 1
     5    2    3 1
     6    2   19 1
     7    2   20 1
     8    3   21 1
     9    3   22 1
    10    3   38 1
    11    4    5 1
    12    4   23 1
    13    4   24 1
    14    4   38 1
    15    5    6 1
    16    5   25 1
    17    5   26 1
    18    6   27 1
    19    6   28 1
    20    6   29 1
    21    7    8 1
    22    7   13 1
    23    7    9 1
    24    7   38 1
    25    9   10 1
    26    9   30 1
    27    9   31 1
    28   10   11 1
    29   10   32 1
    30   10   33 1
    31   11   12 2
    32   11   14 1
    33   12   13 1
    34   12   34 1
    35   13   35 1
    36   13   36 1
    37   14   15 3
    38   15   37 1
    39   38   39 1
@<TRIPOS>MOLECULE
ZINC06398232
   39    39     0     0     0
SMALL
USER_CHARGES
4-ethynyl-N,N-dipropyl-cyclohex-3-en-1-amine
@<TRIPOS>ATOM
      1 C1         -0.6060    1.7396   -2.7128 C.3       1 <0>        -0.1563
      2 C2         -1.2120    1.9751   -1.3278 C.3       1 <0>        -0.1502
      3 C3         -0.2327    1.4958   -0.2544 C.3       1 <0>        -0.0143
      4 C4         -1.9995    0.8785    1.2818 C.3       1 <0>        -0.0135
      5 C5         -2.7781    1.3821    2.4987 C.3       1 <0>        -0.1500
      6 C6         -4.0772    0.5860    2.6382 C.3       1 <0>        -0.1560
      7 C7          0.1819    1.4971    2.1311 C.3       1 <0>         0.0218
      8 H1         -0.3107    1.4865    3.1033 H         1 <0>         0.1422
      9 C8          0.8877    0.1559    1.8964 C.3       1 <0>        -0.1334
     10 C9          1.7797   -0.1418    3.1026 C.3       1 <0>        -0.0796
     11 C10         2.6291    1.0520    3.4286 C.2       1 <0>         0.0030
     12 C11         2.3837    2.2660    2.9889 C.2       1 <0>        -0.1410
     13 C12         1.2278    2.6135    2.0969 C.3       1 <0>        -0.1024
     14 C13         3.7736    0.8568    4.2668 C.1       1 <0>        -0.1930
     15 C14         4.7118    0.6967    4.9541 C.1       1 <0>        -0.1368
     16 H2         -0.4109    0.6758   -2.8480 H         1 <0>         0.0668
     17 H3         -1.3037    2.0811   -3.4775 H         1 <0>         0.0774
     18 H4          0.3283    2.2943   -2.7997 H         1 <0>         0.0670
     19 H5         -2.1463    1.4204   -1.2409 H         1 <0>         0.0856
     20 H6         -1.4071    3.0389   -1.1926 H         1 <0>         0.0855
     21 H7         -0.0376    0.4319   -0.3896 H         1 <0>         0.1326
     22 H8          0.7016    2.0504   -0.3413 H         1 <0>         0.1299
     23 H9         -2.6364    0.9244    0.3984 H         1 <0>         0.1323
     24 H10        -1.6871   -0.1519    1.4513 H         1 <0>         0.1313
     25 H11        -2.1738    1.2514    3.3963 H         1 <0>         0.0850
     26 H12        -3.0118    2.4388    2.3687 H         1 <0>         0.0849
     27 H13        -4.6320    0.9448    3.5051 H         1 <0>         0.0772
     28 H14        -4.6816    0.7167    1.7405 H         1 <0>         0.0669
     29 H15        -3.8436   -0.4707    2.7682 H         1 <0>         0.0670
     30 H16         0.1450   -0.6339    1.7832 H         1 <0>         0.0930
     31 H17         1.5012    0.2172    0.9975 H         1 <0>         0.0934
     32 H18         2.4231   -0.9920    2.8762 H         1 <0>         0.0994
     33 H19         1.1526   -0.3842    3.9606 H         1 <0>         0.0924
     34 H20         3.0530    3.0597    3.2866 H         1 <0>         0.1295
     35 H21         1.5856    2.7422    1.0754 H         1 <0>         0.0991
     36 H22         0.7744    3.5439    2.4388 H         1 <0>         0.1023
     37 H23         5.5510    0.5536    5.5687 H         1 <0>         0.2275
     38 N1         -0.8228    1.7492    1.0768 N.4       1 <0>        -0.3930
     39 H24        -1.1211    2.7304    1.1280 H         1 <0>         0.4264
@<TRIPOS>BOND
     1    1    2 1
     2    1   16 1
     3    1   17 1
     4    1   18 1
     5    2    3 1
     6    2   19 1
     7    2   20 1
     8    3   21 1
     9    3   22 1
    10    3   38 1
    11    4    5 1
    12    4   23 1
    13    4   24 1
    14    4   38 1
    15    5    6 1
    16    5   25 1
    17    5   26 1
    18    6   27 1
    19    6   28 1
    20    6   29 1
    21    7    8 1
    22    7   13 1
    23    7    9 1
    24    7   38 1
    25    9   10 1
    26    9   30 1
    27    9   31 1
    28   10   11 1
    29   10   32 1
    30   10   33 1
    31   11   12 2
    32   11   14 1
    33   12   13 1
    34   12   34 1
    35   13   35 1
    36   13   36 1
    37   14   15 3
    38   15   37 1
    39   38   39 1
@<TRIPOS>MOLECULE
ZINC00004090
   40    42     0     0     0
SMALL
USER_CHARGES
propylBLAHol
@<TRIPOS>ATOM
      1 C1         -1.1711    5.4108   -2.7634 C.3       1 <0>        -0.1568
      2 C2         -1.2616    3.8892   -2.6311 C.3       1 <0>        -0.1493
      3 C3         -0.6832    3.4594   -1.2814 C.3       1 <0>        -0.0141
      4 C4         -2.1720    1.5592   -1.0659 C.3       1 <0>        -0.0054
      5 C5         -2.2504    0.0329   -1.0359 C.3       1 <0>        -0.1463
      6 C6         -1.4309   -0.5126    0.1408 C.3       1 <0>        -0.1288
      7 C7          0.0021   -0.0041    0.0020 C.3       1 <0>        -0.0530
      8 H1          0.4017   -0.3522   -0.9505 H         1 <0>         0.1038
      9 C8         -0.0187    1.5275    0.0104 C.3       1 <0>        -0.0114
     10 H2         -0.5132    1.8770    0.9168 H         1 <0>         0.1497
     11 C9          1.4264    2.0225   -0.0007 C.3       1 <0>         0.0543
     12 O1          2.0445    1.6104    1.2216 O.3       1 <0>        -0.2903
     13 C10         1.8588    0.3350    1.6533 C.ar      1 <0>         0.1102
     14 C11         0.8832   -0.4919    1.1159 C.ar      1 <0>        -0.1469
     15 C12         0.7177   -1.7753    1.6034 C.ar      1 <0>        -0.1026
     16 C13         1.5272   -2.2442    2.6262 C.ar      1 <0>         0.0927
     17 C14         2.5074   -1.4219    3.1611 C.ar      1 <0>        -0.0983
     18 C15         2.6720   -0.1407    2.6769 C.ar      1 <0>        -0.1170
     19 O2          1.3603   -3.5063    3.1039 O.3       1 <0>        -0.4929
     20 H3         -0.1276    5.7195   -2.7004 H         1 <0>         0.0678
     21 H4         -1.5831    5.7170   -3.7250 H         1 <0>         0.0786
     22 H5         -1.7380    5.8798   -1.9592 H         1 <0>         0.0677
     23 H6         -0.6947    3.4202   -3.4353 H         1 <0>         0.0866
     24 H7         -2.3051    3.5805   -2.6941 H         1 <0>         0.0869
     25 H8         -1.2502    3.9284   -0.4772 H         1 <0>         0.1345
     26 H9          0.3602    3.7681   -1.2183 H         1 <0>         0.1310
     27 H10        -2.7219    1.9317   -1.9302 H         1 <0>         0.1355
     28 H11        -2.6163    1.9611   -0.1553 H         1 <0>         0.1311
     29 H12        -1.8544   -0.3679   -1.9690 H         1 <0>         0.0899
     30 H13        -3.2905   -0.2736   -0.9252 H         1 <0>         0.1178
     31 H14        -1.4379   -1.6024    0.1197 H         1 <0>         0.1014
     32 H15        -1.8568   -0.1599    1.0802 H         1 <0>         0.0880
     33 H16         1.9582    1.5879   -0.8472 H         1 <0>         0.0888
     34 H17         1.4428    3.1099   -0.0735 H         1 <0>         0.1279
     35 H18        -0.0457   -2.4149    1.1857 H         1 <0>         0.1383
     36 H19         3.1416   -1.7844    3.9566 H         1 <0>         0.1461
     37 H20         3.4364    0.4972    3.0955 H         1 <0>         0.1445
     38 H21         1.8901   -4.1734    2.6462 H         1 <0>         0.3974
     39 N1         -0.7620    1.9849   -1.1723 N.4       1 <0>        -0.3830
     40 H22        -0.3473    1.5651   -2.0125 H         1 <0>         0.4257
@<TRIPOS>BOND
     1    1    2 1
     2    1   20 1
     3    1   21 1
     4    1   22 1
     5    2    3 1
     6    2   23 1
     7    2   24 1
     8    3   25 1
     9    3   26 1
    10    3   39 1
    11    4    5 1
    12    4   27 1
    13    4   28 1
    14    4   39 1
    15    5    6 1
    16    5   29 1
    17    5   30 1
    18    6    7 1
    19    6   31 1
    20    6   32 1
    21    7    8 1
    22    7   14 1
    23    7    9 1
    24    9   10 1
    25    9   11 1
    26    9   39 1
    27   11   12 1
    28   11   33 1
    29   11   34 1
    30   12   13 1
    31   13   18 ar
    32   13   14 ar
    33   14   15 ar
    34   15   16 ar
    35   15   35 1
    36   16   17 ar
    37   16   19 1
    38   17   18 ar
    39   17   36 1
    40   18   37 1
    41   19   38 1
    42   39   40 1
@<TRIPOS>MOLECULE
ZINC26894070
   24    25     0     0     0
SMALL
USER_CHARGES

@<TRIPOS>ATOM
      1 C1         -0.0167    1.3796    0.0096 C.ar      1 <0>        -0.0421
      2 C2          1.1829    2.0705    0.0019 C.ar      1 <0>        -0.2438
      3 C3          2.3903    1.4051   -0.0137 C.ar      1 <0>         0.2976
      4 C4          2.4377   -0.0032   -0.0217 C.ar      1 <0>        -0.0327
      5 C5          1.2054   -0.6693   -0.0130 C.ar      1 <0>        -0.0506
      6 C6          0.0021   -0.0041    0.0020 C.ar      1 <0>        -0.2031
      7 C7         -1.2907   -0.7785    0.0107 C.3       1 <0>        -0.0706
      8 C8         -1.6493   -1.1561    1.4493 C.3       1 <0>        -0.0130
      9 N1         -2.9095   -1.9111    1.4578 N.4       1 <0>        -0.6378
     10 S1          1.6714   -2.3835   -0.0263 S.3       1 <0>        -0.1217
     11 C9          3.4422   -2.1558   -0.0424 C.2       1 <0>         0.5365
     12 O1          4.3192   -2.9998   -0.0552 O.2       1 <0>        -0.4778
     13 N2          3.5628   -0.8137   -0.0368 N.am      1 <0>        -0.6199
     14 H1          4.4451   -0.4107   -0.0434 H         1 <0>         0.4148
     15 O2          3.5491    2.1163   -0.0218 O.3       1 <0>        -0.6903
     16 H2         -0.9553    1.9136    0.0259 H         1 <0>         0.1135
     17 H3          1.1728    3.1505    0.0078 H         1 <0>         0.1157
     18 H4         -2.0852   -0.1639   -0.4124 H         1 <0>         0.0851
     19 H5         -1.1757   -1.6842   -0.5848 H         1 <0>         0.0792
     20 H6         -0.8547   -1.7707    1.8725 H         1 <0>         0.1313
     21 H7         -1.7643   -0.2505    2.0448 H         1 <0>         0.1340
     22 H8         -3.6450   -1.3421    1.0661 H         1 <0>         0.4312
     23 H9         -2.8030   -2.7494    0.9066 H         1 <0>         0.4323
     24 H10        -3.1460   -2.1601    2.4065 H         1 <0>         0.4321
@<TRIPOS>BOND
     1    1    6 ar
     2    1    2 ar
     3    1   16 1
     4    2    3 ar
     5    2   17 1
     6    3    4 ar
     7    3   15 1
     8    4   13 1
     9    4    5 ar
    10    5    6 ar
    11    5   10 1
    12    6    7 1
    13    7    8 1
    14    7   18 1
    15    7   19 1
    16    8    9 1
    17    8   20 1
    18    8   21 1
    19    9   22 1
    20    9   23 1
    21    9   24 1
    22   10   11 1
    23   11   12 2
    24   11   13 am
    25   13   14 1
@<TRIPOS>MOLECULE
ZINC26894070
   24    25     0     0     0
SMALL
USER_CHARGES
7-(2-aminoethyl)-4-hydroxy-3H-1,3-benzothiazol-2-one
@<TRIPOS>ATOM
      1 C1         -0.0167    1.3802    0.0096 C.ar      1 <0>        -0.1249
      2 C2          0.0021   -0.0041    0.0020 C.ar      1 <0>        -0.1532
      3 C3          1.1908   -0.7021   -0.0131 C.ar      1 <0>         0.1570
      4 C4          2.4258   -0.0234   -0.0212 C.ar      1 <0>         0.1006
      5 C5          2.3689    1.3762   -0.0132 C.ar      1 <0>        -0.1261
      6 C6          1.1824    2.0709    0.0019 C.ar      1 <0>        -0.0851
      7 C7          1.1878    3.5778    0.0094 C.3       1 <0>        -0.0870
      8 C8          1.3019    4.0946   -1.4261 C.3       1 <0>        -0.0013
      9 N1          1.3071    5.5636   -1.4188 N.4       1 <0>        -0.6842
     10 S1          4.0807    1.8512   -0.0266 S.3       1 <0>        -0.3285
     11 C9          4.7895    0.2126   -0.0421 C.2       1 <0>         0.5569
     12 O1          5.9631   -0.1102   -0.0557 O.3       1 <0>        -0.5069
     13 N2          3.6973   -0.5767   -0.0359 N.2       1 <0>        -0.6790
     14 O2          1.1714   -2.0616   -0.0207 O.3       1 <0>        -0.5161
     15 H1         -0.9554    1.9143    0.0170 H         1 <0>         0.1218
     16 H2         -0.9315   -0.5470    0.0077 H         1 <0>         0.1232
     17 H3          0.2533    3.9456    0.4583 H         1 <0>         0.0854
     18 H4          2.0441    3.9385    0.5981 H         1 <0>         0.0874
     19 H5          2.2364    3.7269   -1.8750 H         1 <0>         0.1306
     20 H6          0.4456    3.7339   -2.0148 H         1 <0>         0.1278
     21 H7          1.3891    5.9351   -2.4509 H         1 <0>         0.4535
     22 H8          2.1635    5.9243   -0.8301 H         1 <0>         0.4547
     23 H9          2.1160   -2.6251   -0.0328 H         1 <0>         0.4430
     24 H10         0.3726    5.9313   -0.9699 H         1 <0>         0.4500
@<TRIPOS>BOND
     1    1    6 ar
     2    1    2 ar
     3    1   15 1
     4    2    3 ar
     5    2   16 1
     6    3    4 ar
     7    3   14 1
     8    4   13 1
     9    4    5 ar
    10    5    6 ar
    11    5   10 1
    12    6    7 1
    13    7    8 1
    14    7   17 1
    15    7   18 1
    16    8    9 1
    17    8   19 1
    18    8   20 1
    19    9   21 1
    20    9   22 1
    21    9   24 1
    22   10   11 1
    23   11   12 1
    24   11   13 2
    25   14   23 1
@<TRIPOS>MOLECULE
ZINC01561184
   39    42     0     0     0
SMALL
USER_CHARGES

@<TRIPOS>ATOM
      1 C1         -0.0178    1.4648    0.0101 C.3       1 <0>        -0.0532
      2 N1          0.0021   -0.0041    0.0020 N.4       1 <0>        -0.3820
      3 C2         -1.3708   -0.5099    0.0087 C.3       1 <0>        -0.0042
      4 C3         -1.3935   -2.0162   -0.1933 C.3       1 <0>        -0.1059
      5 C4         -0.2772   -2.7023    0.5426 C.ar      1 <0>        -0.0638
      6 C5         -0.2620   -4.0904    0.5658 C.ar      1 <0>        -0.1377
      7 C6          0.7274   -4.7767    1.2506 C.ar      1 <0>         0.1452
      8 C7          1.7173   -4.0729    1.9172 C.ar      1 <0>        -0.1298
      9 C8          1.7185   -2.6844    1.8776 C.ar      1 <0>         0.0131
     10 C9          0.7125   -1.9966    1.1928 C.ar      1 <0>        -0.1372
     11 C10         0.7132   -0.4905    1.1932 C.3       1 <0>         0.0911
     12 H1          0.2081   -0.1287    2.0889 H         1 <0>         0.1473
     13 C11         2.1396    0.0551    1.1685 C.3       1 <0>        -0.0934
     14 C12         2.9707   -0.5756    2.2523 C.ar      1 <0>        -0.0774
     15 C13         2.7710   -1.9147    2.5824 C.ar      1 <0>        -0.0682
     16 C14         3.5535   -2.5150    3.5677 C.ar      1 <0>         0.1062
     17 C15         4.5228   -1.7645    4.2256 C.ar      1 <0>         0.0996
     18 C16         4.7033   -0.4298    3.8999 C.ar      1 <0>        -0.1146
     19 C17         3.9295    0.1611    2.9162 C.ar      1 <0>        -0.0941
     20 O1          5.2923   -2.3402    5.1879 O.3       1 <0>        -0.4821
     21 O2          3.3704   -3.8244    3.8838 O.3       1 <0>        -0.4743
     22 O3          0.7268   -6.1356    1.2689 O.3       1 <0>        -0.4901
     23 H2          1.0047    1.8421    0.0024 H         1 <0>         0.1276
     24 H3         -0.5450    1.8259   -0.8730 H         1 <0>         0.1294
     25 H4         -0.5280    1.8163    0.9069 H         1 <0>         0.1256
     26 H5         -1.8368   -0.2692    0.9642 H         1 <0>         0.1312
     27 H6         -1.9327   -0.0321   -0.7938 H         1 <0>         0.1406
     28 H7         -2.3461   -2.4071    0.1643 H         1 <0>         0.1251
     29 H8         -1.3012   -2.2322   -1.2577 H         1 <0>         0.1067
     30 H9         -1.0306   -4.6414    0.0442 H         1 <0>         0.1426
     31 H10         2.4838   -4.6010    2.4650 H         1 <0>         0.1586
     32 H11         2.5897   -0.1611    0.1996 H         1 <0>         0.1017
     33 H12         2.1136    1.1344    1.3185 H         1 <0>         0.1090
     34 H13         5.4517    0.1527    4.4167 H         1 <0>         0.1459
     35 H14         4.0767    1.2018    2.6677 H         1 <0>         0.1409
     36 H15         6.1085   -2.7367    4.8538 H         1 <0>         0.3974
     37 H16         3.9112   -4.4340    3.3631 H         1 <0>         0.3937
     38 H17         1.2246   -6.5390    0.5447 H         1 <0>         0.4034
     39 H18         0.4753   -0.3290   -0.8278 H         1 <0>         0.4258
@<TRIPOS>BOND
     1    1    2 1
     2    1   23 1
     3    1   24 1
     4    1   25 1
     5    2   11 1
     6    2    3 1
     7    2   39 1
     8    3    4 1
     9    3   26 1
    10    3   27 1
    11    4    5 1
    12    4   28 1
    13    4   29 1
    14    5   10 ar
    15    5    6 ar
    16    6    7 ar
    17    6   30 1
    18    7    8 ar
    19    7   22 1
    20    8    9 ar
    21    8   31 1
    22    9   15 1
    23    9   10 ar
    24   10   11 1
    25   11   12 1
    26   11   13 1
    27   13   14 1
    28   13   32 1
    29   13   33 1
    30   14   19 ar
    31   14   15 ar
    32   15   16 ar
    33   16   17 ar
    34   16   21 1
    35   17   18 ar
    36   17   20 1
    37   18   19 ar
    38   18   34 1
    39   19   35 1
    40   20   36 1
    41   21   37 1
    42   22   38 1
@<TRIPOS>MOLECULE
ZINC01561184
   38    41     0     0     0
SMALL
USER_CHARGES

@<TRIPOS>ATOM
      1 C1         -0.0178    1.4648    0.0101 C.3       1 <0>         0.0189
      2 N1          0.0021   -0.0041    0.0020 N.3       1 <0>        -0.5348
      3 C2         -1.3553   -0.5467   -0.0778 C.3       1 <0>         0.0547
      4 C3         -1.3240   -2.0433   -0.3388 C.3       1 <0>        -0.0781
      5 C4         -0.2118   -2.7303    0.4016 C.ar      1 <0>        -0.0479
      6 C5         -0.1664   -4.1182    0.3703 C.ar      1 <0>        -0.1439
      7 C6          0.8210   -4.8108    1.0512 C.ar      1 <0>         0.1077
      8 C7          1.7794   -4.1145    1.7693 C.ar      1 <0>        -0.1363
      9 C8          1.7492   -2.7258    1.7874 C.ar      1 <0>        -0.0221
     10 C9          0.7432   -2.0320    1.1086 C.ar      1 <0>        -0.0689
     11 C10         0.7069   -0.5280    1.1814 C.3       1 <0>         0.1302
     12 H1          0.1781   -0.2223    2.0842 H         1 <0>         0.0580
     13 C11         2.1193    0.0523    1.2086 C.3       1 <0>        -0.0727
     14 C12         2.9447   -0.6077    2.2796 C.ar      1 <0>        -0.0631
     15 C13         2.7702   -1.9644    2.5457 C.ar      1 <0>        -0.0553
     16 C14         3.5495   -2.5910    3.5173 C.ar      1 <0>         0.0966
     17 C15         4.4883   -1.8490    4.2274 C.ar      1 <0>         0.0807
     18 C16         4.6425   -0.4968    3.9660 C.ar      1 <0>        -0.1236
     19 C17         3.8733    0.1200    2.9943 C.ar      1 <0>        -0.1049
     20 O1          5.2535   -2.4501    5.1776 O.3       1 <0>        -0.4859
     21 O2          3.3929   -3.9175    3.7695 O.3       1 <0>        -0.4757
     22 O3          0.8498   -6.1690    1.0146 O.3       1 <0>        -0.4963
     23 H2          1.0047    1.8421    0.0024 H         1 <0>         0.0752
     24 H3         -0.5450    1.8259   -0.8730 H         1 <0>         0.0735
     25 H4         -0.5280    1.8163    0.9069 H         1 <0>         0.0291
     26 H5         -1.8730   -0.3575    0.8626 H         1 <0>         0.0369
     27 H6         -1.8920   -0.0526   -0.8876 H         1 <0>         0.0852
     28 H7         -2.2750   -2.4759   -0.0280 H         1 <0>         0.0827
     29 H8         -1.1939   -2.2126   -1.4077 H         1 <0>         0.0853
     30 H9         -0.9096   -4.6638   -0.1921 H         1 <0>         0.1295
     31 H10         2.5453   -4.6482    2.3123 H         1 <0>         0.1478
     32 H11         2.5925   -0.1091    0.2400 H         1 <0>         0.0943
     33 H12         2.0639    1.1228    1.4065 H         1 <0>         0.0853
     34 H13         5.3670    0.0787    4.5230 H         1 <0>         0.1370
     35 H14         4.0008    1.1738    2.7951 H         1 <0>         0.1351
     36 H15         6.0851   -2.8119    4.8419 H         1 <0>         0.3884
     37 H16         3.9577   -4.4894    3.2319 H         1 <0>         0.3870
     38 H17         1.3736   -6.5319    0.2873 H         1 <0>         0.3906
@<TRIPOS>BOND
     1    1    2 1
     2    1   23 1
     3    1   24 1
     4    1   25 1
     5    2   11 1
     6    2    3 1
     7    3    4 1
     8    3   26 1
     9    3   27 1
    10    4    5 1
    11    4   28 1
    12    4   29 1
    13    5   10 ar
    14    5    6 ar
    15    6    7 ar
    16    6   30 1
    17    7    8 ar
    18    7   22 1
    19    8    9 ar
    20    8   31 1
    21    9   15 1
    22    9   10 ar
    23   10   11 1
    24   11   12 1
    25   11   13 1
    26   13   14 1
    27   13   32 1
    28   13   33 1
    29   14   19 ar
    30   14   15 ar
    31   15   16 ar
    32   16   17 ar
    33   16   21 1
    34   17   18 ar
    35   17   20 1
    36   18   19 ar
    37   18   34 1
    38   19   35 1
    39   20   36 1
    40   21   37 1
    41   22   38 1
@<TRIPOS>MOLECULE
ZINC25760037
   43    46     0     0     0
SMALL
USER_CHARGES

@<TRIPOS>ATOM
      1 C1         -0.0268    1.3474    0.0633 C.ar      1 <0>        -0.1752
      2 C2          1.1642    2.0489    0.0412 C.ar      1 <0>        -0.0527
      3 C3          2.3551    1.3200    0.0176 C.ar      1 <0>        -0.1461
      4 C4          3.7739    1.6795   -0.0097 C.2       1 <0>        -0.2577
      5 C5          4.4667    0.5300   -0.0245 C.2       1 <0>         0.1407
      6 N1          3.6053   -0.5342   -0.0088 N.pl3     1 <0>        -0.5673
      7 H1          3.8729   -1.4665   -0.0150 H         1 <0>         0.4335
      8 C6          2.3060   -0.0875    0.0170 C.ar      1 <0>         0.2913
      9 N2          1.1333   -0.7066    0.0393 N.ar      1 <0>        -0.4851
     10 C7         -0.0005   -0.0386    0.0614 C.ar      1 <0>         0.1534
     11 C8          4.3469    3.0733   -0.0199 C.3       1 <0>         0.0839
     12 N3          4.3372    3.6166    1.3449 N.4       1 <0>        -0.3806
     13 C9          2.9495    3.7595    1.8031 C.3       1 <0>        -0.0319
     14 C10         2.9400    4.2172    3.2653 C.3       1 <0>         0.1008
     15 N4          3.7450    5.4435    3.3754 N.pl3     1 <0>        -0.6426
     16 C11         5.0963    5.4403    2.7937 C.3       1 <0>         0.0994
     17 C12         5.0040    4.9248    1.3537 C.3       1 <0>        -0.0233
     18 C13         3.2403    6.5795    4.0139 C.ar      1 <0>         0.2031
     19 C14         1.9241    6.6016    4.4569 C.ar      1 <0>        -0.1758
     20 C15         1.4281    7.7254    5.0880 C.ar      1 <0>        -0.0604
     21 C16         2.2410    8.8289    5.2789 C.ar      1 <0>        -0.0751
     22 C17         3.5527    8.8096    4.8386 C.ar      1 <0>        -0.0604
     23 C18         4.0557    7.6864    4.2119 C.ar      1 <0>        -0.1748
     24 Cl1         1.6138   10.2403    6.0716 Cl        1 <0>        -0.0601
     25 H2         -0.9692    1.8744    0.0864 H         1 <0>         0.1492
     26 H3          1.1733    3.1289    0.0417 H         1 <0>         0.1347
     27 H4          5.5440    0.4554   -0.0459 H         1 <0>         0.1910
     28 H5         -0.9329   -0.5834    0.0787 H         1 <0>         0.1725
     29 H6          5.3712    3.0423   -0.3913 H         1 <0>         0.1384
     30 H7          3.7443    3.7092   -0.6684 H         1 <0>         0.1332
     31 H8          2.4378    4.4992    1.1874 H         1 <0>         0.1308
     32 H9          2.4385    2.8004    1.7191 H         1 <0>         0.1450
     33 H10         1.9162    4.4218    3.5784 H         1 <0>         0.1255
     34 H11         3.3702    3.4388    3.8955 H         1 <0>         0.0876
     35 H12         5.4980    6.4535    2.7951 H         1 <0>         0.1268
     36 H13         5.7442    4.7854    3.3763 H         1 <0>         0.0888
     37 H14         6.0068    4.8245    0.9387 H         1 <0>         0.1424
     38 H15         4.4301    5.6293    0.7516 H         1 <0>         0.1331
     39 H16         1.2890    5.7409    4.3075 H         1 <0>         0.1319
     40 H17         0.4047    7.7432    5.4327 H         1 <0>         0.1391
     41 H18         4.1850    9.6722    4.9888 H         1 <0>         0.1392
     42 H19         5.0808    7.6702    3.8724 H         1 <0>         0.1326
     43 H20         4.8287    2.9858    1.9602 H         1 <0>         0.4209
@<TRIPOS>BOND
     1    1   10 ar
     2    1    2 ar
     3    1   25 1
     4    2    3 ar
     5    2   26 1
     6    3    8 ar
     7    3    4 1
     8    4    5 2
     9    4   11 1
    10    5    6 1
    11    5   27 1
    12    6    7 1
    13    6    8 1
    14    8    9 ar
    15    9   10 ar
    16   10   28 1
    17   11   12 1
    18   11   29 1
    19   11   30 1
    20   12   17 1
    21   12   13 1
    22   12   43 1
    23   13   14 1
    24   13   31 1
    25   13   32 1
    26   14   15 1
    27   14   33 1
    28   14   34 1
    29   15   16 1
    30   15   18 1
    31   16   17 1
    32   16   35 1
    33   16   36 1
    34   17   37 1
    35   17   38 1
    36   18   23 ar
    37   18   19 ar
    38   19   20 ar
    39   19   39 1
    40   20   21 ar
    41   20   40 1
    42   21   22 ar
    43   21   24 1
    44   22   23 ar
    45   22   41 1
    46   23   42 1
@<TRIPOS>MOLECULE
ZINC25760037
   42    45     0     0     0
SMALL
USER_CHARGES

@<TRIPOS>ATOM
      1 C1         -0.0271    1.3456    0.0639 C.ar      1 <0>        -0.1986
      2 C2          1.1635    2.0478    0.0416 C.ar      1 <0>        -0.0357
      3 C3          2.3549    1.3195    0.0173 C.ar      1 <0>        -0.1433
      4 C4          3.7735    1.6798   -0.0104 C.2       1 <0>        -0.1623
      5 C5          4.4669    0.5307   -0.0259 C.2       1 <0>         0.0865
      6 N1          3.6061   -0.5339   -0.0103 N.pl3     1 <0>        -0.5808
      7 H1          3.8741   -1.4661   -0.0170 H         1 <0>         0.4217
      8 C6          2.3065   -0.0879    0.0162 C.ar      1 <0>         0.2862
      9 N2          1.1341   -0.7077    0.0386 N.ar      1 <0>        -0.4979
     10 C7         -0.0000   -0.0404    0.0614 C.ar      1 <0>         0.1384
     11 C8          4.3457    3.0739   -0.0202 C.3       1 <0>         0.1304
     12 N3          4.3361    3.6167    1.3449 N.3       1 <0>        -0.5310
     13 C9          2.9614    3.7989    1.8294 C.3       1 <0>         0.0328
     14 C10         2.9931    4.1916    3.3103 C.3       1 <0>         0.1246
     15 N4          3.8672    5.3644    3.4640 N.pl3     1 <0>        -0.6269
     16 C11         5.2167    5.3075    2.8820 C.3       1 <0>         0.1252
     17 C12         5.0975    4.8709    1.4180 C.3       1 <0>         0.0388
     18 C13         3.4269    6.5028    4.1446 C.ar      1 <0>         0.2273
     19 C14         2.1134    6.5833    4.5888 C.ar      1 <0>        -0.1910
     20 C15         1.6812    7.7093    5.2616 C.ar      1 <0>        -0.0581
     21 C16         2.5552    8.7569    5.4928 C.ar      1 <0>        -0.0958
     22 C17         3.8644    8.6794    5.0513 C.ar      1 <0>        -0.0582
     23 C18         4.3036    7.5534    4.3830 C.ar      1 <0>        -0.1905
     24 Cl1         2.0082   10.1713    6.3378 Cl        1 <0>        -0.0804
     25 H2         -0.9697    1.8721    0.0875 H         1 <0>         0.1382
     26 H3          1.1720    3.1278    0.0426 H         1 <0>         0.1304
     27 H4          5.5441    0.4568   -0.0477 H         1 <0>         0.1792
     28 H5         -0.9321   -0.5857    0.0788 H         1 <0>         0.1616
     29 H6          5.3698    3.0437   -0.3920 H         1 <0>         0.0860
     30 H7          3.7424    3.7098   -0.6682 H         1 <0>         0.0430
     31 H8          2.4745    4.5866    1.2545 H         1 <0>         0.0365
     32 H9          2.4079    2.8672    1.7119 H         1 <0>         0.0966
     33 H10         1.9857    4.4393    3.6450 H         1 <0>         0.0859
     34 H11         3.3847    3.3631    3.9005 H         1 <0>         0.0707
     35 H12         5.6796    6.2930    2.9337 H         1 <0>         0.0870
     36 H13         5.8221    4.5864    3.4311 H         1 <0>         0.0720
     37 H14         6.0932    4.7167    1.0022 H         1 <0>         0.0880
     38 H15         4.5809    5.6437    0.8489 H         1 <0>         0.0393
     39 H16         1.4306    5.7663    4.4080 H         1 <0>         0.1305
     40 H17         0.6599    7.7725    5.6073 H         1 <0>         0.1313
     41 H18         4.5445    9.4985    5.2331 H         1 <0>         0.1314
     42 H19         5.3267    7.4915    4.0426 H         1 <0>         0.1308
@<TRIPOS>BOND
     1    1   10 ar
     2    1    2 ar
     3    1   25 1
     4    2    3 ar
     5    2   26 1
     6    3    8 ar
     7    3    4 1
     8    4    5 2
     9    4   11 1
    10    5    6 1
    11    5   27 1
    12    6    7 1
    13    6    8 1
    14    8    9 ar
    15    9   10 ar
    16   10   28 1
    17   11   12 1
    18   11   29 1
    19   11   30 1
    20   12   17 1
    21   12   13 1
    22   13   14 1
    23   13   31 1
    24   13   32 1
    25   14   15 1
    26   14   33 1
    27   14   34 1
    28   15   16 1
    29   15   18 1
    30   16   17 1
    31   16   35 1
    32   16   36 1
    33   17   37 1
    34   17   38 1
    35   18   23 ar
    36   18   19 ar
    37   19   20 ar
    38   19   39 1
    39   20   21 ar
    40   20   40 1
    41   21   22 ar
    42   21   24 1
    43   22   23 ar
    44   22   41 1
    45   23   42 1
@<TRIPOS>MOLECULE
ZINC03872369
   27    28     0     0     0
SMALL
USER_CHARGES

@<TRIPOS>ATOM
      1 C1         -0.0167    1.3781    0.0096 C.ar      1 <0>        -0.1278
      2 C2          1.1699    2.1013    0.0022 C.ar      1 <0>        -0.0760
      3 C3          2.3760    1.4373   -0.0096 C.ar      1 <0>        -0.0871
      4 C4          2.3994    0.0479   -0.0213 C.ar      1 <0>        -0.1240
      5 C5          1.2214   -0.6754   -0.0154 C.ar      1 <0>         0.0920
      6 C6          0.0021   -0.0041    0.0020 C.ar      1 <0>         0.1009
      7 O1         -1.1639   -0.7039    0.0111 O.3       1 <0>        -0.4894
      8 O2          1.2536   -2.0349   -0.0267 O.3       1 <0>        -0.4893
      9 C7          3.6985    2.1589   -0.0019 C.3       1 <0>        -0.0938
     10 C8          3.5179    3.6167   -0.4196 C.3       1 <0>         0.0260
     11 H1          3.2457    3.6655   -1.4739 H         1 <0>         0.1479
     12 C9          2.3990    4.2287    0.4314 C.3       1 <0>        -0.1401
     13 C10         1.0724    3.6047    0.0035 C.3       1 <0>        -0.0778
     14 N1          4.7691    4.3537   -0.1972 N.4       1 <0>        -0.6353
     15 H2         -0.9618    1.9005    0.0260 H         1 <0>         0.1401
     16 H3          3.3462   -0.4714   -0.0354 H         1 <0>         0.1375
     17 H4         -1.5109   -0.9016   -0.8696 H         1 <0>         0.4018
     18 H5          1.2716   -2.4352    0.8534 H         1 <0>         0.4007
     19 H6          4.1219    2.1225    1.0018 H         1 <0>         0.0992
     20 H7          4.3799    1.6678   -0.6967 H         1 <0>         0.1015
     21 H8          2.5814    4.0169    1.4850 H         1 <0>         0.0947
     22 H9          2.3655    5.3067    0.2736 H         1 <0>         0.0960
     23 H10         0.8201    3.9494   -0.9994 H         1 <0>         0.0921
     24 H11         0.2898    3.9135    0.6965 H         1 <0>         0.0998
     25 H12         5.5067    3.9374   -0.7456 H         1 <0>         0.4376
     26 H13         4.6463    5.3161   -0.4741 H         1 <0>         0.4386
     27 H14         5.0137    4.3137    0.7809 H         1 <0>         0.4342
@<TRIPOS>BOND
     1    1    6 ar
     2    1    2 ar
     3    1   15 1
     4    2   13 1
     5    2    3 ar
     6    3    4 ar
     7    3    9 1
     8    4    5 ar
     9    4   16 1
    10    5    6 ar
    11    5    8 1
    12    6    7 1
    13    7   17 1
    14    8   18 1
    15    9   10 1
    16    9   19 1
    17    9   20 1
    18   10   11 1
    19   10   12 1
    20   10   14 1
    21   12   13 1
    22   12   21 1
    23   12   22 1
    24   13   23 1
    25   13   24 1
    26   14   25 1
    27   14   26 1
    28   14   27 1
@<TRIPOS>MOLECULE
ZINC03872370
   27    28     0     0     0
SMALL
USER_CHARGES

@<TRIPOS>ATOM
      1 C1         -0.0167    1.3781    0.0096 C.ar      1 <0>        -0.1279
      2 C2          1.1699    2.1013    0.0022 C.ar      1 <0>        -0.0759
      3 C3          2.3760    1.4373   -0.0161 C.ar      1 <0>        -0.0872
      4 C4          2.3994    0.0479   -0.0197 C.ar      1 <0>        -0.1239
      5 C5          1.2215   -0.6754   -0.0113 C.ar      1 <0>         0.0920
      6 C6          0.0021   -0.0041    0.0020 C.ar      1 <0>         0.1009
      7 O1         -1.1639   -0.7039    0.0071 O.3       1 <0>        -0.4896
      8 O2          1.2537   -2.0349   -0.0165 O.3       1 <0>        -0.4892
      9 C7          3.6981    2.1591   -0.0413 C.3       1 <0>        -0.0938
     10 C8          3.5257    3.6124    0.3953 C.3       1 <0>         0.0259
     11 H1          3.2736    3.6498    1.4550 H         1 <0>         0.1479
     12 C9          2.3908    4.2333   -0.4277 C.3       1 <0>        -0.1401
     13 C10         1.0726    3.6046    0.0188 C.3       1 <0>        -0.0778
     14 N1          4.7725    4.3518    0.1570 N.4       1 <0>        -0.6353
     15 H2         -0.9618    1.9005    0.0260 H         1 <0>         0.1402
     16 H3          3.3463   -0.4714   -0.0296 H         1 <0>         0.1375
     17 H4         -1.5079   -0.9016   -0.8747 H         1 <0>         0.4019
     18 H5          1.2713   -2.4313    0.8653 H         1 <0>         0.4006
     19 H6          4.3926    1.6607    0.6351 H         1 <0>         0.1014
     20 H7          4.1023    2.1334   -1.0533 H         1 <0>         0.0992
     21 H8          2.3605    5.3095   -0.2578 H         1 <0>         0.0960
     22 H9          2.5531    4.0327   -1.4867 H         1 <0>         0.0946
     23 H10         0.2769    3.9207   -0.6559 H         1 <0>         0.0998
     24 H11         0.8394    3.9385    1.0299 H         1 <0>         0.0921
     25 H12         4.9984    4.3223   -0.8260 H         1 <0>         0.4343
     26 H13         4.6551    5.3112    0.4464 H         1 <0>         0.4387
     27 H14         5.5203    3.9297    0.6868 H         1 <0>         0.4376
@<TRIPOS>BOND
     1    1    6 ar
     2    1    2 ar
     3    1   15 1
     4    2   13 1
     5    2    3 ar
     6    3    4 ar
     7    3    9 1
     8    4    5 ar
     9    4   16 1
    10    5    6 ar
    11    5    8 1
    12    6    7 1
    13    7   17 1
    14    8   18 1
    15    9   10 1
    16    9   19 1
    17    9   20 1
    18   10   11 1
    19   10   12 1
    20   10   14 1
    21   12   13 1
    22   12   21 1
    23   12   22 1
    24   13   23 1
    25   13   24 1
    26   14   25 1
    27   14   26 1
    28   14   27 1
@<TRIPOS>MOLECULE
ZINC03995669
   41    42     0     0     0
SMALL
USER_CHARGES

@<TRIPOS>ATOM
      1 C1         -0.0187    1.5258    0.0104 C.3       1 <0>        -0.1567
      2 C2          0.0021   -0.0041    0.0020 C.3       1 <0>        -0.1505
      3 C3         -1.4333   -0.5336    0.0129 C.3       1 <0>        -0.0151
      4 N1         -1.4134   -2.0025    0.0048 N.4       1 <0>        -0.5080
      5 C4         -2.7915   -2.5110    0.0152 C.3       1 <0>         0.0279
      6 H1         -3.3476   -2.0812   -0.8179 H         1 <0>         0.1451
      7 C5         -3.4705   -2.1353    1.3376 C.3       1 <0>        -0.1409
      8 C6         -4.9583   -2.4618    1.2247 C.3       1 <0>        -0.0656
      9 C7         -5.1551   -3.8761    0.7453 C.ar      1 <0>        -0.1146
     10 C8         -4.1572   -4.5951    0.1282 C.ar      1 <0>        -0.0506
     11 C9         -4.4067   -5.8936   -0.2974 C.ar      1 <0>        -0.1476
     12 C10        -5.6443   -6.4724   -0.1032 C.ar      1 <0>        -0.0705
     13 C11        -6.6476   -5.7564    0.5203 C.ar      1 <0>        -0.1980
     14 C12        -6.4045   -4.4607    0.9438 C.ar      1 <0>         0.1359
     15 O1         -7.3906   -3.7545    1.5569 O.3       1 <0>        -0.3145
     16 C13        -8.6477   -4.4116    1.7297 C.3       1 <0>         0.0238
     17 C14        -2.7790   -4.0334   -0.1056 C.3       1 <0>        -0.0591
     18 H2         -2.4412   -4.3119   -1.1039 H         1 <0>         0.1075
     19 C15        -1.8160   -4.6139    0.9320 C.3       1 <0>        -0.1723
     20 H3          1.0039    1.9031    0.0027 H         1 <0>         0.0777
     21 H4         -0.5459    1.8868   -0.8726 H         1 <0>         0.0674
     22 H5         -0.5289    1.8773    0.9072 H         1 <0>         0.0673
     23 H6          0.5123   -0.3556   -0.8948 H         1 <0>         0.0864
     24 H7          0.5293   -0.3651    0.8851 H         1 <0>         0.0860
     25 H8         -1.9435   -0.1821    0.9097 H         1 <0>         0.1336
     26 H9         -1.9605   -0.1726   -0.8702 H         1 <0>         0.1325
     27 H10        -0.9411   -2.3279   -0.8254 H         1 <0>         0.4281
     28 H11        -3.0295   -2.7091    2.1527 H         1 <0>         0.0948
     29 H12        -3.3418   -1.0696    1.5266 H         1 <0>         0.0932
     30 H13        -5.4271   -2.3448    2.2017 H         1 <0>         0.0981
     31 H14        -5.4244   -1.7747    0.5184 H         1 <0>         0.0862
     32 H15        -3.6243   -6.4558   -0.7856 H         1 <0>         0.1272
     33 H16        -5.8279   -7.4829   -0.4375 H         1 <0>         0.1332
     34 H17        -7.6175   -6.2051    0.6764 H         1 <0>         0.1357
     35 H18        -9.0492   -4.6899    0.7553 H         1 <0>         0.0602
     36 H19        -8.5093   -5.3074    2.3350 H         1 <0>         0.0601
     37 H20        -9.3436   -3.7386    2.2306 H         1 <0>         0.1071
     38 H21        -2.1444   -4.3295    1.9316 H         1 <0>         0.0770
     39 H22        -1.8042   -5.7006    0.8489 H         1 <0>         0.0902
     40 H23        -0.8133   -4.2250    0.7546 H         1 <0>         0.0562
     41 H24        -0.9254   -2.3367    0.8222 H         1 <0>         0.4256
@<TRIPOS>BOND
     1    1    2 1
     2    1   20 1
     3    1   21 1
     4    1   22 1
     5    2    3 1
     6    2   23 1
     7    2   24 1
     8    3    4 1
     9    3   25 1
    10    3   26 1
    11    4    5 1
    12    4   27 1
    13    4   41 1
    14    5    6 1
    15    5   17 1
    16    5    7 1
    17    7    8 1
    18    7   28 1
    19    7   29 1
    20    8    9 1
    21    8   30 1
    22    8   31 1
    23    9   14 ar
    24    9   10 ar
    25   10   11 ar
    26   10   17 1
    27   11   12 ar
    28   11   32 1
    29   12   13 ar
    30   12   33 1
    31   13   14 ar
    32   13   34 1
    33   14   15 1
    34   15   16 1
    35   16   35 1
    36   16   36 1
    37   16   37 1
    38   17   18 1
    39   17   19 1
    40   19   38 1
    41   19   39 1
    42   19   40 1
@<TRIPOS>MOLECULE
ZINC00000393
   38    39     0     0     0
SMALL
USER_CHARGES

@<TRIPOS>ATOM
      1 C1         -0.0187    1.5258    0.0104 C.3       1 <0>        -0.1564
      2 C2          0.0021   -0.0041    0.0020 C.3       1 <0>        -0.1505
      3 C3          0.7421   -0.5109    1.2415 C.3       1 <0>        -0.0112
      4 N1          0.7620   -1.9797    1.2335 N.4       1 <0>        -0.3828
      5 C4         -0.6100   -2.4869    1.3555 C.3       1 <0>        -0.0132
      6 C5         -0.6031   -4.0144    1.2663 C.3       1 <0>        -0.1450
      7 C6          0.2556   -4.5827    2.3998 C.3       1 <0>        -0.1308
      8 C7          1.6644   -3.9894    2.3065 C.3       1 <0>        -0.0593
      9 H1          2.1267   -4.2955    1.3681 H         1 <0>         0.1014
     10 C8          1.5734   -2.4628    2.3572 C.3       1 <0>        -0.0029
     11 C9          2.4961   -4.4835    3.4620 C.ar      1 <0>        -0.0829
     12 C10         2.1020   -4.2173    4.7605 C.ar      1 <0>        -0.1247
     13 C11         2.8627   -4.6692    5.8226 C.ar      1 <0>        -0.0943
     14 C12         4.0194   -5.3879    5.5890 C.ar      1 <0>        -0.1333
     15 C13         4.4169   -5.6562    4.2875 C.ar      1 <0>         0.1174
     16 C14         3.6483   -5.2068    3.2232 C.ar      1 <0>        -0.1345
     17 O1          5.5542   -6.3630    4.0551 O.3       1 <0>        -0.4972
     18 H2          1.0039    1.9031    0.0027 H         1 <0>         0.0673
     19 H3         -0.5459    1.8868   -0.8726 H         1 <0>         0.0775
     20 H4         -0.5289    1.8773    0.9072 H         1 <0>         0.0668
     21 H5         -1.0205   -0.3814    0.0098 H         1 <0>         0.0861
     22 H6          0.5123   -0.3556   -0.8948 H         1 <0>         0.0859
     23 H7          1.7647   -0.1336    1.2338 H         1 <0>         0.1309
     24 H8          0.2319   -0.1594    2.1383 H         1 <0>         0.1292
     25 H9         -1.0257   -2.1814    2.3157 H         1 <0>         0.1287
     26 H10        -1.2207   -2.0791    0.5500 H         1 <0>         0.1328
     27 H11        -1.6224   -4.3891    1.3589 H         1 <0>         0.1146
     28 H12        -0.1877   -4.3210    0.3063 H         1 <0>         0.0887
     29 H13        -0.1878   -4.3194    3.3601 H         1 <0>         0.0849
     30 H14         0.3101   -5.6674    2.3073 H         1 <0>         0.0964
     31 H15         2.5747   -2.0372    2.2912 H         1 <0>         0.1325
     32 H16         1.1111   -2.1578    3.2961 H         1 <0>         0.1305
     33 H17         1.1985   -3.6551    4.9451 H         1 <0>         0.1241
     34 H18         2.5529   -4.4600    6.8359 H         1 <0>         0.1343
     35 H19         4.6138   -5.7401    6.4191 H         1 <0>         0.1362
     36 H20         3.9531   -5.4185    2.2090 H         1 <0>         0.1317
     37 H21         5.4191   -7.3189    4.0010 H         1 <0>         0.3991
     38 H22         1.1627   -2.3049    0.3664 H         1 <0>         0.4223
@<TRIPOS>BOND
     1    1    2 1
     2    1   18 1
     3    1   19 1
     4    1   20 1
     5    2    3 1
     6    2   21 1
     7    2   22 1
     8    3    4 1
     9    3   23 1
    10    3   24 1
    11    4   10 1
    12    4    5 1
    13    4   38 1
    14    5    6 1
    15    5   25 1
    16    5   26 1
    17    6    7 1
    18    6   27 1
    19    6   28 1
    20    7    8 1
    21    7   29 1
    22    7   30 1
    23    8    9 1
    24    8   10 1
    25    8   11 1
    26   10   31 1
    27   10   32 1
    28   11   16 ar
    29   11   12 ar
    30   12   13 ar
    31   12   33 1
    32   13   14 ar
    33   13   34 1
    34   14   15 ar
    35   14   35 1
    36   15   16 ar
    37   15   17 1
    38   16   36 1
    39   17   37 1
@<TRIPOS>MOLECULE
ZINC00402947
   38    39     0     0     0
SMALL
USER_CHARGES

@<TRIPOS>ATOM
      1 C1         -0.0187    1.5258    0.0104 C.3       1 <0>        -0.1564
      2 C2          0.0021   -0.0041    0.0020 C.3       1 <0>        -0.1507
      3 C3          0.7421   -0.5109    1.2415 C.3       1 <0>        -0.0110
      4 N1          0.7620   -1.9797    1.2335 N.4       1 <0>        -0.3830
      5 C4          1.5443   -2.4507    0.0842 C.3       1 <0>        -0.0131
      6 C5          1.5009   -3.9791    0.0247 C.3       1 <0>        -0.1449
      7 C6          2.0923   -4.5518    1.3160 C.3       1 <0>        -0.1314
      8 C7          1.3153   -3.9953    2.5125 C.3       1 <0>        -0.0592
      9 H1          0.2782   -4.3266    2.4589 H         1 <0>         0.1014
     10 C8          1.3656   -2.4663    2.4799 C.3       1 <0>        -0.0024
     11 C9          1.9371   -4.4929    3.7918 C.ar      1 <0>        -0.0827
     12 C10         3.2540   -4.1884    4.0840 C.ar      1 <0>        -0.1249
     13 C11         3.8273   -4.6434    5.2568 C.ar      1 <0>        -0.0942
     14 C12         3.0856   -5.4043    6.1399 C.ar      1 <0>        -0.1335
     15 C13         1.7645   -5.7112    5.8491 C.ar      1 <0>         0.1175
     16 C14         1.1895   -5.2481    4.6742 C.ar      1 <0>        -0.1346
     17 O1          1.0328   -6.4594    6.7161 O.3       1 <0>        -0.4961
     18 H2          1.0039    1.9031    0.0027 H         1 <0>         0.0668
     19 H3         -0.5459    1.8868   -0.8726 H         1 <0>         0.0775
     20 H4         -0.5289    1.8773    0.9072 H         1 <0>         0.0671
     21 H5         -1.0205   -0.3814    0.0098 H         1 <0>         0.0859
     22 H6          0.5123   -0.3556   -0.8948 H         1 <0>         0.0862
     23 H7          1.7647   -0.1336    1.2338 H         1 <0>         0.1292
     24 H8          0.2319   -0.1594    2.1383 H         1 <0>         0.1306
     25 H9          1.1241   -2.0397   -0.8337 H         1 <0>         0.1328
     26 H10         2.5779   -2.1208    0.1892 H         1 <0>         0.1287
     27 H11         0.4677   -4.3100   -0.0805 H         1 <0>         0.0888
     28 H12         2.0838   -4.3268   -0.8282 H         1 <0>         0.1147
     29 H13         2.0121   -5.6388    1.3029 H         1 <0>         0.0969
     30 H14         3.1404   -4.2635    1.3960 H         1 <0>         0.0849
     31 H15         2.4030   -2.1361    2.5337 H         1 <0>         0.1304
     32 H16         0.8134   -2.0668    3.3305 H         1 <0>         0.1320
     33 H17         3.8356   -3.5943    3.3947 H         1 <0>         0.1241
     34 H18         4.8560   -4.4042    5.4827 H         1 <0>         0.1343
     35 H19         3.5341   -5.7601    7.0556 H         1 <0>         0.1362
     36 H20         0.1597   -5.4817    4.4478 H         1 <0>         0.1317
     37 H21         0.5592   -5.9405    7.3807 H         1 <0>         0.3979
     38 H22        -0.1823   -2.3275    1.1601 H         1 <0>         0.4223
@<TRIPOS>BOND
     1    1    2 1
     2    1   18 1
     3    1   19 1
     4    1   20 1
     5    2    3 1
     6    2   21 1
     7    2   22 1
     8    3    4 1
     9    3   23 1
    10    3   24 1
    11    4   10 1
    12    4    5 1
    13    4   38 1
    14    5    6 1
    15    5   25 1
    16    5   26 1
    17    6    7 1
    18    6   27 1
    19    6   28 1
    20    7    8 1
    21    7   29 1
    22    7   30 1
    23    8    9 1
    24    8   10 1
    25    8   11 1
    26   10   31 1
    27   10   32 1
    28   11   16 ar
    29   11   12 ar
    30   12   13 ar
    31   12   33 1
    32   13   14 ar
    33   13   34 1
    34   14   15 ar
    35   14   35 1
    36   15   16 ar
    37   15   17 1
    38   16   36 1
    39   17   37 1
@<TRIPOS>MOLECULE
ZINC03995702
   50    51     0     0     0
SMALL
USER_CHARGES

@<TRIPOS>ATOM
      1 C1          0.0304    1.5048    0.1935 C.3       1 <0>        -0.1557
      2 C2          0.0290   -0.0246    0.1511 C.3       1 <0>        -0.1477
      3 C3         -1.4134   -0.5320    0.0981 C.3       1 <0>        -0.0241
      4 N1         -1.4134   -1.9901   -0.0807 N.4       1 <0>        -0.3824
      5 C4         -0.8124   -2.6280    1.0982 C.3       1 <0>        -0.0194
      6 C5         -1.6937   -2.3707    2.3222 C.3       1 <0>        -0.1512
      7 C6         -1.0014   -2.9162    3.5728 C.3       1 <0>        -0.1554
      8 C7         -2.7944   -2.4636   -0.2430 C.3       1 <0>         0.0227
      9 H1         -3.3661   -2.2440    0.6587 H         1 <0>         0.1447
     10 C8         -2.7952   -3.9752   -0.4995 C.3       1 <0>        -0.1399
     11 C9         -4.2365   -4.4754   -0.4251 C.3       1 <0>        -0.0646
     12 C10        -5.1318   -3.6432   -1.3052 C.ar      1 <0>        -0.1137
     13 C11        -4.7687   -2.3984   -1.7660 C.ar      1 <0>        -0.0490
     14 C12        -5.6449   -1.6788   -2.5685 C.ar      1 <0>        -0.1480
     15 C13        -6.8747   -2.2017   -2.9129 C.ar      1 <0>        -0.0706
     16 C14        -7.2416   -3.4529   -2.4569 C.ar      1 <0>        -0.1985
     17 C15        -6.3726   -4.1728   -1.6544 C.ar      1 <0>         0.1360
     18 O1         -6.7322   -5.4037   -1.2044 O.3       1 <0>        -0.3144
     19 C16        -8.0173   -5.8887   -1.5985 C.3       1 <0>         0.0239
     20 C17        -3.4384   -1.7701   -1.4418 C.3       1 <0>        -0.0580
     21 H2         -3.5852   -0.7151   -1.2105 H         1 <0>         0.1055
     22 C18        -2.5134   -1.8958   -2.6540 C.3       1 <0>        -0.1728
     23 H3          1.0580    1.8663    0.2312 H         1 <0>         0.0773
     24 H4         -0.4589    1.8935   -0.6996 H         1 <0>         0.0667
     25 H5         -0.5069    1.8442    1.0790 H         1 <0>         0.0669
     26 H6          0.5663   -0.3641   -0.7345 H         1 <0>         0.0841
     27 H7          0.5183   -0.4133    1.0442 H         1 <0>         0.0869
     28 H8         -1.9216   -0.2802    1.0289 H         1 <0>         0.1328
     29 H9         -1.9329   -0.0635   -0.7378 H         1 <0>         0.1325
     30 H10        -0.7308   -3.7016    0.9285 H         1 <0>         0.1323
     31 H11         0.1798   -2.2110    1.2708 H         1 <0>         0.1334
     32 H12        -1.8552   -1.2986    2.4347 H         1 <0>         0.0851
     33 H13        -2.6532   -2.8708    2.1907 H         1 <0>         0.0877
     34 H14        -0.8399   -3.9882    3.4603 H         1 <0>         0.0674
     35 H15        -0.0419   -2.4160    3.7044 H         1 <0>         0.0662
     36 H16        -1.6293   -2.7328    4.4448 H         1 <0>         0.0765
     37 H17        -2.3862   -4.1799   -1.4889 H         1 <0>         0.0939
     38 H18        -2.1930   -4.4765    0.2582 H         1 <0>         0.0931
     39 H19        -4.2739   -5.5140   -0.7539 H         1 <0>         0.0980
     40 H20        -4.5861   -4.4124    0.6054 H         1 <0>         0.0851
     41 H21        -5.3610   -0.7001   -2.9261 H         1 <0>         0.1265
     42 H22        -7.5485   -1.6342   -3.5377 H         1 <0>         0.1328
     43 H23        -8.2022   -3.8676   -2.7248 H         1 <0>         0.1355
     44 H24        -8.7887   -5.2082   -1.2381 H         1 <0>         0.0600
     45 H25        -8.0651   -5.9489   -2.6858 H         1 <0>         0.0600
     46 H26        -8.1783   -6.8790   -1.1724 H         1 <0>         0.1069
     47 H27        -2.3557   -2.9498   -2.8830 H         1 <0>         0.0776
     48 H28        -2.9696   -1.4020   -3.5119 H         1 <0>         0.0902
     49 H29        -1.5558   -1.4253   -2.4307 H         1 <0>         0.0557
     50 H30        -0.8775   -2.2282   -0.9018 H         1 <0>         0.4211
@<TRIPOS>BOND
     1    1    2 1
     2    1   23 1
     3    1   24 1
     4    1   25 1
     5    2    3 1
     6    2   26 1
     7    2   27 1
     8    3    4 1
     9    3   28 1
    10    3   29 1
    11    4    5 1
    12    4    8 1
    13    4   50 1
    14    5    6 1
    15    5   30 1
    16    5   31 1
    17    6    7 1
    18    6   32 1
    19    6   33 1
    20    7   34 1
    21    7   35 1
    22    7   36 1
    23    8    9 1
    24    8   20 1
    25    8   10 1
    26   10   11 1
    27   10   37 1
    28   10   38 1
    29   11   12 1
    30   11   39 1
    31   11   40 1
    32   12   17 ar
    33   12   13 ar
    34   13   14 ar
    35   13   20 1
    36   14   15 ar
    37   14   41 1
    38   15   16 ar
    39   15   42 1
    40   16   17 ar
    41   16   43 1
    42   17   18 1
    43   18   19 1
    44   19   44 1
    45   19   45 1
    46   19   46 1
    47   20   21 1
    48   20   22 1
    49   22   47 1
    50   22   48 1
    51   22   49 1
@<TRIPOS>MOLECULE
ZINC13737041
   45    46     0     0     0
SMALL
USER_CHARGES
(3S)-5-methoxy-N,N-dipropyl-chroman-3-amine
@<TRIPOS>ATOM
      1 C1          0.0113    1.5677   -2.3850 C.3       1 <0>        -0.1559
      2 C2         -0.7367    1.8857   -1.0887 C.3       1 <0>        -0.1648
      3 C3         -0.0629    1.1629    0.0794 C.3       1 <0>        -0.0113
      4 C4         -1.8742    0.6298    1.5952 C.3       1 <0>        -0.0186
      5 C5         -2.9350    0.8218    0.5094 C.3       1 <0>        -0.1545
      6 C6         -4.1861    0.0189    0.8711 C.3       1 <0>        -0.1575
      7 C7          0.2054    1.5192    2.4592 C.3       1 <0>        -0.0106
      8 H1          1.0935    2.0940    2.1965 H         1 <0>         0.1506
      9 C8         -0.4607    2.1338    3.6928 C.3       1 <0>        -0.0815
     10 C9          0.3834    1.8639    4.9128 C.ar      1 <0>        -0.2028
     11 C10         1.3520    0.8765    4.9160 C.ar      1 <0>         0.1536
     12 C11         2.1047    0.6520    6.0646 C.ar      1 <0>        -0.1718
     13 C12         1.8910    1.4111    7.1976 C.ar      1 <0>        -0.0321
     14 C13         0.9263    2.4000    7.1951 C.ar      1 <0>        -0.2274
     15 C14         0.1720    2.6275    6.0542 C.ar      1 <0>         0.1712
     16 O1         -0.7763    3.6009    6.0519 O.3       1 <0>        -0.3171
     17 C15        -0.9409    4.3491    7.2582 C.3       1 <0>         0.0237
     18 O2          1.5966    0.1104    3.8211 O.3       1 <0>        -0.2854
     19 C16         0.6038    0.0763    2.7948 C.3       1 <0>         0.0534
     20 H2         -0.4687    2.0827   -3.2172 H         1 <0>         0.0776
     21 H3          1.0454    1.9015   -2.2990 H         1 <0>         0.0665
     22 H4         -0.0099    0.4924   -2.5622 H         1 <0>         0.0671
     23 H5         -1.7708    1.5520   -1.1747 H         1 <0>         0.0994
     24 H6         -0.7155    2.9610   -0.9115 H         1 <0>         0.0860
     25 H7         -0.1299    0.0856   -0.0727 H         1 <0>         0.1327
     26 H8          0.9851    1.4577    0.1332 H         1 <0>         0.1310
     27 H9         -1.5315   -0.4050    1.5893 H         1 <0>         0.1330
     28 H10        -2.3042    0.8646    2.5688 H         1 <0>         0.1314
     29 H11        -3.1907    1.8788    0.4342 H         1 <0>         0.0864
     30 H12        -2.5436    0.4738   -0.4465 H         1 <0>         0.0964
     31 H13        -4.5775    0.3670    1.8271 H         1 <0>         0.0666
     32 H14        -4.9419    0.1558    0.0976 H         1 <0>         0.0782
     33 H15        -3.9305   -1.0380    0.9463 H         1 <0>         0.0673
     34 H16        -0.5622    3.2099    3.5520 H         1 <0>         0.1078
     35 H17        -1.4476    1.6919    3.8302 H         1 <0>         0.0961
     36 H18         2.8601   -0.1199    6.0697 H         1 <0>         0.1412
     37 H19         2.4784    1.2321    8.0861 H         1 <0>         0.1430
     38 H20         0.7596    2.9950    8.0810 H         1 <0>         0.1398
     39 H21        -1.2154    3.6747    8.0694 H         1 <0>         0.0630
     40 H22        -0.0057    4.8519    7.5044 H         1 <0>         0.0630
     41 H23        -1.7273    5.0913    7.1210 H         1 <0>         0.1077
     42 H24        -0.2692   -0.4733    3.1466 H         1 <0>         0.0885
     43 H25         1.0101   -0.4083    1.9070 H         1 <0>         0.1259
     44 N1         -0.7483    1.5500    1.3304 N.4       1 <0>        -0.3879
     45 H26        -1.1141    2.5040    1.2288 H         1 <0>         0.4308
@<TRIPOS>BOND
     1    1    2 1
     2    1   20 1
     3    1   21 1
     4    1   22 1
     5    2    3 1
     6    2   23 1
     7    2   24 1
     8    3   25 1
     9    3   26 1
    10    3   44 1
    11    4    5 1
    12    4   27 1
    13    4   28 1
    14    4   44 1
    15    5    6 1
    16    5   29 1
    17    5   30 1
    18    6   31 1
    19    6   32 1
    20    6   33 1
    21    7    8 1
    22    7   19 1
    23    7    9 1
    24    7   44 1
    25    9   10 1
    26    9   34 1
    27    9   35 1
    28   10   15 ar
    29   10   11 ar
    30   11   12 ar
    31   11   18 1
    32   12   13 ar
    33   12   36 1
    34   13   14 ar
    35   13   37 1
    36   14   15 ar
    37   14   38 1
    38   15   16 1
    39   16   17 1
    40   17   39 1
    41   17   40 1
    42   17   41 1
    43   18   19 1
    44   19   42 1
    45   19   43 1
    46   44   45 1
@<TRIPOS>MOLECULE
ZINC13737043
   45    46     0     0     0
SMALL
USER_CHARGES
(3R)-5-methoxy-N,N-dipropyl-chroman-3-amine
@<TRIPOS>ATOM
      1 C1          5.2890    8.1412    0.2925 C.3       1 <0>        -0.1561
      2 C2          5.5677    6.6764   -0.0502 C.3       1 <0>        -0.1491
      3 C3          4.4108    5.8072    0.4468 C.3       1 <0>        -0.0166
      4 C4          5.8394    3.8973    0.8639 C.3       1 <0>        -0.0145
      5 C5          5.5078    3.8573    2.3570 C.3       1 <0>        -0.1487
      6 C6          6.7540    3.4497    3.1455 C.3       1 <0>        -0.1548
      7 C7          3.4934    3.5680    0.3632 C.3       1 <0>        -0.0122
      8 H1          3.1504    3.7102    1.3880 H         1 <0>         0.1529
      9 C8          3.8418    2.0950    0.1335 C.3       1 <0>        -0.0785
     10 C9          2.5775    1.2748    0.0919 C.ar      1 <0>        -0.2029
     11 C10         1.3434    1.8622   -0.1208 C.ar      1 <0>         0.1532
     12 C11         0.2002    1.0700   -0.1641 C.ar      1 <0>        -0.1715
     13 C12         0.2922   -0.2965    0.0081 C.ar      1 <0>        -0.0323
     14 C13         1.5235   -0.8845    0.2250 C.ar      1 <0>        -0.2273
     15 C14         2.6664   -0.1006    0.2676 C.ar      1 <0>         0.1711
     16 O1          3.8773   -0.6794    0.4813 O.3       1 <0>        -0.3171
     17 C15         3.8970   -2.0978    0.6533 C.3       1 <0>         0.0237
     18 O2          1.2085    3.2039   -0.2859 O.3       1 <0>        -0.2846
     19 C16         2.3769    3.9566   -0.6145 C.3       1 <0>         0.0481
     20 H2          4.3639    8.4574   -0.1895 H         1 <0>         0.0676
     21 H3          5.1913    8.2494    1.3727 H         1 <0>         0.0671
     22 H4          6.1132    8.7604   -0.0616 H         1 <0>         0.0781
     23 H5          6.4928    6.3601    0.4318 H         1 <0>         0.0868
     24 H6          5.6654    6.5682   -1.1304 H         1 <0>         0.0866
     25 H7          3.4857    6.1234   -0.0352 H         1 <0>         0.1300
     26 H8          4.3131    5.9154    1.5270 H         1 <0>         0.1353
     27 H9          6.0850    2.8928    0.5192 H         1 <0>         0.1319
     28 H10         6.6914    4.5567    0.6985 H         1 <0>         0.1344
     29 H11         5.1785    4.8441    2.6826 H         1 <0>         0.0849
     30 H12         4.7130    3.1325    2.5334 H         1 <0>         0.0859
     31 H13         7.0833    2.4630    2.8199 H         1 <0>         0.0676
     32 H14         7.5487    4.1745    2.9691 H         1 <0>         0.0668
     33 H15         6.5177    3.4212    4.2092 H         1 <0>         0.0772
     34 H16         4.4764    1.7422    0.9465 H         1 <0>         0.1091
     35 H17         4.3733    1.9902   -0.8123 H         1 <0>         0.0951
     36 H18        -0.7632    1.5260   -0.3377 H         1 <0>         0.1412
     37 H19        -0.5985   -0.9063   -0.0272 H         1 <0>         0.1429
     38 H20         1.5957   -1.9535    0.3610 H         1 <0>         0.1397
     39 H21         3.2872   -2.3678    1.5155 H         1 <0>         0.0629
     40 H22         3.4965   -2.5778   -0.2396 H         1 <0>         0.0630
     41 H23         4.9225   -2.4299    0.8154 H         1 <0>         0.1075
     42 H24         2.6861    3.7282   -1.6344 H         1 <0>         0.0890
     43 H25         2.1644    5.0220   -0.5252 H         1 <0>         0.1269
     44 N1          4.6846    4.3993    0.0898 N.4       1 <0>        -0.3877
     45 H26         4.9058    4.3461   -0.9114 H         1 <0>         0.4277
@<TRIPOS>BOND
     1    1    2 1
     2    1   20 1
     3    1   21 1
     4    1   22 1
     5    2    3 1
     6    2   23 1
     7    2   24 1
     8    3   25 1
     9    3   26 1
    10    3   44 1
    11    4    5 1
    12    4   27 1
    13    4   28 1
    14    4   44 1
    15    5    6 1
    16    5   29 1
    17    5   30 1
    18    6   31 1
    19    6   32 1
    20    6   33 1
    21    7    8 1
    22    7   19 1
    23    7    9 1
    24    7   44 1
    25    9   10 1
    26    9   34 1
    27    9   35 1
    28   10   15 ar
    29   10   11 ar
    30   11   12 ar
    31   11   18 1
    32   12   13 ar
    33   12   36 1
    34   13   14 ar
    35   13   37 1
    36   14   15 ar
    37   14   38 1
    38   15   16 1
    39   16   17 1
    40   17   39 1
    41   17   40 1
    42   17   41 1
    43   18   19 1
    44   19   42 1
    45   19   43 1
    46   44   45 1
@<TRIPOS>MOLECULE
ZINC03778441
   61    63     0     0     0
SMALL
USER_CHARGES
diethylsulfamoylamino-hydroxy-propyl-BLAH
@<TRIPOS>ATOM
      1 C1         -2.0685    7.1638    0.7922 C.3       1 <0>        -0.1551
      2 C2         -1.8026    5.6616    0.9081 C.3       1 <0>        -0.1549
      3 C3         -1.1393    5.1605   -0.3764 C.3       1 <0>        -0.0121
      4 C4         -0.3471    3.2955    0.9446 C.3       1 <0>        -0.0295
      5 C5         -0.3749    1.7671    1.0422 C.3       1 <0>         0.1369
      6 H1          0.0903    1.4532    1.9766 H         1 <0>         0.1305
      7 C6          0.4035    1.1863   -0.1387 C.3       1 <0>        -0.1381
      8 C7         -0.2182    1.6622   -1.4560 C.3       1 <0>        -0.1001
      9 H2         -1.2246    1.2570   -1.5610 H         1 <0>         0.0995
     10 C8         -0.2642    3.1940   -1.4868 C.3       1 <0>         0.0372
     11 H3          0.7486    3.5960   -1.5142 H         1 <0>         0.1504
     12 C9         -1.0337    3.6298   -2.7371 C.3       1 <0>        -0.0983
     13 C10        -0.5007    2.9491   -3.9676 C.ar      1 <0>        -0.0754
     14 C11        -0.8184    3.4998   -5.2033 C.ar      1 <0>        -0.1195
     15 C12        -0.3663    2.9186   -6.3699 C.ar      1 <0>        -0.0934
     16 C13         0.4092    1.7765   -6.3127 C.ar      1 <0>        -0.1322
     17 C14         0.7302    1.2256   -5.0841 C.ar      1 <0>         0.1143
     18 C15         0.2766    1.8161   -3.9055 C.ar      1 <0>        -0.1095
     19 C16         0.6765    1.1819   -2.6021 C.3       1 <0>        -0.0627
     20 O1          1.4929    0.1023   -5.0263 O.3       1 <0>        -0.4941
     21 N1         -1.7610    1.2952    0.9969 N.pl3     1 <0>        -1.1398
     22 S1         -2.5673    0.9583    2.4036 S.o2      1 <0>         2.7747
     23 O2         -2.3657    2.0712    3.2639 O.2       1 <0>        -0.9651
     24 O3         -3.8627    0.5080    2.0314 O.2       1 <0>        -0.9588
     25 N2         -1.8031   -0.3301    3.1095 N.pl3     1 <0>        -0.9984
     26 C17        -0.7862   -0.1041    4.1396 C.3       1 <0>         0.1173
     27 C18        -1.4325   -0.1971    5.5233 C.3       1 <0>        -0.1777
     28 C19        -2.1439   -1.6960    2.7038 C.3       1 <0>         0.1060
     29 C20        -1.1326   -2.1871    1.6660 C.3       1 <0>        -0.1734
     30 H4         -1.1254    7.6892    0.6414 H         1 <0>         0.0674
     31 H5         -2.7285    7.3517   -0.0547 H         1 <0>         0.0662
     32 H6         -2.5411    7.5208    1.7072 H         1 <0>         0.0781
     33 H7         -2.7457    5.1363    1.0588 H         1 <0>         0.0845
     34 H8         -1.1427    5.4737    1.7550 H         1 <0>         0.0914
     35 H9         -0.1588    5.6244   -0.4838 H         1 <0>         0.1353
     36 H10        -1.7610    5.4225   -1.2325 H         1 <0>         0.1302
     37 H11         0.6853    3.6448    0.9583 H         1 <0>         0.1472
     38 H12        -0.8895    3.7267    1.7860 H         1 <0>         0.1468
     39 H13         0.3691    0.0977   -0.0947 H         1 <0>         0.1064
     40 H14         1.4405    1.5181   -0.0871 H         1 <0>         0.1016
     41 H15        -2.0866    3.3753   -2.6156 H         1 <0>         0.0954
     42 H16        -0.9394    4.7092   -2.8566 H         1 <0>         0.1026
     43 H17        -1.4257    4.3916   -5.2509 H         1 <0>         0.1288
     44 H18        -0.6185    3.3547   -7.3252 H         1 <0>         0.1357
     45 H19         0.7631    1.3153   -7.2229 H         1 <0>         0.1369
     46 H20         1.7116    1.4422   -2.3806 H         1 <0>         0.0927
     47 H21         0.5927    0.0988   -2.6911 H         1 <0>         0.0955
     48 H22         0.9840   -0.7198   -5.0415 H         1 <0>         0.3951
     49 H23        -2.2065    1.1801    0.1430 H         1 <0>         0.4161
     50 H24        -0.0057   -0.8598    4.0516 H         1 <0>         0.0857
     51 H25        -0.3498    0.8860    4.0082 H         1 <0>         0.0790
     52 H26        -1.8689   -1.1872    5.6546 H         1 <0>         0.0642
     53 H27        -0.6759   -0.0289    6.2897 H         1 <0>         0.0745
     54 H28        -2.2130    0.5587    5.6112 H         1 <0>         0.0616
     55 H29        -2.1178   -2.3509    3.5748 H         1 <0>         0.0904
     56 H30        -3.1439   -1.7075    2.2704 H         1 <0>         0.0928
     57 H31        -1.0951   -1.4838    0.8341 H         1 <0>         0.0526
     58 H32        -0.1467   -2.2595    2.1253 H         1 <0>         0.0632
     59 H33        -1.4355   -3.1678    1.2993 H         1 <0>         0.0744
     60 N3         -1.0209    3.6917   -0.3126 N.4       1 <0>        -0.3919
     61 H34        -1.9618    3.2810   -0.3273 H         1 <0>         0.4208
@<TRIPOS>BOND
     1    1    2 1
     2    1   30 1
     3    1   31 1
     4    1   32 1
     5    2    3 1
     6    2   33 1
     7    2   34 1
     8    3   35 1
     9    3   36 1
    10    3   60 1
    11    4    5 1
    12    4   37 1
    13    4   38 1
    14    4   60 1
    15    5    6 1
    16    5    7 1
    17    5   21 1
    18    7    8 1
    19    7   39 1
    20    7   40 1
    21    8    9 1
    22    8   19 1
    23    8   10 1
    24   10   11 1
    25   10   12 1
    26   10   60 1
    27   12   13 1
    28   12   41 1
    29   12   42 1
    30   13   18 ar
    31   13   14 ar
    32   14   15 ar
    33   14   43 1
    34   15   16 ar
    35   15   44 1
    36   16   17 ar
    37   16   45 1
    38   17   18 ar
    39   17   20 1
    40   18   19 1
    41   19   46 1
    42   19   47 1
    43   20   48 1
    44   21   22 1
    45   21   49 1
    46   22   23 2
    47   22   24 2
    48   22   25 1
    49   25   26 1
    50   25   28 1
    51   26   27 1
    52   26   50 1
    53   26   51 1
    54   27   52 1
    55   27   53 1
    56   27   54 1
    57   28   29 1
    58   28   55 1
    59   28   56 1
    60   29   57 1
    61   29   58 1
    62   29   59 1
    63   60   61 1
@<TRIPOS>MOLECULE
ZINC03781664
   32    33     0     0     0
SMALL
USER_CHARGES

@<TRIPOS>ATOM
      1 C1         -0.0187    1.5258    0.0104 C.3       1 <0>        -0.1572
      2 C2          0.0021   -0.0041    0.0020 C.3       1 <0>        -0.1505
      3 C3         -1.4333   -0.5336    0.0129 C.3       1 <0>        -0.0146
      4 N1         -1.4134   -2.0025    0.0048 N.4       1 <0>        -0.5060
      5 C4         -2.7915   -2.5110    0.0152 C.3       1 <0>         0.0302
      6 H1         -3.3461   -2.0802   -0.8185 H         1 <0>         0.1464
      7 C5         -2.7765   -4.0369   -0.1122 C.3       1 <0>        -0.1372
      8 C6         -4.1953   -4.5592   -0.3482 C.3       1 <0>        -0.0401
      9 C7         -5.1078   -3.9988    0.7337 C.2       1 <0>         0.1376
     10 C8         -4.7343   -2.9139    1.4578 C.2       1 <0>        -0.3024
     11 S1         -6.1113   -2.6832    2.5473 S.3       1 <0>         0.1274
     12 C9         -7.0448   -3.9744    1.9981 C.2       1 <0>         0.3441
     13 N2         -6.2991   -4.5010    1.0514 N.2       1 <0>        -0.5996
     14 N3         -8.2945   -4.3823    2.4377 N.pl3     1 <0>        -0.7936
     15 C10        -3.4720   -2.1278    1.3393 C.3       1 <0>        -0.0272
     16 H2          1.0039    1.9031    0.0027 H         1 <0>         0.0777
     17 H3         -0.5459    1.8868   -0.8726 H         1 <0>         0.0672
     18 H4         -0.5289    1.8773    0.9072 H         1 <0>         0.0672
     19 H5          0.5123   -0.3556   -0.8948 H         1 <0>         0.0867
     20 H6          0.5293   -0.3651    0.8851 H         1 <0>         0.0866
     21 H7         -1.9435   -0.1821    0.9097 H         1 <0>         0.1324
     22 H8         -1.9605   -0.1726   -0.8702 H         1 <0>         0.1329
     23 H9         -0.9411   -2.3279   -0.8254 H         1 <0>         0.4305
     24 H10        -2.1418   -4.3233   -0.9507 H         1 <0>         0.0984
     25 H11        -2.3790   -4.4722    0.8047 H         1 <0>         0.0946
     26 H12        -4.5465   -4.2339   -1.3274 H         1 <0>         0.0963
     27 H13        -4.1968   -5.6482   -0.2999 H         1 <0>         0.1056
     28 H14        -8.7387   -3.8997    3.1523 H         1 <0>         0.4251
     29 H15        -8.7248   -5.1505    2.0307 H         1 <0>         0.4207
     30 H16        -2.8127   -2.3659    2.1740 H         1 <0>         0.0950
     31 H17        -3.6985   -1.0616    1.3414 H         1 <0>         0.0988
     32 H18        -0.9254   -2.3367    0.8222 H         1 <0>         0.4272
@<TRIPOS>BOND
     1    1    2 1
     2    1   16 1
     3    1   17 1
     4    1   18 1
     5    2    3 1
     6    2   19 1
     7    2   20 1
     8    3    4 1
     9    3   21 1
    10    3   22 1
    11    4    5 1
    12    4   23 1
    13    4   32 1
    14    5    6 1
    15    5   15 1
    16    5    7 1
    17    7    8 1
    18    7   24 1
    19    7   25 1
    20    8    9 1
    21    8   26 1
    22    8   27 1
    23    9   13 1
    24    9   10 2
    25   10   11 1
    26   10   15 1
    27   11   12 1
    28   12   13 2
    29   12   14 1
    30   14   28 1
    31   14   29 1
    32   15   30 1
    33   15   31 1
@<TRIPOS>MOLECULE
ZINC03870310
   44    45     0     0     0
SMALL
USER_CHARGES

@<TRIPOS>ATOM
      1 C1         -0.1561    1.5042   -0.0060 C.3       1 <0>        -0.1561
      2 C2         -0.1125   -0.0251   -0.0290 C.3       1 <0>        -0.1479
      3 C3          0.6430   -0.4951   -1.2737 C.3       1 <0>        -0.0224
      4 N1          0.8041   -1.9545   -1.2267 N.4       1 <0>        -0.3817
      5 C4         -0.5158   -2.5953   -1.2980 C.3       1 <0>        -0.0190
      6 C5         -1.1525   -2.3019   -2.6580 C.3       1 <0>        -0.1511
      7 C6         -2.5799   -2.8521   -2.6822 C.3       1 <0>        -0.1558
      8 C7          1.6236   -2.3935   -2.3641 C.3       1 <0>         0.0204
      9 H1          1.1119   -2.1588   -3.2975 H         1 <0>         0.1446
     10 C8          1.8651   -3.9048   -2.2736 C.3       1 <0>        -0.1386
     11 C9          2.5070   -4.3692   -3.5793 C.3       1 <0>        -0.0752
     12 C10         3.7030   -3.5165   -3.9141 C.ar      1 <0>        -0.0939
     13 C11         4.6148   -4.0165   -4.8358 C.ar      1 <0>        -0.0950
     14 C12         5.7275   -3.2846   -5.1906 C.ar      1 <0>        -0.1324
     15 C13         5.9392   -2.0362   -4.6230 C.ar      1 <0>         0.1179
     16 C14         5.0320   -1.5393   -3.7031 C.ar      1 <0>        -0.1404
     17 C15         3.9141   -2.2804   -3.3449 C.ar      1 <0>        -0.0729
     18 C16         2.9763   -1.6853   -2.3270 C.3       1 <0>        -0.0926
     19 O1          7.0318   -1.3053   -4.9681 O.3       1 <0>        -0.4960
     20 H2          0.8606    1.8964    0.0163 H         1 <0>         0.0668
     21 H3         -0.6658    1.8665   -0.8988 H         1 <0>         0.0668
     22 H4         -0.6943    1.8390    0.8807 H         1 <0>         0.0775
     23 H5          0.3972   -0.3874    0.8638 H         1 <0>         0.0849
     24 H6         -1.1292   -0.4173   -0.0514 H         1 <0>         0.0866
     25 H7          0.0802   -0.2202   -2.1657 H         1 <0>         0.1321
     26 H8          1.6245   -0.0220   -1.3032 H         1 <0>         0.1323
     27 H9         -0.4039   -3.6724   -1.1740 H         1 <0>         0.1324
     28 H10        -1.1536   -2.2028   -0.5060 H         1 <0>         0.1338
     29 H11        -1.1754   -1.2248   -2.8236 H         1 <0>         0.0850
     30 H12        -0.5662   -2.7780   -3.4439 H         1 <0>         0.0872
     31 H13        -2.5570   -3.9292   -2.5165 H         1 <0>         0.0675
     32 H14        -3.1662   -2.3760   -1.8963 H         1 <0>         0.0665
     33 H15        -3.0335   -2.6430   -3.6511 H         1 <0>         0.0768
     34 H16         2.5325   -4.1206   -1.4393 H         1 <0>         0.0930
     35 H17         0.9157   -4.4202   -2.1276 H         1 <0>         0.0937
     36 H18         2.8234   -5.4071   -3.4750 H         1 <0>         0.0979
     37 H19         1.7765   -4.2960   -4.3849 H         1 <0>         0.0882
     38 H20         4.4502   -4.9880   -5.2780 H         1 <0>         0.1335
     39 H21         6.4317   -3.6811   -5.9070 H         1 <0>         0.1372
     40 H22         5.1953   -0.5679   -3.2603 H         1 <0>         0.1318
     41 H23         2.8338   -0.6268   -2.5443 H         1 <0>         0.0988
     42 H24         3.4108   -1.7923   -1.3331 H         1 <0>         0.0969
     43 H25         6.8898   -0.7182   -5.7232 H         1 <0>         0.3983
     44 H26         1.2584   -2.2151   -0.3644 H         1 <0>         0.4226
@<TRIPOS>BOND
     1    1    2 1
     2    1   20 1
     3    1   21 1
     4    1   22 1
     5    2    3 1
     6    2   23 1
     7    2   24 1
     8    3    4 1
     9    3   25 1
    10    3   26 1
    11    4    5 1
    12    4    8 1
    13    4   44 1
    14    5    6 1
    15    5   27 1
    16    5   28 1
    17    6    7 1
    18    6   29 1
    19    6   30 1
    20    7   31 1
    21    7   32 1
    22    7   33 1
    23    8    9 1
    24    8   18 1
    25    8   10 1
    26   10   11 1
    27   10   34 1
    28   10   35 1
    29   11   12 1
    30   11   36 1
    31   11   37 1
    32   12   17 ar
    33   12   13 ar
    34   13   14 ar
    35   13   38 1
    36   14   15 ar
    37   14   39 1
    38   15   16 ar
    39   15   19 1
    40   16   17 ar
    41   16   40 1
    42   17   18 1
    43   18   41 1
    44   18   42 1
    45   19   43 1
@<TRIPOS>MOLECULE
ZINC04899446
   45    45     0     0     0
SMALL
USER_CHARGES
N-[1-(carbamoylmethylcarbamoyl)-3-methyl-butyl]pyrrolidine-2-carboxamide
@<TRIPOS>ATOM
      1 C1          3.5078   -2.1630    0.2523 C.3       1 <0>        -0.1560
      2 C2          3.4597   -1.0649    1.3166 C.3       1 <0>        -0.1129
      3 C3          3.2782   -1.6998    2.6967 C.3       1 <0>        -0.1463
      4 C4          4.7667   -0.2701    1.2887 C.3       1 <0>        -0.1208
      5 C5          4.8653    0.5034   -0.0277 C.3       1 <0>         0.1206
      6 H1          4.7229   -0.1818   -0.8633 H         1 <0>         0.1298
      7 C6          3.8005    1.5692   -0.0650 C.2       1 <0>         0.5158
      8 O1          4.1135    2.7405   -0.0323 O.2       1 <0>        -0.5329
      9 N1          2.5005    1.2208   -0.1347 N.am      1 <0>        -0.7089
     10 C7          1.4618    2.2528   -0.0845 C.3       1 <0>         0.0921
     11 C8          0.1047    1.6047   -0.1802 C.2       1 <0>         0.5126
     12 O2          0.0140    0.3994   -0.2805 O.2       1 <0>        -0.5378
     13 N2         -1.0080    2.3649   -0.1600 N.am      1 <0>        -0.8438
     14 N3          6.1862    1.1290   -0.1288 N.am      1 <0>        -0.6838
     15 C9          7.2111    0.4531   -0.6847 C.2       1 <0>         0.5099
     16 O3          7.0201   -0.6360   -1.1829 O.2       1 <0>        -0.5209
     17 C10         8.5946    1.0507   -0.6873 C.3       1 <0>         0.0051
     18 H2          8.7894    1.5385    0.2678 H         1 <0>         0.1662
     19 C11         8.7236    2.0709   -1.8379 C.3       1 <0>        -0.1323
     20 C12        10.1683    1.8365   -2.3524 C.3       1 <0>        -0.1410
     21 C13        10.3180    0.3047   -2.1777 C.3       1 <0>        -0.0073
     22 H3          2.5475   -2.6775    0.2175 H         1 <0>         0.0674
     23 H4          3.7168   -1.7175   -0.7202 H         1 <0>         0.0530
     24 H5          4.2933   -2.8764    0.5016 H         1 <0>         0.0612
     25 H6          2.6235   -0.3964    1.1114 H         1 <0>         0.0840
     26 H7          3.2440   -0.9175    3.4549 H         1 <0>         0.0568
     27 H8          2.3471   -2.2661    2.7166 H         1 <0>         0.0647
     28 H9          4.1144   -2.3683    2.9019 H         1 <0>         0.0575
     29 H10         5.6104   -0.9552    1.3716 H         1 <0>         0.0834
     30 H11         4.7840    0.4303    2.1238 H         1 <0>         0.0786
     31 H12         2.2525    0.2868   -0.2181 H         1 <0>         0.4195
     32 H13         1.5946    2.9427   -0.9178 H         1 <0>         0.1076
     33 H14         1.5379    2.7994    0.8555 H         1 <0>         0.1078
     34 H15        -1.8814    1.9480   -0.2256 H         1 <0>         0.4119
     35 H16        -0.9355    3.3288   -0.0798 H         1 <0>         0.4076
     36 H17         6.3231    2.0296    0.2044 H         1 <0>         0.4208
     37 H18         7.9964    1.8613   -2.6222 H         1 <0>         0.1045
     38 H19         8.6076    3.0887   -1.4653 H         1 <0>         0.1251
     39 H20        10.8930    2.3722   -1.7392 H         1 <0>         0.1046
     40 H21        10.2610    2.1208   -3.4006 H         1 <0>         0.1224
     41 H22        11.3700    0.0342   -2.0863 H         1 <0>         0.1435
     42 H23         9.8633   -0.2210   -3.0173 H         1 <0>         0.1361
     43 N4          9.5954    0.0003   -0.9286 N.4       1 <0>        -0.5063
     44 H24         9.1263   -0.9090   -1.0149 H         1 <0>         0.4409
     45 H25        10.2588   -0.0298   -0.1455 H         1 <0>         0.4400
@<TRIPOS>BOND
     1    1    2 1
     2    1   22 1
     3    1   23 1
     4    1   24 1
     5    2    3 1
     6    2    4 1
     7    2   25 1
     8    3   26 1
     9    3   27 1
    10    3   28 1
    11    4    5 1
    12    4   29 1
    13    4   30 1
    14    5    6 1
    15    5    7 1
    16    5   14 1
    17    7    8 2
    18    7    9 am
    19    9   10 1
    20    9   31 1
    21   10   11 1
    22   10   32 1
    23   10   33 1
    24   11   12 2
    25   11   13 am
    26   13   34 1
    27   13   35 1
    28   14   15 am
    29   14   36 1
    30   15   16 2
    31   15   17 1
    32   17   18 1
    33   17   19 1
    34   17   43 1
    35   19   20 1
    36   19   37 1
    37   19   38 1
    38   20   21 1
    39   20   39 1
    40   20   40 1
    41   21   41 1
    42   21   42 1
    43   21   43 1
    44   43   44 1
    45   43   45 1
@<TRIPOS>MOLECULE
ZINC02557962
   50    52     0     0     0
SMALL
USER_CHARGES

@<TRIPOS>ATOM
      1 C1         -0.0167    1.3781    0.0096 C.ar      1 <0>        -0.1174
      2 C2          1.1709    2.0855    0.0021 C.ar      1 <0>        -0.1161
      3 C3          2.3773    1.4107   -0.0130 C.ar      1 <0>        -0.1176
      4 C4          2.3960    0.0285   -0.0201 C.ar      1 <0>        -0.0952
      5 C5          1.2084   -0.6789   -0.0117 C.ar      1 <0>        -0.1175
      6 C6          0.0021   -0.0041    0.0020 C.ar      1 <0>        -0.1159
      7 C7          3.7112   -0.7071   -0.0376 C.3       1 <0>        -0.0781
      8 C8          4.1714   -0.9633    1.3989 C.3       1 <0>        -0.1117
      9 C9          5.5066   -1.7102    1.3812 C.3       1 <0>        -0.1496
     10 C10         5.9667   -1.9663    2.8177 C.3       1 <0>        -0.0103
     11 N1          7.2487   -2.6834    2.8007 N.4       1 <0>        -0.3835
     12 C11         8.2788   -1.8269    2.2009 C.3       1 <0>        -0.0110
     13 C12         9.5972   -2.5980    2.1066 C.3       1 <0>        -0.1394
     14 C13        10.0368   -3.0204    3.5114 C.3       1 <0>        -0.0537
     15 C14         8.9234   -3.8512    4.1558 C.3       1 <0>        -0.1399
     16 C15         7.6300   -3.0337    4.1741 C.3       1 <0>        -0.0059
     17 C16        11.2933   -3.8472    3.4189 C.ar      1 <0>        -0.0975
     18 C17        11.2936   -5.0257    2.6964 C.ar      1 <0>        -0.1167
     19 C18        12.4462   -5.7841    2.6115 C.ar      1 <0>        -0.1146
     20 C19        13.5986   -5.3638    3.2489 C.ar      1 <0>        -0.1098
     21 C20        13.5986   -4.1849    3.9707 C.ar      1 <0>        -0.1125
     22 C21        12.4471   -3.4243    4.0519 C.ar      1 <0>        -0.1100
     23 H1         -0.9591    1.9053    0.0259 H         1 <0>         0.1251
     24 H2          1.1563    3.1654    0.0076 H         1 <0>         0.1246
     25 H3          3.3051    1.9634   -0.0196 H         1 <0>         0.1201
     26 H4          1.2231   -1.7588   -0.0176 H         1 <0>         0.1202
     27 H5         -0.9258   -0.5567    0.0082 H         1 <0>         0.1247
     28 H6          3.5884   -1.6586   -0.5549 H         1 <0>         0.0755
     29 H7          4.4573   -0.1052   -0.5563 H         1 <0>         0.0752
     30 H8          4.2941   -0.0118    1.9163 H         1 <0>         0.0754
     31 H9          3.4252   -1.5652    1.9176 H         1 <0>         0.0757
     32 H10         5.3838   -2.6617    0.8639 H         1 <0>         0.0876
     33 H11         6.2527   -1.1082    0.8625 H         1 <0>         0.0878
     34 H12         6.0895   -1.0148    3.3350 H         1 <0>         0.1296
     35 H13         5.2206   -2.5682    3.3364 H         1 <0>         0.1311
     36 H14         7.9631   -1.5245    1.2024 H         1 <0>         0.1331
     37 H15         8.4200   -0.9411    2.8202 H         1 <0>         0.1294
     38 H16         9.4572   -3.4839    1.4872 H         1 <0>         0.0897
     39 H17        10.3612   -1.9597    1.6627 H         1 <0>         0.1137
     40 H18        10.2263   -2.1336    4.1161 H         1 <0>         0.0954
     41 H19         8.7694   -4.7632    3.5789 H         1 <0>         0.0898
     42 H20         9.2057   -4.1088    5.1766 H         1 <0>         0.1141
     43 H21         7.7850   -2.1222    4.7514 H         1 <0>         0.1292
     44 H22         6.8352   -3.6222    4.6325 H         1 <0>         0.1316
     45 H23        10.3933   -5.3540    2.1984 H         1 <0>         0.1175
     46 H24        12.4463   -6.7052    2.0476 H         1 <0>         0.1265
     47 H25        14.4989   -5.9567    3.1832 H         1 <0>         0.1278
     48 H26        14.4988   -3.8567    4.4689 H         1 <0>         0.1280
     49 H27        12.4481   -2.5013    4.6128 H         1 <0>         0.1236
     50 H28         7.1544   -3.5260    2.2536 H         1 <0>         0.4219
@<TRIPOS>BOND
     1    1    6 ar
     2    1    2 ar
     3    1   23 1
     4    2    3 ar
     5    2   24 1
     6    3    4 ar
     7    3   25 1
     8    4    5 ar
     9    4    7 1
    10    5    6 ar
    11    5   26 1
    12    6   27 1
    13    7    8 1
    14    7   28 1
    15    7   29 1
    16    8    9 1
    17    8   30 1
    18    8   31 1
    19    9   10 1
    20    9   32 1
    21    9   33 1
    22   10   11 1
    23   10   34 1
    24   10   35 1
    25   11   16 1
    26   11   12 1
    27   11   50 1
    28   12   13 1
    29   12   36 1
    30   12   37 1
    31   13   14 1
    32   13   38 1
    33   13   39 1
    34   14   15 1
    35   14   17 1
    36   14   40 1
    37   15   16 1
    38   15   41 1
    39   15   42 1
    40   16   43 1
    41   16   44 1
    42   17   22 ar
    43   17   18 ar
    44   18   19 ar
    45   18   45 1
    46   19   20 ar
    47   19   46 1
    48   20   21 ar
    49   20   47 1
    50   21   22 ar
    51   21   48 1
    52   22   49 1
@<TRIPOS>MOLECULE
ZINC13782163
   34    35     0     0     0
SMALL
USER_CHARGES
(3S)-3-(3,5-dimethylphenyl)piperidine
@<TRIPOS>ATOM
      1 C1         -1.6649    4.8538    2.8571 C.3       1 <0>        -0.1225
      2 C2         -1.5099    3.3753    2.6099 C.ar      1 <0>        -0.0705
      3 C3         -2.0163    2.4656    3.5193 C.ar      1 <0>        -0.1103
      4 C4         -1.8737    1.1094    3.2928 C.ar      1 <0>        -0.0690
      5 C5         -1.2256    0.6629    2.1563 C.ar      1 <0>        -0.1153
      6 C6         -0.7196    1.5726    1.2467 C.ar      1 <0>        -0.0931
      7 C7         -0.8572    2.9288    1.4761 C.ar      1 <0>        -0.1236
      8 C8         -0.0127    1.0858    0.0080 C.3       1 <0>        -0.0587
      9 H1          0.0021   -0.0041    0.0020 H         1 <0>         0.1004
     10 C9          1.4235    1.6166   -0.0029 C.3       1 <0>        -0.1317
     11 C10         2.1158    1.1668   -1.2924 C.3       1 <0>        -0.1471
     12 C11         1.3183    1.6723   -2.4968 C.3       1 <0>        -0.0045
     13 C12        -0.7485    1.5937   -1.2341 C.3       1 <0>        -0.0002
     14 C13        -2.4252    0.1178    4.2844 C.3       1 <0>        -0.1235
     15 H2         -0.8083    5.2192    3.4235 H         1 <0>         0.0765
     16 H3         -1.7201    5.3779    1.9030 H         1 <0>         0.0678
     17 H4         -2.5786    5.0336    3.4238 H         1 <0>         0.0724
     18 H5         -2.5229    2.8145    4.4070 H         1 <0>         0.1284
     19 H6         -1.1142   -0.3966    1.9793 H         1 <0>         0.1240
     20 H7         -0.4581    3.6396    0.7676 H         1 <0>         0.1196
     21 H8          1.4097    2.7056    0.0424 H         1 <0>         0.0835
     22 H9          1.9638    1.2231    0.8581 H         1 <0>         0.0954
     23 H10         3.1250    1.5773   -1.3259 H         1 <0>         0.1136
     24 H11         2.1641    0.0782   -1.3189 H         1 <0>         0.0889
     25 H12         1.2822    2.7615   -2.4772 H         1 <0>         0.1293
     26 H13         1.8007    1.3414   -3.4165 H         1 <0>         0.1326
     27 H14        -1.7671    1.2058   -1.2367 H         1 <0>         0.1336
     28 H15        -0.7749    2.6832   -1.2204 H         1 <0>         0.1309
     29 H16        -1.6640   -0.1123    5.0299 H         1 <0>         0.0770
     30 H17        -3.2990    0.5442    4.7770 H         1 <0>         0.0724
     31 H18        -2.7115   -0.7960    3.7636 H         1 <0>         0.0698
     32 N1         -0.0526    1.1291   -2.4492 N.4       1 <0>        -0.5156
     33 H19        -0.0099    0.1033   -2.4432 H         1 <0>         0.4323
     34 H20        -0.5706    1.4453   -3.2774 H         1 <0>         0.4370
@<TRIPOS>BOND
     1    1    2 1
     2    1   15 1
     3    1   16 1
     4    1   17 1
     5    2    7 ar
     6    2    3 ar
     7    3    4 ar
     8    3   18 1
     9    4    5 ar
    10    4   14 1
    11    5    6 ar
    12    5   19 1
    13    6    7 ar
    14    6    8 1
    15    7   20 1
    16    8    9 1
    17    8   13 1
    18    8   10 1
    19   10   11 1
    20   10   21 1
    21   10   22 1
    22   11   12 1
    23   11   23 1
    24   11   24 1
    25   12   25 1
    26   12   26 1
    27   12   32 1
    28   13   27 1
    29   13   28 1
    30   13   32 1
    31   14   29 1
    32   14   30 1
    33   14   31 1
    34   32   33 1
    35   32   34 1
@<TRIPOS>MOLECULE
ZINC13782164
   34    35     0     0     0
SMALL
USER_CHARGES
(3R)-3-(3,5-dimethylphenyl)piperidine
@<TRIPOS>ATOM
      1 C1          3.3839    1.6055   -4.0425 C.3       1 <0>        -0.1227
      2 C2          1.9603    1.1655   -3.8174 C.ar      1 <0>        -0.0704
      3 C3          1.3288    0.3643   -4.7503 C.ar      1 <0>        -0.1102
      4 C4          0.0227   -0.0389   -4.5441 C.ar      1 <0>        -0.0690
      5 C5         -0.6518    0.3590   -3.4050 C.ar      1 <0>        -0.1152
      6 C6         -0.0203    1.1602   -2.4721 C.ar      1 <0>        -0.0930
      7 C7          1.2840    1.5677   -2.6808 C.ar      1 <0>        -0.1237
      8 C8         -0.7558    1.5943   -1.2305 C.3       1 <0>        -0.0587
      9 H1         -1.7654    1.1836   -1.2432 H         1 <0>         0.1004
     10 C9         -0.0127    1.0858    0.0080 C.3       1 <0>        -0.1317
     11 C10        -0.7320    1.5809    1.2658 C.3       1 <0>        -0.1470
     12 C11        -0.8045    3.1094    1.2377 C.3       1 <0>        -0.0046
     13 C12        -0.8263    3.1224   -1.1854 C.3       1 <0>        -0.0003
     14 C13        -0.6659   -0.9118   -5.5613 C.3       1 <0>        -0.1236
     15 H2          3.3907    2.5490   -4.5881 H         1 <0>         0.0756
     16 H3          3.8795    1.7383   -3.0808 H         1 <0>         0.0686
     17 H4          3.9114    0.8473   -4.6213 H         1 <0>         0.0728
     18 H5          1.8556    0.0538   -5.6404 H         1 <0>         0.1284
     19 H6         -1.6723    0.0443   -3.2440 H         1 <0>         0.1240
     20 H7          1.7759    2.1972   -1.9541 H         1 <0>         0.1196
     21 H8          0.0021   -0.0041    0.0020 H         1 <0>         0.0953
     22 H9          1.0095    1.4640    0.0003 H         1 <0>         0.0835
     23 H10        -1.7412    1.1700    1.2935 H         1 <0>         0.0887
     24 H11        -0.1826    1.2579    2.1501 H         1 <0>         0.1137
     25 H12         0.2052    3.5198    1.2252 H         1 <0>         0.1293
     26 H13        -1.3298    3.4642    2.1244 H         1 <0>         0.1326
     27 H14         0.1835    3.5328   -1.1866 H         1 <0>         0.1309
     28 H15        -1.3675    3.4869   -2.0586 H         1 <0>         0.1335
     29 H16        -1.1678   -0.2846   -6.2981 H         1 <0>         0.0764
     30 H17         0.0722   -1.5393   -6.0608 H         1 <0>         0.0726
     31 H18        -1.4003   -1.5430   -5.0608 H         1 <0>         0.0702
     32 N1         -1.5353    3.5520    0.0349 N.4       1 <0>        -0.5155
     33 H19        -1.6080    4.5761    0.0411 H         1 <0>         0.4371
     34 H20        -2.4767    3.1420    0.0412 H         1 <0>         0.4323
@<TRIPOS>BOND
     1    1    2 1
     2    1   15 1
     3    1   16 1
     4    1   17 1
     5    2    7 ar
     6    2    3 ar
     7    3    4 ar
     8    3   18 1
     9    4    5 ar
    10    4   14 1
    11    5    6 ar
    12    5   19 1
    13    6    7 ar
    14    6    8 1
    15    7   20 1
    16    8    9 1
    17    8   13 1
    18    8   10 1
    19   10   11 1
    20   10   21 1
    21   10   22 1
    22   11   12 1
    23   11   23 1
    24   11   24 1
    25   12   25 1
    26   12   26 1
    27   12   32 1
    28   13   27 1
    29   13   28 1
    30   13   32 1
    31   14   29 1
    32   14   30 1
    33   14   31 1
    34   32   33 1
    35   32   34 1
@<TRIPOS>MOLECULE
ZINC13782159
   34    35     0     0     0
SMALL
USER_CHARGES
(3S)-3-(3,4-dimethylphenyl)piperidine
@<TRIPOS>ATOM
      1 C1         -0.0346    0.0716   -2.4994 C.3       1 <0>        -0.1286
      2 C2         -0.0057   -0.6887   -1.1986 C.ar      1 <0>        -0.0689
      3 C3          0.0179   -2.0711   -1.2063 C.ar      1 <0>        -0.1112
      4 C4          0.0387   -2.7685   -0.0132 C.ar      1 <0>        -0.1162
      5 C5          0.0412   -2.0837    1.1879 C.ar      1 <0>        -0.1058
      6 C6          0.0229   -0.7017    1.1955 C.ar      1 <0>        -0.1030
      7 C7          0.0021   -0.0041    0.0020 C.ar      1 <0>        -0.0773
      8 C8         -0.0184    1.5028    0.0103 C.3       1 <0>        -0.1261
      9 C9          0.0634   -2.8441    2.4888 C.3       1 <0>        -0.0577
     10 H1          0.0603   -2.1408    3.3215 H         1 <0>         0.0998
     11 C10         1.3256   -3.7084    2.5542 C.3       1 <0>        -0.1317
     12 C11         1.3106   -4.5225    3.8510 C.3       1 <0>        -0.1471
     13 C12         0.0402   -5.3746    3.8978 C.3       1 <0>        -0.0044
     14 C13        -1.1708   -3.7449    2.5751 C.3       1 <0>        -0.0003
     15 H2          0.9858    0.2690   -2.8277 H         1 <0>         0.0780
     16 H3         -0.5512   -0.5204   -3.2549 H         1 <0>         0.0710
     17 H4         -0.5594    1.0162   -2.3565 H         1 <0>         0.0759
     18 H5          0.0156   -2.6060   -2.1445 H         1 <0>         0.1281
     19 H6          0.0527   -3.8484   -0.0191 H         1 <0>         0.1197
     20 H7          0.0245   -0.1668    2.1337 H         1 <0>         0.1243
     21 H8          1.0042    1.8801    0.0026 H         1 <0>         0.0769
     22 H9         -0.5455    1.8639   -0.8728 H         1 <0>         0.0762
     23 H10        -0.5286    1.8543    0.9071 H         1 <0>         0.0687
     24 H11         1.3487   -4.3848    1.6997 H         1 <0>         0.0834
     25 H12         2.2072   -3.0677    2.5355 H         1 <0>         0.0951
     26 H13         2.1856   -5.1717    3.8833 H         1 <0>         0.1134
     27 H14         1.3268   -3.8461    4.7055 H         1 <0>         0.0887
     28 H15         0.0314   -6.0604    3.0506 H         1 <0>         0.1293
     29 H16         0.0194   -5.9447    4.8267 H         1 <0>         0.1324
     30 H17        -2.0712   -3.1313    2.5432 H         1 <0>         0.1333
     31 H18        -1.1739   -4.4382    1.7341 H         1 <0>         0.1308
     32 N1         -1.1473   -4.5010    3.8418 N.4       1 <0>        -0.5156
     33 H19        -1.1197   -3.8419    4.6286 H         1 <0>         0.4323
     34 H20        -1.9945   -5.0772    3.9076 H         1 <0>         0.4369
@<TRIPOS>BOND
     1    1    2 1
     2    1   15 1
     3    1   16 1
     4    1   17 1
     5    2    7 ar
     6    2    3 ar
     7    3    4 ar
     8    3   18 1
     9    4    5 ar
    10    4   19 1
    11    5    6 ar
    12    5    9 1
    13    6    7 ar
    14    6   20 1
    15    7    8 1
    16    8   21 1
    17    8   22 1
    18    8   23 1
    19    9   10 1
    20    9   14 1
    21    9   11 1
    22   11   12 1
    23   11   24 1
    24   11   25 1
    25   12   13 1
    26   12   26 1
    27   12   27 1
    28   13   28 1
    29   13   29 1
    30   13   32 1
    31   14   30 1
    32   14   31 1
    33   14   32 1
    34   32   33 1
    35   32   34 1
@<TRIPOS>MOLECULE
ZINC13782160
   34    35     0     0     0
SMALL
USER_CHARGES
(3R)-3-(3,4-dimethylphenyl)piperidine
@<TRIPOS>ATOM
      1 C1          2.0663   -0.0668   -5.9918 C.3       1 <0>        -0.1286
      2 C2          1.3306    0.3657   -4.7497 C.ar      1 <0>        -0.0689
      3 C3          1.9614    1.1673   -3.8164 C.ar      1 <0>        -0.1113
      4 C4          1.2864    1.5647   -2.6777 C.ar      1 <0>        -0.1162
      5 C5         -0.0198    1.1610   -2.4720 C.ar      1 <0>        -0.1058
      6 C6         -0.6487    0.3553   -3.4025 C.ar      1 <0>        -0.1030
      7 C7          0.0251   -0.0387   -4.5437 C.ar      1 <0>        -0.0774
      8 C8         -0.6627   -0.9120   -5.5611 C.3       1 <0>        -0.1261
      9 C9         -0.7558    1.5943   -1.2305 C.3       1 <0>        -0.0576
     10 H1         -1.7654    1.1836   -1.2432 H         1 <0>         0.0997
     11 C10        -0.0127    1.0858    0.0080 C.3       1 <0>        -0.1319
     12 C11        -0.7320    1.5809    1.2658 C.3       1 <0>        -0.1470
     13 C12        -0.8045    3.1094    1.2377 C.3       1 <0>        -0.0045
     14 C13        -0.8263    3.1224   -1.1854 C.3       1 <0>        -0.0004
     15 H2          2.5809   -1.0083   -5.8000 H         1 <0>         0.0780
     16 H3          1.3553   -0.2008   -6.8070 H         1 <0>         0.0759
     17 H4          2.7948    0.6960   -6.2667 H         1 <0>         0.0710
     18 H5          2.9816    1.4833   -3.9774 H         1 <0>         0.1281
     19 H6          1.7792    2.1909   -1.9487 H         1 <0>         0.1197
     20 H7         -1.6676    0.0363   -3.2397 H         1 <0>         0.1243
     21 H8         -0.4916   -1.9601   -5.3153 H         1 <0>         0.0768
     22 H9         -1.7331   -0.7067   -5.5519 H         1 <0>         0.0687
     23 H10        -0.2607   -0.7010   -6.5521 H         1 <0>         0.0762
     24 H11         0.0021   -0.0041    0.0020 H         1 <0>         0.0950
     25 H12         1.0095    1.4640    0.0003 H         1 <0>         0.0834
     26 H13        -1.7412    1.1700    1.2935 H         1 <0>         0.0886
     27 H14        -0.1826    1.2579    2.1501 H         1 <0>         0.1135
     28 H15         0.2052    3.5198    1.2252 H         1 <0>         0.1293
     29 H16        -1.3298    3.4642    2.1244 H         1 <0>         0.1325
     30 H17         0.1835    3.5328   -1.1866 H         1 <0>         0.1308
     31 H18        -1.3673    3.4869   -2.0587 H         1 <0>         0.1333
     32 N1         -1.5353    3.5520    0.0349 N.4       1 <0>        -0.5156
     33 H19        -1.6080    4.5761    0.0411 H         1 <0>         0.4370
     34 H20        -2.4767    3.1420    0.0412 H         1 <0>         0.4323
@<TRIPOS>BOND
     1    1    2 1
     2    1   15 1
     3    1   16 1
     4    1   17 1
     5    2    7 ar
     6    2    3 ar
     7    3    4 ar
     8    3   18 1
     9    4    5 ar
    10    4   19 1
    11    5    6 ar
    12    5    9 1
    13    6    7 ar
    14    6   20 1
    15    7    8 1
    16    8   21 1
    17    8   22 1
    18    8   23 1
    19    9   10 1
    20    9   14 1
    21    9   11 1
    22   11   12 1
    23   11   24 1
    24   11   25 1
    25   12   13 1
    26   12   26 1
    27   12   27 1
    28   13   28 1
    29   13   29 1
    30   13   32 1
    31   14   30 1
    32   14   31 1
    33   14   32 1
    34   32   33 1
    35   32   34 1
@<TRIPOS>MOLECULE
ZINC27561851
   36    39     0     0     0
SMALL
USER_CHARGES
dimethylBLAH
@<TRIPOS>ATOM
      1 C1         -7.5956   -0.0261   -3.2684 C.3       1 <0>         0.0765
      2 N1         -6.3539    0.3861   -2.6092 N.pl3     1 <0>        -0.4890
      3 C2         -5.1965    0.7702   -3.2699 C.2       1 <0>         0.0601
      4 C3         -4.2527    1.0846   -2.3965 C.2       1 <0>        -0.1763
      5 C4         -4.8576    0.8903   -1.0785 C.ar      1 <0>        -0.1330
      6 C5         -6.1723    0.4460   -1.2605 C.ar      1 <0>         0.1130
      7 C6         -6.9247    0.1904   -0.1154 C.ar      1 <0>        -0.1214
      8 C7         -6.2990    0.4030    1.1057 C.ar      1 <0>        -0.0987
      9 C8         -4.9866    0.8522    1.2462 C.ar      1 <0>        -0.1192
     10 C9         -4.2281    1.1124    0.1495 C.ar      1 <0>        -0.0315
     11 C10        -2.8153    1.6052    0.0895 C.3       1 <0>         0.1527
     12 H1         -2.8190    2.7041    0.1374 H         1 <0>         0.0779
     13 C11        -2.1189    1.1088   -1.1791 C.3       1 <0>         0.0699
     14 H2         -2.1205    0.0089   -1.1620 H         1 <0>         0.0496
     15 C12        -2.8143    1.5720   -2.4666 C.3       1 <0>        -0.0281
     16 N2         -0.7250    1.5735   -1.1824 N.3       1 <0>        -0.5387
     17 C13        -0.0127    1.0858    0.0080 C.3       1 <0>         0.0146
     18 C14        -0.7304    1.5801    1.2666 C.3       1 <0>         0.0607
     19 O1         -2.0940    1.1466    1.2350 O.3       1 <0>        -0.3774
     20 C15        -0.0361    1.1628   -2.4131 C.3       1 <0>         0.0179
     21 H3         -7.4636    0.0181   -4.3596 H         1 <0>         0.0882
     22 H4         -8.4108    0.6494   -2.9700 H         1 <0>         0.0735
     23 H5         -7.8447   -1.0553   -2.9705 H         1 <0>         0.0730
     24 H6         -5.0816    0.8071   -4.3432 H         1 <0>         0.1664
     25 H7         -7.9456   -0.1568   -0.1750 H         1 <0>         0.1277
     26 H8         -6.8653    0.2081    2.0044 H         1 <0>         0.1215
     27 H9         -4.5705    0.9943    2.2327 H         1 <0>         0.1260
     28 H10        -2.3231    1.1390   -3.3505 H         1 <0>         0.0799
     29 H11        -2.8022    2.6694   -2.5412 H         1 <0>         0.0853
     30 H12         0.0024   -0.0141    0.0013 H         1 <0>         0.0443
     31 H13         1.0192    1.4667   -0.0005 H         1 <0>         0.0905
     32 H14        -0.2338    1.1682    2.1575 H         1 <0>         0.1033
     33 H15        -0.6942    2.6789    1.3017 H         1 <0>         0.0628
     34 H16         1.0030    1.5229   -2.3893 H         1 <0>         0.0725
     35 H17        -0.5533    1.5926   -3.2836 H         1 <0>         0.0772
     36 H18        -0.0422    0.0654   -2.4879 H         1 <0>         0.0281
@<TRIPOS>BOND
     1    1    2 1
     2    1   21 1
     3    1   22 1
     4    1   23 1
     5    2    6 1
     6    2    3 1
     7    3    4 2
     8    3   24 1
     9    4   15 1
    10    4    5 1
    11    5   10 ar
    12    5    6 ar
    13    6    7 ar
    14    7    8 ar
    15    7   25 1
    16    8    9 ar
    17    8   26 1
    18    9   10 ar
    19    9   27 1
    20   10   11 1
    21   11   12 1
    22   11   19 1
    23   11   13 1
    24   13   14 1
    25   13   15 1
    26   13   16 1
    27   15   28 1
    28   15   29 1
    29   16   17 1
    30   16   20 1
    31   17   18 1
    32   17   30 1
    33   17   31 1
    34   18   19 1
    35   18   32 1
    36   18   33 1
    37   20   34 1
    38   20   35 1
    39   20   36 1
@<TRIPOS>MOLECULE
ZINC27561851
   37    40     0     0     0
SMALL
USER_CHARGES
dimethylBLAH
@<TRIPOS>ATOM
      1 C1         -7.5956   -0.0261   -3.2684 C.3       1 <0>         0.0681
      2 N1         -6.3539    0.3861   -2.6092 N.pl3     1 <0>        -0.4800
      3 C2         -5.1965    0.7702   -3.2699 C.2       1 <0>         0.0962
      4 C3         -4.2527    1.0846   -2.3965 C.2       1 <0>        -0.2078
      5 C4         -4.8576    0.8903   -1.0785 C.ar      1 <0>        -0.1287
      6 C5         -6.1723    0.4460   -1.2605 C.ar      1 <0>         0.1137
      7 C6         -6.9247    0.1904   -0.1154 C.ar      1 <0>        -0.0975
      8 C7         -6.2990    0.4030    1.1057 C.ar      1 <0>        -0.1010
      9 C8         -4.9866    0.8522    1.2462 C.ar      1 <0>        -0.0933
     10 C9         -4.2281    1.1124    0.1495 C.ar      1 <0>        -0.0615
     11 C10        -2.8153    1.6052    0.0895 C.3       1 <0>         0.1408
     12 H1         -2.8190    2.7041    0.1374 H         1 <0>         0.0942
     13 C11        -2.1189    1.1088   -1.1791 C.3       1 <0>         0.0136
     14 H2         -2.1205    0.0089   -1.1620 H         1 <0>         0.1422
     15 C12        -2.8143    1.5720   -2.4666 C.3       1 <0>        -0.0448
     16 N2         -0.7250    1.5735   -1.1824 N.4       1 <0>        -0.4007
     17 C13        -0.0127    1.0858    0.0080 C.3       1 <0>        -0.0414
     18 C14        -0.7304    1.5801    1.2666 C.3       1 <0>         0.0333
     19 O1         -2.0940    1.1466    1.2350 O.3       1 <0>        -0.3522
     20 C15        -0.0361    1.1628   -2.4131 C.3       1 <0>        -0.0510
     21 H3         -7.4636    0.0181   -4.3596 H         1 <0>         0.0944
     22 H4         -8.4108    0.6494   -2.9700 H         1 <0>         0.0814
     23 H5         -7.8447   -1.0553   -2.9705 H         1 <0>         0.0810
     24 H6         -5.0816    0.8071   -4.3432 H         1 <0>         0.1726
     25 H7         -7.9456   -0.1568   -0.1750 H         1 <0>         0.1366
     26 H8         -6.8653    0.2081    2.0044 H         1 <0>         0.1306
     27 H9         -4.5705    0.9943    2.2327 H         1 <0>         0.1312
     28 H10        -2.3231    1.1390   -3.3505 H         1 <0>         0.1025
     29 H11        -2.8022    2.6694   -2.5412 H         1 <0>         0.0970
     30 H12         0.0024   -0.0141    0.0013 H         1 <0>         0.1363
     31 H13         1.0192    1.4667   -0.0005 H         1 <0>         0.1459
     32 H14        -0.2338    1.1682    2.1575 H         1 <0>         0.1449
     33 H15        -0.6942    2.6789    1.3017 H         1 <0>         0.0832
     34 H16         1.0030    1.5229   -2.3893 H         1 <0>         0.1286
     35 H17        -0.5533    1.5926   -3.2836 H         1 <0>         0.1292
     36 H18        -0.0422    0.0654   -2.4879 H         1 <0>         0.1209
     37 H19        -0.7309    2.6731   -1.1526 H         1 <0>         0.4414
@<TRIPOS>BOND
     1    1    2 1
     2    1   21 1
     3    1   22 1
     4    1   23 1
     5    2    6 1
     6    2    3 1
     7    3    4 2
     8    3   24 1
     9    4   15 1
    10    4    5 1
    11    5   10 ar
    12    5    6 ar
    13    6    7 ar
    14    7    8 ar
    15    7   25 1
    16    8    9 ar
    17    8   26 1
    18    9   10 ar
    19    9   27 1
    20   10   11 1
    21   11   12 1
    22   11   19 1
    23   11   13 1
    24   13   14 1
    25   13   15 1
    26   13   16 1
    27   15   28 1
    28   15   29 1
    29   16   17 1
    30   16   20 1
    31   16   37 1
    32   17   18 1
    33   17   30 1
    34   17   31 1
    35   18   19 1
    36   18   32 1
    37   18   33 1
    38   20   34 1
    39   20   35 1
    40   20   36 1
@<TRIPOS>MOLECULE
ZINC19796155
   42    45     0     0     0
SMALL
USER_CHARGES

@<TRIPOS>ATOM
      1 C1         -0.0670    1.4396   -0.3852 C.3       1 <0>         0.0243
      2 N1         -0.0229   -0.0169   -0.1987 N.3       1 <0>        -0.5428
      3 C2          0.3808   -0.6943   -1.4380 C.3       1 <0>         0.0399
      4 C3          0.2401   -2.2095   -1.2572 C.3       1 <0>         0.1263
      5 N2          0.9912   -2.6085   -0.0572 N.pl3     1 <0>        -0.5953
      6 C4          0.7394   -1.8803    1.1955 C.3       1 <0>         0.1122
      7 C5          0.8604   -0.3781    0.9181 C.3       1 <0>         0.0393
      8 C6          1.9051   -3.6365   -0.1053 C.2       1 <0>         0.5098
      9 N3          2.1670   -4.1290   -1.2643 N.2       1 <0>        -0.6041
     10 C7          3.0130   -5.1503   -1.5719 C.ar      1 <0>         0.1655
     11 C8          2.6280   -6.0848   -2.5372 C.ar      1 <0>        -0.1058
     12 C9          3.4872   -7.1047   -2.8991 C.ar      1 <0>        -0.0230
     13 C10         4.7348   -7.2069   -2.3106 C.ar      1 <0>        -0.1209
     14 C11         5.1212   -6.2977   -1.3402 C.ar      1 <0>        -0.1017
     15 C12         4.2618   -5.2835   -0.9546 C.ar      1 <0>         0.1117
     16 N4          4.6314   -4.4326    0.1003 N.pl3     1 <0>        -0.7261
     17 C13         3.8434   -4.4184    1.2519 C.ar      1 <0>         0.2140
     18 C14         2.4943   -4.0640    1.1729 C.ar      1 <0>        -0.1453
     19 C15         1.7072   -4.1133    2.3240 C.ar      1 <0>        -0.0723
     20 C16         2.2727   -4.4729    3.5311 C.ar      1 <0>        -0.1389
     21 C17         3.6189   -4.7825    3.6069 C.ar      1 <0>        -0.0765
     22 C18         4.3974   -4.7629    2.4751 C.ar      1 <0>        -0.1433
     23 Cl1         2.9987   -8.2627   -4.0966 Cl        1 <0>        -0.0679
     24 H1          0.9359    1.8090   -0.5992 H         1 <0>         0.0255
     25 H2         -0.7279    1.6794   -1.2181 H         1 <0>         0.0711
     26 H3         -0.4416    1.9111    0.5233 H         1 <0>         0.0709
     27 H4         -0.2581   -0.3649   -2.2574 H         1 <0>         0.0878
     28 H5          1.4186   -0.4499   -1.6647 H         1 <0>         0.0378
     29 H6         -0.8117   -2.4673   -1.1334 H         1 <0>         0.0720
     30 H7          0.6453   -2.7216   -2.1299 H         1 <0>         0.1060
     31 H8         -0.2645   -2.1065    1.5551 H         1 <0>         0.0792
     32 H9          1.4746   -2.1748    1.9444 H         1 <0>         0.0984
     33 H10         1.8915   -0.1381    0.6586 H         1 <0>         0.0379
     34 H11         0.5693    0.1807    1.8075 H         1 <0>         0.0892
     35 H12         1.6558   -6.0097   -3.0016 H         1 <0>         0.1375
     36 H13         5.4083   -7.9971   -2.6081 H         1 <0>         0.1357
     37 H14         6.0961   -6.3802   -0.8829 H         1 <0>         0.1326
     38 H15         5.4169   -3.8679    0.0299 H         1 <0>         0.4097
     39 H16         0.6563   -3.8699    2.2709 H         1 <0>         0.1344
     40 H17         1.6613   -4.5124    4.4205 H         1 <0>         0.1323
     41 H18         4.0571   -5.0467    4.5580 H         1 <0>         0.1317
     42 H19         5.4473   -5.0071    2.5424 H         1 <0>         0.1313
@<TRIPOS>BOND
     1    1    2 1
     2    1   24 1
     3    1   25 1
     4    1   26 1
     5    2    7 1
     6    2    3 1
     7    3    4 1
     8    3   27 1
     9    3   28 1
    10    4    5 1
    11    4   29 1
    12    4   30 1
    13    5    6 1
    14    5    8 1
    15    6    7 1
    16    6   31 1
    17    6   32 1
    18    7   33 1
    19    7   34 1
    20    8   18 1
    21    8    9 2
    22    9   10 1
    23   10   15 ar
    24   10   11 ar
    25   11   12 ar
    26   11   35 1
    27   12   13 ar
    28   12   23 1
    29   13   14 ar
    30   13   36 1
    31   14   15 ar
    32   14   37 1
    33   15   16 1
    34   16   17 1
    35   16   38 1
    36   17   22 ar
    37   17   18 ar
    38   18   19 ar
    39   19   20 ar
    40   19   39 1
    41   20   21 ar
    42   20   40 1
    43   21   22 ar
    44   21   41 1
    45   22   42 1
@<TRIPOS>MOLECULE
ZINC19796155
   44    47     0     0     0
SMALL
USER_CHARGES

@<TRIPOS>ATOM
      1 C1         -1.5703   -0.0018   -1.9302 C.3       1 <0>        -0.0497
      2 N1         -0.7527   -0.7171   -0.9414 N.4       1 <0>        -0.3854
      3 C2         -1.0498   -2.1535   -1.0104 C.3       1 <0>        -0.0252
      4 C3         -0.2839   -2.8861    0.0962 C.3       1 <0>         0.1048
      5 N2          1.1441   -2.5548   -0.0269 N.pl3     1 <0>        -0.7052
      6 C4          1.5202   -1.1363   -0.1296 C.3       1 <0>         0.1049
      7 C5          0.6692   -0.4862   -1.2256 C.3       1 <0>        -0.0251
      8 C6          2.0831   -3.5253   -0.0448 C.2       1 <0>         0.6309
      9 C7          2.6112   -3.9094    1.2074 C.ar      1 <0>        -0.2438
     10 C8          2.0495   -3.1929    2.2728 C.ar      1 <0>         0.0055
     11 C9          2.4602   -3.4528    3.5483 C.ar      1 <0>        -0.1817
     12 C10         3.4265   -4.4148    3.8208 C.ar      1 <0>         0.0489
     13 C11         4.0101   -5.1439    2.8276 C.ar      1 <0>        -0.2233
     14 C12         3.6302   -4.9235    1.4921 C.ar      1 <0>         0.3343
     15 N3          4.2865   -5.7106    0.6358 N.pl3     1 <0>        -0.6131
     16 C13         4.1767   -5.7728   -0.7271 C.ar      1 <0>         0.1589
     17 C14         5.0408   -6.7320   -1.2562 C.ar      1 <0>        -0.1157
     18 C15         5.0795   -6.9478   -2.6222 C.ar      1 <0>        -0.0495
     19 C16         4.2642   -6.2154   -3.4643 C.ar      1 <0>        -0.0338
     20 C17         3.4016   -5.2585   -2.9468 C.ar      1 <0>        -0.0846
     21 C18         3.3520   -5.0321   -1.5848 C.ar      1 <0>         0.0769
     22 N4          2.4115   -4.0290   -1.2719 N.pl3     1 <0>        -0.5773
     23 Cl1         4.3195   -6.4929   -5.1771 Cl        1 <0>        -0.0159
     24 H1         -1.3348   -0.3678   -2.9295 H         1 <0>         0.1246
     25 H2         -2.6262   -0.1724   -1.7203 H         1 <0>         0.1321
     26 H3         -1.3566    1.0656   -1.8745 H         1 <0>         0.1321
     27 H4         -2.1201   -2.3101   -0.8766 H         1 <0>         0.1569
     28 H5         -0.7442   -2.5415   -1.9820 H         1 <0>         0.1344
     29 H6         -0.6518   -2.5648    1.0707 H         1 <0>         0.1155
     30 H7         -0.4211   -3.9618   -0.0138 H         1 <0>         0.1302
     31 H8          1.3345   -0.6383    0.8220 H         1 <0>         0.1155
     32 H9          2.5758   -1.0551   -0.3891 H         1 <0>         0.1302
     33 H10         0.9228   -0.9247   -2.1907 H         1 <0>         0.1344
     34 H11         0.8655    0.5856   -1.2504 H         1 <0>         0.1569
     35 H12         1.2975   -2.4405    2.0860 H         1 <0>         0.1502
     36 H13         2.0243   -2.8976    4.3657 H         1 <0>         0.1496
     37 H14         3.7223   -4.5886    4.8448 H         1 <0>         0.1558
     38 H15         4.7590   -5.8851    3.0650 H         1 <0>         0.1623
     39 H16         5.6790   -7.3052   -0.6001 H         1 <0>         0.1677
     40 H17         5.7487   -7.6901   -3.0316 H         1 <0>         0.1653
     41 H18         2.7675   -4.6896   -3.6107 H         1 <0>         0.1565
     42 H19         1.9393   -3.6432   -2.0263 H         1 <0>         0.4255
     43 H20         4.9278   -6.3202    1.0333 H         1 <0>         0.4372
     44 H21        -0.9695   -0.3754   -0.0171 H         1 <0>         0.4310
@<TRIPOS>BOND
     1    1    2 1
     2    1   24 1
     3    1   25 1
     4    1   26 1
     5    2    7 1
     6    2    3 1
     7    2   44 1
     8    3    4 1
     9    3   27 1
    10    3   28 1
    11    4    5 1
    12    4   29 1
    13    4   30 1
    14    5    6 1
    15    5    8 1
    16    6    7 1
    17    6   31 1
    18    6   32 1
    19    7   33 1
    20    7   34 1
    21    8   22 1
    22    8    9 2
    23    9   14 ar
    24    9   10 ar
    25   10   11 ar
    26   10   35 1
    27   11   12 ar
    28   11   36 1
    29   12   13 ar
    30   12   37 1
    31   13   14 ar
    32   13   38 1
    33   14   15 2
    34   15   16 1
    35   15   43 1
    36   16   21 ar
    37   16   17 ar
    38   17   18 ar
    39   17   39 1
    40   18   19 ar
    41   18   40 1
    42   19   20 ar
    43   19   23 1
    44   20   21 ar
    45   20   41 1
    46   21   22 1
    47   22   42 1
@<TRIPOS>MOLECULE
ZINC19796155
   43    46     0     0     0
SMALL
USER_CHARGES

@<TRIPOS>ATOM
      1 C1         -0.0523    1.4387   -0.3863 C.3       1 <0>        -0.0469
      2 N1         -0.0147   -0.0168   -0.1908 N.4       1 <0>        -0.3852
      3 C2          0.4863   -0.6601   -1.4120 C.3       1 <0>        -0.0213
      4 C3          0.4181   -2.1823   -1.2510 C.3       1 <0>         0.1002
      5 N2          1.1441   -2.5548   -0.0269 N.pl3     1 <0>        -0.6180
      6 C4          0.8178   -1.8405    1.2170 C.3       1 <0>         0.0860
      7 C5          0.8671   -0.3344    0.9395 C.3       1 <0>        -0.0221
      8 C6          2.1017   -3.5432   -0.0451 C.2       1 <0>         0.5019
      9 N3          2.4234   -4.0210   -1.1951 N.2       1 <0>        -0.5760
     10 C7          3.3217   -5.0050   -1.4750 C.ar      1 <0>         0.1390
     11 C8          3.0096   -5.9522   -2.4541 C.ar      1 <0>        -0.0932
     12 C9          3.9229   -6.9340   -2.7877 C.ar      1 <0>        -0.0267
     13 C10         5.1529   -6.9852   -2.1572 C.ar      1 <0>        -0.1032
     14 C11         5.4673   -6.0631   -1.1730 C.ar      1 <0>        -0.1031
     15 C12         4.5533   -5.0871   -0.8155 C.ar      1 <0>         0.1235
     16 N4          4.8505   -4.2243    0.2524 N.pl3     1 <0>        -0.7273
     17 C13         4.0239   -4.2464    1.3765 C.ar      1 <0>         0.2173
     18 C14         2.6645   -3.9489    1.2520 C.ar      1 <0>        -0.1537
     19 C15         1.8414   -4.0345    2.3754 C.ar      1 <0>        -0.0841
     20 C16         2.3802   -4.3733    3.6007 C.ar      1 <0>        -0.1334
     21 C17         3.7349   -4.6261    3.7220 C.ar      1 <0>        -0.0692
     22 C18         4.5500   -4.5705    2.6174 C.ar      1 <0>        -0.1369
     23 Cl1         3.5248   -8.1083   -4.0027 Cl        1 <0>        -0.0551
     24 H1          0.9534    1.8033   -0.5956 H         1 <0>         0.1211
     25 H2         -0.7066    1.6758   -1.2253 H         1 <0>         0.1256
     26 H3         -0.4316    1.9169    0.5167 H         1 <0>         0.1252
     27 H4         -0.1269   -0.3565   -2.2605 H         1 <0>         0.1425
     28 H5          1.5196   -0.3587   -1.5839 H         1 <0>         0.1315
     29 H6         -0.6226   -2.4957   -1.1694 H         1 <0>         0.0898
     30 H7          0.8819   -2.6629   -2.1125 H         1 <0>         0.1431
     31 H8         -0.1827   -2.1194    1.5479 H         1 <0>         0.0960
     32 H9          1.5457   -2.0950    1.9873 H         1 <0>         0.1385
     33 H10         1.8889   -0.0428    0.6965 H         1 <0>         0.1320
     34 H11         0.5345    0.2092    1.8238 H         1 <0>         0.1439
     35 H12         2.0515   -5.9169   -2.9512 H         1 <0>         0.1396
     36 H13         5.8689   -7.7454   -2.4325 H         1 <0>         0.1422
     37 H14         6.4287   -6.1057   -0.6827 H         1 <0>         0.1382
     38 H15         5.6134   -3.6267    0.2096 H         1 <0>         0.4129
     39 H16         0.7836   -3.8354    2.2868 H         1 <0>         0.1314
     40 H17         1.7411   -4.4409    4.4686 H         1 <0>         0.1357
     41 H18         4.1512   -4.8742    4.6872 H         1 <0>         0.1370
     42 H19         5.6063   -4.7705    2.7202 H         1 <0>         0.1363
     43 H20        -0.9456   -0.3526    0.0057 H         1 <0>         0.4250
@<TRIPOS>BOND
     1    1    2 1
     2    1   24 1
     3    1   25 1
     4    1   26 1
     5    2    7 1
     6    2    3 1
     7    2   43 1
     8    3    4 1
     9    3   27 1
    10    3   28 1
    11    4    5 1
    12    4   29 1
    13    4   30 1
    14    5    6 1
    15    5    8 1
    16    6    7 1
    17    6   31 1
    18    6   32 1
    19    7   33 1
    20    7   34 1
    21    8   18 1
    22    8    9 2
    23    9   10 1
    24   10   15 ar
    25   10   11 ar
    26   11   12 ar
    27   11   35 1
    28   12   13 ar
    29   12   23 1
    30   13   14 ar
    31   13   36 1
    32   14   15 ar
    33   14   37 1
    34   15   16 1
    35   16   17 1
    36   16   38 1
    37   17   22 ar
    38   17   18 ar
    39   18   19 ar
    40   19   20 ar
    41   19   39 1
    42   20   21 ar
    43   20   40 1
    44   21   22 ar
    45   21   41 1
    46   22   42 1
@<TRIPOS>MOLECULE
ZINC01604018
   37    40     0     0     0
SMALL
USER_CHARGES

@<TRIPOS>ATOM
      1 C1         -0.0184    1.5028    0.0103 C.3       1 <0>        -0.1219
      2 C2          0.0021   -0.0041    0.0020 C.2       1 <0>        -0.1543
      3 C3          0.0048   -0.6121   -1.1488 C.2       1 <0>        -0.1276
      4 C4          0.0379   -2.1087   -1.2504 C.3       1 <0>        -0.0136
      5 H1          1.0631   -2.4173   -1.4549 H         1 <0>         0.1131
      6 C5         -0.8360   -2.6115   -2.3539 C.ar      1 <0>        -0.0473
      7 C6         -1.2022   -1.9891   -3.5035 C.ar      1 <0>        -0.1141
      8 C7         -2.0256   -2.6353   -4.4246 C.ar      1 <0>        -0.0957
      9 C8         -2.5243   -3.9203   -4.2582 C.ar      1 <0>        -0.1055
     10 C9         -2.1688   -4.5866   -3.0867 C.ar      1 <0>         0.1161
     11 C10        -1.3459   -3.9038   -2.1840 C.ar      1 <0>        -0.1356
     12 C11        -1.1175   -4.7694   -1.0263 C.2       1 <0>        -0.2026
     13 C12        -1.7710   -5.8905   -1.2874 C.2       1 <0>         0.0943
     14 N1         -2.4045   -5.8019   -2.5180 N.pl3     1 <0>        -0.5893
     15 H2         -2.9402   -6.5053   -2.9170 H         1 <0>         0.4244
     16 C13        -0.2798   -4.2478    0.1172 C.3       1 <0>        -0.0450
     17 C14        -0.3926   -2.7187    0.0847 C.3       1 <0>         0.0376
     18 H3         -1.4313   -2.4417    0.2649 H         1 <0>         0.1344
     19 N2          0.4146   -2.1238    1.1551 N.4       1 <0>        -0.3844
     20 C15         0.0243   -0.7191    1.3205 C.3       1 <0>         0.0375
     21 C16         0.1825   -2.8520    2.4097 C.3       1 <0>        -0.0522
     22 H4          1.0042    1.8801    0.0026 H         1 <0>         0.0815
     23 H5         -0.5455    1.8639   -0.8728 H         1 <0>         0.0808
     24 H6         -0.5286    1.8543    0.9071 H         1 <0>         0.0742
     25 H7         -0.0177   -0.0240   -2.0544 H         1 <0>         0.1440
     26 H8         -0.8538   -0.9870   -3.7056 H         1 <0>         0.1258
     27 H9         -2.2928   -2.1021   -5.3250 H         1 <0>         0.1295
     28 H10        -3.1580   -4.3817   -5.0011 H         1 <0>         0.1372
     29 H11        -1.8064   -6.7507   -0.6353 H         1 <0>         0.1750
     30 H12        -0.6651   -4.6277    1.0634 H         1 <0>         0.1011
     31 H13         0.7580   -4.5547   -0.0124 H         1 <0>         0.0960
     32 H14         0.7338   -0.2244    1.9838 H         1 <0>         0.1419
     33 H15        -0.9694   -0.6779    1.7665 H         1 <0>         0.1375
     34 H16         0.4649   -3.8968    2.2809 H         1 <0>         0.1301
     35 H17         0.7832   -2.4084    3.2037 H         1 <0>         0.1279
     36 H18        -0.8729   -2.7909    2.6752 H         1 <0>         0.1241
     37 H19         1.3919   -2.1730    0.9090 H         1 <0>         0.4252
@<TRIPOS>BOND
     1    1    2 1
     2    1   22 1
     3    1   23 1
     4    1   24 1
     5    2   20 1
     6    2    3 2
     7    3    4 1
     8    3   25 1
     9    4    5 1
    10    4   17 1
    11    4    6 1
    12    6   11 ar
    13    6    7 ar
    14    7    8 ar
    15    7   26 1
    16    8    9 ar
    17    8   27 1
    18    9   10 ar
    19    9   28 1
    20   10   14 1
    21   10   11 ar
    22   11   12 1
    23   12   13 2
    24   12   16 1
    25   13   14 1
    26   13   29 1
    27   14   15 1
    28   16   17 1
    29   16   30 1
    30   16   31 1
    31   17   18 1
    32   17   19 1
    33   19   20 1
    34   19   21 1
    35   19   37 1
    36   20   32 1
    37   20   33 1
    38   21   34 1
    39   21   35 1
    40   21   36 1
@<TRIPOS>MOLECULE
ZINC25758996
   47    49     0     0     0
SMALL
USER_CHARGES

@<TRIPOS>ATOM
      1 C1         -0.0184    1.5028    0.0103 C.3       1 <0>        -0.1173
      2 C2          0.0021   -0.0041    0.0020 C.ar      1 <0>        -0.0924
      3 C3          0.0058   -0.6879   -1.2010 C.ar      1 <0>        -0.0947
      4 C4          0.0249   -2.0710   -1.2175 C.ar      1 <0>        -0.1230
      5 C5          0.0401   -2.7779   -0.0326 C.ar      1 <0>        -0.0925
      6 C6          0.0364   -2.0945    1.1841 C.ar      1 <0>        -0.1322
      7 C7          0.0228   -0.6986    1.1936 C.ar      1 <0>        -0.0603
      8 C8          0.0521   -2.8454    2.4576 C.2       1 <0>         0.5689
      9 O1          0.0490   -2.2475    3.5158 O.2       1 <0>        -0.5295
     10 N1          0.0700   -4.1930    2.4450 N.am      1 <0>        -0.7189
     11 C9          0.0855   -4.9372    3.7068 C.3       1 <0>         0.2803
     12 N2         -1.2877   -5.3082    4.0735 N.3       1 <0>        -0.5515
     13 C10        -1.7253   -6.5012    3.3364 C.3       1 <0>         0.0435
     14 C11        -3.2132   -6.7480    3.6077 C.3       1 <0>         0.1497
     15 N3         -3.4195   -6.8055    5.0629 N.pl3     1 <0>        -0.6835
     16 C12        -2.8858   -5.7091    5.8852 C.3       1 <0>         0.1490
     17 C13        -1.4109   -5.5032    5.5242 C.3       1 <0>         0.0499
     18 C14        -4.1012   -7.8679    5.6455 C.ar      1 <0>         0.2214
     19 C15        -3.4080   -8.9954    6.0662 C.ar      1 <0>        -0.1267
     20 C16        -4.0869  -10.0489    6.6443 C.ar      1 <0>        -0.0834
     21 C17        -5.4616   -9.9918    6.8092 C.ar      1 <0>        -0.1238
     22 C18        -6.1665   -8.8816    6.3980 C.ar      1 <0>        -0.0657
     23 C19        -5.4929   -7.8042    5.8167 C.ar      1 <0>        -0.0414
     24 C20        -6.2186   -6.6446    5.3930 C.1       1 <0>         0.2580
     25 N4         -6.7942   -5.7248    5.0568 N.1       1 <0>        -0.4144
     26 H1          1.0042    1.8801    0.0026 H         1 <0>         0.0737
     27 H2         -0.5455    1.8639   -0.8728 H         1 <0>         0.0694
     28 H3         -0.5286    1.8543    0.9071 H         1 <0>         0.0699
     29 H4         -0.0067   -0.1393   -2.1313 H         1 <0>         0.1277
     30 H5          0.0277   -2.5987   -2.1598 H         1 <0>         0.1296
     31 H6          0.0543   -3.8577   -0.0468 H         1 <0>         0.1237
     32 H7          0.0244   -0.1637    2.1318 H         1 <0>         0.1358
     33 H8          0.0725   -4.6702    1.6005 H         1 <0>         0.3981
     34 H9          0.6865   -5.8389    3.5894 H         1 <0>         0.0594
     35 H10         0.5151   -4.3138    4.4910 H         1 <0>         0.1002
     36 H11        -1.5712   -6.3459    2.2686 H         1 <0>         0.0774
     37 H12        -1.1474   -7.3646    3.6659 H         1 <0>         0.0404
     38 H13        -3.8023   -5.9334    3.1863 H         1 <0>         0.0579
     39 H14        -3.5156   -7.6934    3.1574 H         1 <0>         0.0751
     40 H15        -3.4434   -4.7946    5.6828 H         1 <0>         0.0595
     41 H16        -2.9718   -5.9676    6.9406 H         1 <0>         0.0769
     42 H17        -0.8373   -6.3805    5.8233 H         1 <0>         0.0409
     43 H18        -1.0287   -4.6241    6.0431 H         1 <0>         0.0862
     44 H19        -2.3367   -9.0481    5.9407 H         1 <0>         0.1304
     45 H20        -3.5433  -10.9235    6.9699 H         1 <0>         0.1311
     46 H21        -5.9832  -10.8220    7.2621 H         1 <0>         0.1342
     47 H22        -7.2379   -8.8423    6.5289 H         1 <0>         0.1331
@<TRIPOS>BOND
     1    1    2 1
     2    1   26 1
     3    1   27 1
     4    1   28 1
     5    2    7 ar
     6    2    3 ar
     7    3    4 ar
     8    3   29 1
     9    4    5 ar
    10    4   30 1
    11    5    6 ar
    12    5   31 1
    13    6    7 ar
    14    6    8 1
    15    7   32 1
    16    8    9 2
    17    8   10 am
    18   10   11 1
    19   10   33 1
    20   11   12 1
    21   11   34 1
    22   11   35 1
    23   12   17 1
    24   12   13 1
    25   13   14 1
    26   13   36 1
    27   13   37 1
    28   14   15 1
    29   14   38 1
    30   14   39 1
    31   15   16 1
    32   15   18 1
    33   16   17 1
    34   16   40 1
    35   16   41 1
    36   17   42 1
    37   17   43 1
    38   18   23 ar
    39   18   19 ar
    40   19   20 ar
    41   19   44 1
    42   20   21 ar
    43   20   45 1
    44   21   22 ar
    45   21   46 1
    46   22   23 ar
    47   22   47 1
    48   23   24 1
    49   24   25 3
@<TRIPOS>MOLECULE
ZINC01530571
   60    63     0     0     0
SMALL
USER_CHARGES

@<TRIPOS>ATOM
      1 C1         -0.0167    1.3818    0.0096 C.ar      1 <0>        -0.2679
      2 C2          1.1915    2.0609    0.0018 C.ar      1 <0>         0.1958
      3 N1          2.3197    1.3705   -0.0127 N.ar      1 <0>        -0.5666
      4 C3          2.3029    0.0457   -0.0197 C.ar      1 <0>         0.5562
      5 N2          1.1654   -0.6335   -0.0129 N.ar      1 <0>        -0.5663
      6 C4          0.0021   -0.0041    0.0020 C.ar      1 <0>         0.1960
      7 N3          3.5022   -0.6451   -0.0348 N.pl3     1 <0>        -0.6064
      8 C5          4.7874    0.0707   -0.0371 C.3       1 <0>         0.1080
      9 C6          5.6545   -0.4916   -1.1683 C.3       1 <0>        -0.0202
     10 N4          5.7718   -1.9473   -1.0165 N.4       1 <0>        -0.3840
     11 C7          4.4544   -2.5749   -1.1794 C.3       1 <0>        -0.0262
     12 C8          3.5278   -2.1159   -0.0430 C.3       1 <0>         0.1092
     13 C9          6.6913   -2.4716   -2.0352 C.3       1 <0>        -0.0085
     14 C10         6.9121   -3.9674   -1.8016 C.3       1 <0>        -0.1445
     15 C11         7.8697   -4.5135   -2.8626 C.3       1 <0>        -0.1292
     16 C12         8.0905   -6.0093   -2.6289 C.3       1 <0>         0.0911
     17 N5          9.0074   -6.5321   -3.6449 N.am      1 <0>        -0.5675
     18 C13         8.4943   -7.0005   -4.7921 C.2       1 <0>         0.5274
     19 O1          7.2949   -6.9658   -4.9647 O.2       1 <0>        -0.4991
     20 C14         9.3797   -7.5686   -5.8706 C.3       1 <0>        -0.1339
     21 C15        10.7544   -6.9065   -5.7927 C.3       1 <0>        -0.0666
     22 C16        11.7066   -7.5412   -6.8156 C.3       1 <0>        -0.1146
     23 C17        12.1410   -6.4083   -7.7700 C.3       1 <0>        -0.1265
     24 C18        11.9376   -5.1147   -6.9422 C.3       1 <0>        -0.1244
     25 C19        10.6393   -5.4143   -6.1507 C.3       1 <0>        -0.1220
     26 C20        11.3191   -7.0612   -4.3813 C.3       1 <0>        -0.1329
     27 C21        10.3239   -6.5167   -3.3897 C.2       1 <0>         0.5271
     28 O2         10.7205   -6.0600   -2.3391 O.2       1 <0>        -0.4986
     29 H1         -0.9525    1.9208    0.0259 H         1 <0>         0.1543
     30 H2          1.2116    3.1407    0.0070 H         1 <0>         0.1759
     31 H3         -0.9219   -0.5632    0.0082 H         1 <0>         0.1760
     32 H4          4.6141    1.1341   -0.2023 H         1 <0>         0.1406
     33 H5          5.2907   -0.0773    0.9184 H         1 <0>         0.0917
     34 H6          5.1926   -0.2623   -2.1286 H         1 <0>         0.1320
     35 H7          6.6459   -0.0406   -1.1249 H         1 <0>         0.1443
     36 H8          4.0288   -2.2827   -2.1393 H         1 <0>         0.1328
     37 H9          4.5614   -3.6591   -1.1441 H         1 <0>         0.1450
     38 H10         3.9061   -2.4809    0.9119 H         1 <0>         0.0920
     39 H11         2.5214   -2.4989   -0.2121 H         1 <0>         0.1403
     40 H12         6.2623   -2.3179   -3.0254 H         1 <0>         0.1301
     41 H13         7.6452   -1.9486   -1.9674 H         1 <0>         0.1337
     42 H14         7.3410   -4.1211   -0.8114 H         1 <0>         0.0926
     43 H15         5.9581   -4.4905   -1.8694 H         1 <0>         0.0914
     44 H16         7.4407   -4.3598   -3.8528 H         1 <0>         0.0793
     45 H17         8.8236   -3.9904   -2.7947 H         1 <0>         0.0796
     46 H18         8.5194   -6.1630   -1.6388 H         1 <0>         0.0991
     47 H19         7.1365   -6.5323   -2.6968 H         1 <0>         0.0987
     48 H20         9.4847   -8.6439   -5.7267 H         1 <0>         0.1160
     49 H21         8.9360   -7.3726   -6.8468 H         1 <0>         0.1186
     50 H22        12.5771   -7.9571   -6.3083 H         1 <0>         0.0770
     51 H23        11.1896   -8.3222   -7.3732 H         1 <0>         0.0769
     52 H24        13.1891   -6.5234   -8.0465 H         1 <0>         0.0725
     53 H25        11.5103   -6.3955   -8.6589 H         1 <0>         0.0700
     54 H26        12.7754   -4.9549   -6.2634 H         1 <0>         0.0706
     55 H27        11.8006   -4.2545   -7.5974 H         1 <0>         0.0710
     56 H28         9.7628   -5.2377   -6.7741 H         1 <0>         0.0740
     57 H29        10.5946   -4.8071   -5.2466 H         1 <0>         0.0611
     58 H30        11.5032   -8.1158   -4.1763 H         1 <0>         0.1163
     59 H31        12.2530   -6.5051   -4.2998 H         1 <0>         0.1183
     60 H32         6.1334   -2.1605   -0.0990 H         1 <0>         0.4234
@<TRIPOS>BOND
     1    1    6 ar
     2    1    2 ar
     3    1   29 1
     4    2    3 ar
     5    2   30 1
     6    3    4 ar
     7    4    5 ar
     8    4    7 1
     9    5    6 ar
    10    6   31 1
    11    7   12 1
    12    7    8 1
    13    8    9 1
    14    8   32 1
    15    8   33 1
    16    9   10 1
    17    9   34 1
    18    9   35 1
    19   10   11 1
    20   10   13 1
    21   10   60 1
    22   11   12 1
    23   11   36 1
    24   11   37 1
    25   12   38 1
    26   12   39 1
    27   13   14 1
    28   13   40 1
    29   13   41 1
    30   14   15 1
    31   14   42 1
    32   14   43 1
    33   15   16 1
    34   15   44 1
    35   15   45 1
    36   16   17 1
    37   16   46 1
    38   16   47 1
    39   17   27 am
    40   17   18 am
    41   18   19 2
    42   18   20 1
    43   20   21 1
    44   20   48 1
    45   20   49 1
    46   21   25 1
    47   21   22 1
    48   21   26 1
    49   22   23 1
    50   22   50 1
    51   22   51 1
    52   23   24 1
    53   23   52 1
    54   23   53 1
    55   24   25 1
    56   24   54 1
    57   24   55 1
    58   25   56 1
    59   25   57 1
    60   26   27 1
    61   26   58 1
    62   26   59 1
    63   27   28 2
@<TRIPOS>MOLECULE
ZINC01530571
   59    62     0     0     0
SMALL
USER_CHARGES

@<TRIPOS>ATOM
      1 C1         -0.0167    1.3818    0.0096 C.ar      1 <0>        -0.2969
      2 C2          1.1915    2.0609    0.0018 C.ar      1 <0>         0.1938
      3 N1          2.3197    1.3705   -0.0127 N.ar      1 <0>        -0.5732
      4 C3          2.3029    0.0457   -0.0197 C.ar      1 <0>         0.5658
      5 N2          1.1654   -0.6335   -0.0129 N.ar      1 <0>        -0.5730
      6 C4          0.0021   -0.0041    0.0020 C.ar      1 <0>         0.1940
      7 N3          3.5022   -0.6451   -0.0348 N.pl3     1 <0>        -0.5851
      8 C5          4.7864    0.0719   -0.0371 C.3       1 <0>         0.1324
      9 C6          5.6472   -0.4751   -1.1808 C.3       1 <0>         0.0415
     10 N4          5.7512   -1.9351   -1.0561 N.3       1 <0>        -0.5378
     11 C7          4.4367   -2.5765   -1.1923 C.3       1 <0>         0.0378
     12 C8          3.5262   -2.1156   -0.0430 C.3       1 <0>         0.1322
     13 C9          6.7063   -2.4799   -2.0301 C.3       1 <0>         0.0580
     14 C10         6.9763   -3.9518   -1.7112 C.3       1 <0>        -0.1114
     15 C11         7.9711   -4.5193   -2.7257 C.3       1 <0>        -0.1277
     16 C12         8.2411   -5.9911   -2.4068 C.3       1 <0>         0.0925
     17 N5          9.1937   -6.5345   -3.3782 N.am      1 <0>        -0.5656
     18 C13         8.7176   -7.0831   -4.5056 C.2       1 <0>         0.5235
     19 O1          7.5209   -7.1017   -4.6983 O.2       1 <0>        -0.4979
     20 C14         9.6414   -7.6762   -5.5375 C.3       1 <0>        -0.1320
     21 C15        10.9900   -6.9610   -5.4750 C.3       1 <0>        -0.0665
     22 C16        11.9819   -7.6151   -6.4466 C.3       1 <0>        -0.1128
     23 C17        12.3921   -6.5206   -7.4551 C.3       1 <0>        -0.1254
     24 C18        12.1282   -5.1922   -6.7029 C.3       1 <0>        -0.1237
     25 C19        10.8279   -5.4956   -5.9162 C.3       1 <0>        -0.1241
     26 C20        11.5352   -7.0178   -4.0487 C.3       1 <0>        -0.1310
     27 C21        10.5042   -6.4570   -3.1040 C.2       1 <0>         0.5230
     28 O2         10.8659   -5.9296   -2.0741 O.2       1 <0>        -0.4965
     29 H1         -0.9525    1.9208    0.0259 H         1 <0>         0.1437
     30 H2          1.2116    3.1407    0.0070 H         1 <0>         0.1666
     31 H3         -0.9219   -0.5632    0.0082 H         1 <0>         0.1667
     32 H4          4.6108    1.1370   -0.1881 H         1 <0>         0.1016
     33 H5          5.2961   -0.0869    0.9132 H         1 <0>         0.0738
     34 H6          5.1859   -0.2235   -2.1357 H         1 <0>         0.0373
     35 H7          6.6426   -0.0339   -1.1299 H         1 <0>         0.0892
     36 H8          3.9922   -2.2957   -2.1471 H         1 <0>         0.0376
     37 H9          4.5541   -3.6593   -1.1498 H         1 <0>         0.0919
     38 H10         3.9172   -2.4807    0.9068 H         1 <0>         0.0739
     39 H11         2.5171   -2.4975   -0.1978 H         1 <0>         0.1013
     40 H12         6.2894   -2.3962   -3.0337 H         1 <0>         0.0338
     41 H13         7.6396   -1.9194   -1.9765 H         1 <0>         0.0768
     42 H14         7.3933   -4.0355   -0.7076 H         1 <0>         0.0768
     43 H15         6.0430   -4.5123   -1.7648 H         1 <0>         0.0665
     44 H16         7.5542   -4.4355   -3.7293 H         1 <0>         0.0656
     45 H17         8.9044   -3.9587   -2.6720 H         1 <0>         0.0680
     46 H18         8.6581   -6.0748   -1.4031 H         1 <0>         0.0965
     47 H19         7.3078   -6.5516   -2.4604 H         1 <0>         0.0949
     48 H20         9.7822   -8.7375   -5.3331 H         1 <0>         0.1123
     49 H21         9.2080   -7.5500   -6.5297 H         1 <0>         0.1155
     50 H22        12.8577   -7.9706   -5.9039 H         1 <0>         0.0751
     51 H23        11.5029   -8.4436   -6.9683 H         1 <0>         0.0748
     52 H24        13.4482   -6.6121   -7.7087 H         1 <0>         0.0699
     53 H25        11.7768   -6.5793   -8.3530 H         1 <0>         0.0686
     54 H26        12.9479   -4.9651   -6.0212 H         1 <0>         0.0700
     55 H27        11.9720   -4.3745   -7.4065 H         1 <0>         0.0701
     56 H28         9.9566   -5.3855   -6.5618 H         1 <0>         0.0744
     57 H29        10.7458   -4.8422   -5.0477 H         1 <0>         0.0652
     58 H30        11.7534   -8.0522   -3.7832 H         1 <0>         0.1126
     59 H31        12.4471   -6.4242   -3.9835 H         1 <0>         0.1155
@<TRIPOS>BOND
     1    1    6 ar
     2    1    2 ar
     3    1   29 1
     4    2    3 ar
     5    2   30 1
     6    3    4 ar
     7    4    5 ar
     8    4    7 1
     9    5    6 ar
    10    6   31 1
    11    7   12 1
    12    7    8 1
    13    8    9 1
    14    8   32 1
    15    8   33 1
    16    9   10 1
    17    9   34 1
    18    9   35 1
    19   10   11 1
    20   10   13 1
    21   11   12 1
    22   11   36 1
    23   11   37 1
    24   12   38 1
    25   12   39 1
    26   13   14 1
    27   13   40 1
    28   13   41 1
    29   14   15 1
    30   14   42 1
    31   14   43 1
    32   15   16 1
    33   15   44 1
    34   15   45 1
    35   16   17 1
    36   16   46 1
    37   16   47 1
    38   17   27 am
    39   17   18 am
    40   18   19 2
    41   18   20 1
    42   20   21 1
    43   20   48 1
    44   20   49 1
    45   21   25 1
    46   21   22 1
    47   21   26 1
    48   22   23 1
    49   22   50 1
    50   22   51 1
    51   23   24 1
    52   23   52 1
    53   23   53 1
    54   24   25 1
    55   24   54 1
    56   24   55 1
    57   25   56 1
    58   25   57 1
    59   26   27 1
    60   26   58 1
    61   26   59 1
    62   27   28 2
@<TRIPOS>MOLECULE
ZINC00009073
   38    41     0     0     0
SMALL
USER_CHARGES

@<TRIPOS>ATOM
      1 C1         -0.0178    1.4648    0.0101 C.3       1 <0>        -0.0530
      2 N1          0.0021   -0.0041    0.0020 N.4       1 <0>        -0.3818
      3 C2         -1.3707   -0.5099    0.0093 C.3       1 <0>        -0.0045
      4 C3         -1.3945   -2.0165   -0.1908 C.3       1 <0>        -0.1054
      5 C4         -0.2778   -2.7021    0.5444 C.ar      1 <0>        -0.0840
      6 C5         -0.2629   -4.0910    0.5709 C.ar      1 <0>        -0.1053
      7 C6          0.7244   -4.7743    1.2518 C.ar      1 <0>        -0.0885
      8 C7          1.7146   -4.0754    1.9128 C.ar      1 <0>        -0.0992
      9 C8          1.7194   -2.6860    1.8733 C.ar      1 <0>        -0.0068
     10 C9          0.7130   -1.9965    1.1919 C.ar      1 <0>        -0.1248
     11 C10         0.7133   -0.4906    1.1934 C.3       1 <0>         0.0895
     12 H1          0.2077   -0.1297    2.0890 H         1 <0>         0.1464
     13 C11         2.1391    0.0560    1.1696 C.3       1 <0>        -0.0929
     14 C12         2.9742   -0.5785    2.2479 C.ar      1 <0>        -0.0798
     15 C13         2.7759   -1.9188    2.5745 C.ar      1 <0>        -0.0653
     16 C14         3.5639   -2.5230    3.5530 C.ar      1 <0>         0.1042
     17 C15         4.5367   -1.7751    4.2088 C.ar      1 <0>         0.0998
     18 C16         4.7147   -0.4388    3.8881 C.ar      1 <0>        -0.1167
     19 C17         3.9357    0.1560    2.9107 C.ar      1 <0>        -0.0938
     20 O1          5.3124   -2.3551    5.1634 O.3       1 <0>        -0.4826
     21 O2          3.3828   -3.8338    3.8646 O.3       1 <0>        -0.4754
     22 H2          1.0047    1.8421    0.0024 H         1 <0>         0.1274
     23 H3         -0.5450    1.8259   -0.8730 H         1 <0>         0.1292
     24 H4         -0.5280    1.8163    0.9069 H         1 <0>         0.1253
     25 H5         -1.8367   -0.2679    0.9645 H         1 <0>         0.1303
     26 H6         -1.9326   -0.0329   -0.7937 H         1 <0>         0.1395
     27 H7         -2.3469   -2.4064    0.1685 H         1 <0>         0.1232
     28 H8         -1.3037   -2.2338   -1.2551 H         1 <0>         0.1049
     29 H9         -1.0333   -4.6427    0.0527 H         1 <0>         0.1363
     30 H10         0.7220   -5.8542    1.2677 H         1 <0>         0.1404
     31 H11         2.4813   -4.6056    2.4582 H         1 <0>         0.1525
     32 H12         2.5874   -0.1542    0.1986 H         1 <0>         0.1009
     33 H13         2.1121    1.1345    1.3252 H         1 <0>         0.1081
     34 H14         5.4652    0.1418    4.4038 H         1 <0>         0.1453
     35 H15         4.0810    1.1979    2.6663 H         1 <0>         0.1401
     36 H16         6.1269   -2.7493    4.8224 H         1 <0>         0.3972
     37 H17         3.9208   -4.4411    3.3384 H         1 <0>         0.3936
     38 H18         0.4752   -0.3291   -0.8278 H         1 <0>         0.4258
@<TRIPOS>BOND
     1    1    2 1
     2    1   22 1
     3    1   23 1
     4    1   24 1
     5    2   11 1
     6    2    3 1
     7    2   38 1
     8    3    4 1
     9    3   25 1
    10    3   26 1
    11    4    5 1
    12    4   27 1
    13    4   28 1
    14    5   10 ar
    15    5    6 ar
    16    6    7 ar
    17    6   29 1
    18    7    8 ar
    19    7   30 1
    20    8    9 ar
    21    8   31 1
    22    9   15 1
    23    9   10 ar
    24   10   11 1
    25   11   12 1
    26   11   13 1
    27   13   14 1
    28   13   32 1
    29   13   33 1
    30   14   19 ar
    31   14   15 ar
    32   15   16 ar
    33   16   17 ar
    34   16   21 1
    35   17   18 ar
    36   17   20 1
    37   18   19 ar
    38   18   34 1
    39   19   35 1
    40   20   36 1
    41   21   37 1
@<TRIPOS>MOLECULE
ZINC00009073
   37    40     0     0     0
SMALL
USER_CHARGES

@<TRIPOS>ATOM
      1 C1         -0.0178    1.4648    0.0101 C.3       1 <0>         0.0190
      2 N1          0.0021   -0.0041    0.0020 N.3       1 <0>        -0.5347
      3 C2         -1.3554   -0.5468   -0.0771 C.3       1 <0>         0.0548
      4 C3         -1.3255   -2.0437   -0.3363 C.3       1 <0>        -0.0776
      5 C4         -0.2136   -2.7298    0.4050 C.ar      1 <0>        -0.0660
      6 C5         -0.1676   -4.1185    0.3764 C.ar      1 <0>        -0.1168
      7 C6          0.8160   -4.8083    1.0555 C.ar      1 <0>        -0.1183
      8 C7          1.7732   -4.1167    1.7707 C.ar      1 <0>        -0.1100
      9 C8          1.7473   -2.7271    1.7884 C.ar      1 <0>        -0.0402
     10 C9          0.7422   -2.0318    1.1101 C.ar      1 <0>        -0.0602
     11 C10         0.7070   -0.5281    1.1816 C.3       1 <0>         0.1292
     12 H1          0.1788   -0.2212    2.0843 H         1 <0>         0.0565
     13 C11         2.1199    0.0508    1.2084 C.3       1 <0>        -0.0723
     14 C12         2.9454   -0.6100    2.2786 C.ar      1 <0>        -0.0656
     15 C13         2.7694   -1.9666    2.5450 C.ar      1 <0>        -0.0523
     16 C14         3.5484   -2.5938    3.5165 C.ar      1 <0>         0.0945
     17 C15         4.4897   -1.8532    4.2246 C.ar      1 <0>         0.0806
     18 C16         4.6455   -0.5013    3.9627 C.ar      1 <0>        -0.1259
     19 C17         3.8757    0.1166    2.9923 C.ar      1 <0>        -0.1047
     20 O1          5.2558   -2.4554    5.1733 O.3       1 <0>        -0.4864
     21 O2          3.3897   -3.9199    3.7698 O.3       1 <0>        -0.4768
     22 H2          1.0047    1.8421    0.0024 H         1 <0>         0.0749
     23 H3         -0.5450    1.8259   -0.8730 H         1 <0>         0.0732
     24 H4         -0.5280    1.8163    0.9069 H         1 <0>         0.0286
     25 H5         -1.8730   -0.3560    0.8630 H         1 <0>         0.0357
     26 H6         -1.8920   -0.0533   -0.8874 H         1 <0>         0.0839
     27 H7         -2.2767   -2.4752   -0.0246 H         1 <0>         0.0807
     28 H8         -1.1956   -2.2145   -1.4050 H         1 <0>         0.0833
     29 H9         -0.9115   -4.6650   -0.1844 H         1 <0>         0.1227
     30 H10         0.8367   -5.8878    1.0279 H         1 <0>         0.1259
     31 H11         2.5378   -4.6525    2.3137 H         1 <0>         0.1407
     32 H12         2.5925   -0.1106    0.2395 H         1 <0>         0.0936
     33 H13         2.0656    1.1213    1.4066 H         1 <0>         0.0843
     34 H14         5.3712    0.0734    4.5190 H         1 <0>         0.1363
     35 H15         4.0042    1.1703    2.7931 H         1 <0>         0.1343
     36 H16         6.0862   -2.8185    4.8360 H         1 <0>         0.3882
     37 H17         3.9530   -4.4932    3.2322 H         1 <0>         0.3868
@<TRIPOS>BOND
     1    1    2 1
     2    1   22 1
     3    1   23 1
     4    1   24 1
     5    2   11 1
     6    2    3 1
     7    3    4 1
     8    3   25 1
     9    3   26 1
    10    4    5 1
    11    4   27 1
    12    4   28 1
    13    5   10 ar
    14    5    6 ar
    15    6    7 ar
    16    6   29 1
    17    7    8 ar
    18    7   30 1
    19    8    9 ar
    20    8   31 1
    21    9   15 1
    22    9   10 ar
    23   10   11 1
    24   11   12 1
    25   11   13 1
    26   13   14 1
    27   13   32 1
    28   13   33 1
    29   14   19 ar
    30   14   15 ar
    31   15   16 ar
    32   16   17 ar
    33   16   21 1
    34   17   18 ar
    35   17   20 1
    36   18   19 ar
    37   18   34 1
    38   19   35 1
    39   20   36 1
    40   21   37 1
@<TRIPOS>MOLECULE
ZINC28091703
   35    37     0     0     0
SMALL
USER_CHARGES
8-(3-methoxyphenyl)-1,2,3,4-tetrahydroisoquinoline
@<TRIPOS>ATOM
      1 C1         -3.9627    5.9050    0.1526 C.3       1 <0>         0.0234
      2 O1         -2.8800    5.0715    0.5710 O.3       1 <0>        -0.3176
      3 C2         -1.7899    5.0229   -0.2392 C.ar      1 <0>         0.1291
      4 C3         -1.7640    5.7637   -1.4130 C.ar      1 <0>        -0.2067
      5 C4         -0.6573    5.7177   -2.2396 C.ar      1 <0>        -0.0766
      6 C5          0.4307    4.9384   -1.9001 C.ar      1 <0>        -0.1415
      7 C6          0.4105    4.1877   -0.7263 C.ar      1 <0>        -0.0053
      8 C7         -0.7047    4.2348    0.1066 C.ar      1 <0>        -0.1411
      9 C8          1.5765    3.3453   -0.3617 C.ar      1 <0>        -0.0481
     10 C9          2.8405    3.9176   -0.2551 C.ar      1 <0>        -0.1053
     11 C10         3.9218    3.1302    0.0844 C.ar      1 <0>        -0.1176
     12 C11         3.7463    1.7794    0.3153 C.ar      1 <0>        -0.1164
     13 C12         2.4891    1.2021    0.2096 C.ar      1 <0>        -0.0691
     14 C13         1.4031    1.9785   -0.1261 C.ar      1 <0>        -0.0631
     15 C14         0.0181    1.3998   -0.2487 C.3       1 <0>         0.0866
     16 N1          0.0809   -0.0595   -0.3782 N.3       1 <0>        -0.6699
     17 C15         0.8872   -0.6326    0.7115 C.3       1 <0>         0.0419
     18 C16         2.3541   -0.2767    0.4684 C.3       1 <0>        -0.0787
     19 H1         -4.7737    5.8522    0.8939 H         1 <0>         0.1029
     20 H2         -4.3350    5.5601   -0.8234 H         1 <0>         0.0574
     21 H3         -3.6128    6.9442    0.0652 H         1 <0>         0.0572
     22 H4         -2.6110    6.3780   -1.6808 H         1 <0>         0.1291
     23 H5         -0.6419    6.2961   -3.1516 H         1 <0>         0.1283
     24 H6          1.2958    4.9080   -2.5458 H         1 <0>         0.1264
     25 H7         -0.7235    3.6580    1.0195 H         1 <0>         0.1296
     26 H8          2.9747    4.9736   -0.4369 H         1 <0>         0.1254
     27 H9          4.9047    3.5696    0.1693 H         1 <0>         0.1259
     28 H10         4.5956    1.1671    0.5802 H         1 <0>         0.1233
     29 H11        -0.5662    1.6541    0.6479 H         1 <0>         0.0481
     30 H12        -0.4760    1.8166   -1.1387 H         1 <0>         0.0906
     31 H13        -0.9361   -0.4759   -0.3307 H         1 <0>         0.3477
     32 H14         0.5539   -0.2149    1.6730 H         1 <0>         0.0363
     33 H15         0.7631   -1.7255    0.7238 H         1 <0>         0.0828
     34 H16         2.7229   -0.8367   -0.4036 H         1 <0>         0.0856
     35 H17         2.9446   -0.5491    1.3556 H         1 <0>         0.0794
@<TRIPOS>BOND
     1    1    2 1
     2    1   19 1
     3    1   20 1
     4    1   21 1
     5    2    3 1
     6    3    8 ar
     7    3    4 ar
     8    4    5 ar
     9    4   22 1
    10    5    6 ar
    11    5   23 1
    12    6    7 ar
    13    6   24 1
    14    7    8 ar
    15    7    9 1
    16    8   25 1
    17    9   14 ar
    18    9   10 ar
    19   10   11 ar
    20   10   26 1
    21   11   12 ar
    22   11   27 1
    23   12   13 ar
    24   12   28 1
    25   13   18 1
    26   13   14 ar
    27   14   15 1
    28   15   16 1
    29   15   29 1
    30   15   30 1
    31   16   17 1
    32   16   31 1
    33   17   18 1
    34   17   32 1
    35   17   33 1
    36   18   34 1
    37   18   35 1
@<TRIPOS>MOLECULE
ZINC28091703
   36    38     0     0     0
SMALL
USER_CHARGES
8-(3-methoxyphenyl)-1,2,3,4-tetrahydroisoquinoline
@<TRIPOS>ATOM
      1 C1         -3.9627    5.9050    0.1526 C.3       1 <0>         0.0202
      2 O1         -2.8800    5.0715    0.5710 O.3       1 <0>        -0.3167
      3 C2         -1.7899    5.0229   -0.2392 C.ar      1 <0>         0.1350
      4 C3         -1.7640    5.7637   -1.4130 C.ar      1 <0>        -0.1964
      5 C4         -0.6573    5.7177   -2.2396 C.ar      1 <0>        -0.0694
      6 C5          0.4307    4.9384   -1.9001 C.ar      1 <0>        -0.1374
      7 C6          0.4105    4.1877   -0.7263 C.ar      1 <0>        -0.0330
      8 C7         -0.7047    4.2348    0.1066 C.ar      1 <0>        -0.1520
      9 C8          1.5765    3.3453   -0.3617 C.ar      1 <0>        -0.0144
     10 C9          2.8405    3.9176   -0.2551 C.ar      1 <0>        -0.0923
     11 C10         3.9218    3.1302    0.0844 C.ar      1 <0>        -0.0902
     12 C11         3.7463    1.7794    0.3153 C.ar      1 <0>        -0.1043
     13 C12         2.4891    1.2021    0.2096 C.ar      1 <0>        -0.0878
     14 C13         1.4031    1.9785   -0.1261 C.ar      1 <0>        -0.1214
     15 C14         0.0181    1.3998   -0.2487 C.3       1 <0>         0.0485
     16 N1          0.0809   -0.0595   -0.3782 N.4       1 <0>        -0.5358
     17 C15         0.8872   -0.6326    0.7115 C.3       1 <0>        -0.0007
     18 C16         2.3541   -0.2767    0.4684 C.3       1 <0>        -0.1076
     19 H1         -4.7737    5.8522    0.8939 H         1 <0>         0.1086
     20 H2         -4.3350    5.5601   -0.8234 H         1 <0>         0.0604
     21 H3         -3.6128    6.9442    0.0652 H         1 <0>         0.0620
     22 H4         -2.6110    6.3780   -1.6808 H         1 <0>         0.1353
     23 H5         -0.6419    6.2961   -3.1516 H         1 <0>         0.1345
     24 H6          1.2958    4.9080   -2.5458 H         1 <0>         0.1297
     25 H7         -0.7235    3.6580    1.0195 H         1 <0>         0.1295
     26 H8          2.9747    4.9736   -0.4369 H         1 <0>         0.1381
     27 H9          4.9047    3.5696    0.1693 H         1 <0>         0.1391
     28 H10         4.5956    1.1671    0.5802 H         1 <0>         0.1354
     29 H11        -0.5662    1.6541    0.6479 H         1 <0>         0.1369
     30 H12        -0.4760    1.8166   -1.1387 H         1 <0>         0.1398
     31 H13        -0.9361   -0.4759   -0.3307 H         1 <0>         0.4585
     32 H14         0.5539   -0.2149    1.6730 H         1 <0>         0.1295
     33 H15         0.7631   -1.7255    0.7238 H         1 <0>         0.1390
     34 H16         2.7229   -0.8367   -0.4036 H         1 <0>         0.1045
     35 H17         2.9446   -0.5491    1.3556 H         1 <0>         0.1222
     36 H18         0.5402   -0.3226   -1.3425 H         1 <0>         0.4526
@<TRIPOS>BOND
     1    1    2 1
     2    1   19 1
     3    1   20 1
     4    1   21 1
     5    2    3 1
     6    3    8 ar
     7    3    4 ar
     8    4    5 ar
     9    4   22 1
    10    5    6 ar
    11    5   23 1
    12    6    7 ar
    13    6   24 1
    14    7    8 ar
    15    7    9 1
    16    8   25 1
    17    9   14 ar
    18    9   10 ar
    19   10   11 ar
    20   10   26 1
    21   11   12 ar
    22   11   27 1
    23   12   13 ar
    24   12   28 1
    25   13   18 1
    26   13   14 ar
    27   14   15 1
    28   15   16 1
    29   15   29 1
    30   15   30 1
    31   16   17 1
    32   16   31 1
    33   16   36 1
    34   17   18 1
    35   17   32 1
    36   17   33 1
    37   18   34 1
    38   18   35 1
@<TRIPOS>MOLECULE
ZINC28097788
   34    36     0     0     0
SMALL
USER_CHARGES
(3R)-3-methyl-8-phenyl-1,2,3,4-tetrahydroisoquinoline
@<TRIPOS>ATOM
      1 C1         -1.9398   -4.9887   -3.7158 C.3       1 <0>        -0.1486
      2 C2         -1.6331   -4.0522   -2.5454 C.3       1 <0>         0.0715
      3 H1         -0.9919   -4.5638   -1.8125 H         1 <0>         0.0425
      4 C3         -2.9403   -3.5893   -1.9017 C.3       1 <0>        -0.0719
      5 C4         -2.6640   -2.4877   -0.9106 C.ar      1 <0>        -0.0691
      6 C5         -3.6411   -2.1811    0.0262 C.ar      1 <0>        -0.1185
      7 C6         -3.4388   -1.1739    0.9494 C.ar      1 <0>        -0.1167
      8 C7         -2.2534   -0.4665    0.9492 C.ar      1 <0>        -0.1091
      9 C8         -1.2712   -0.7661    0.0106 C.ar      1 <0>        -0.0459
     10 C9         -1.4792   -1.7877   -0.9210 C.ar      1 <0>        -0.0665
     11 C10        -0.3838   -2.0917   -1.9088 C.3       1 <0>         0.0875
     12 N1         -0.9092   -2.8686   -3.0359 N.3       1 <0>        -0.6679
     13 C11         0.0021   -0.0041    0.0020 C.ar      1 <0>        -0.0457
     14 C12        -0.0168    1.3891    0.0097 C.ar      1 <0>        -0.1052
     15 C13         1.1704    2.0929    0.0021 C.ar      1 <0>        -0.1175
     16 C14         2.3775    1.4177   -0.0130 C.ar      1 <0>        -0.1178
     17 C15         2.4021    0.0347   -0.0207 C.ar      1 <0>        -0.1185
     18 C16         1.2209   -0.6791   -0.0132 C.ar      1 <0>        -0.1098
     19 H2         -2.4808   -5.8723   -3.3463 H         1 <0>         0.0636
     20 H3         -0.9983   -5.3061   -4.1879 H         1 <0>         0.0576
     21 H4         -2.5608   -4.4610   -4.4546 H         1 <0>         0.0670
     22 H5         -3.6197   -3.2135   -2.6809 H         1 <0>         0.0866
     23 H6         -3.4122   -4.4354   -1.3807 H         1 <0>         0.0787
     24 H7         -4.5682   -2.7349    0.0331 H         1 <0>         0.1228
     25 H8         -4.2058   -0.9430    1.6738 H         1 <0>         0.1253
     26 H9         -2.0911    0.3196    1.6718 H         1 <0>         0.1243
     27 H10         0.0380   -1.1500   -2.2899 H         1 <0>         0.0917
     28 H11         0.4069   -2.6731   -1.4121 H         1 <0>         0.0462
     29 H12        -0.0718   -3.1890   -3.6732 H         1 <0>         0.3460
     30 H13        -0.9588    1.9174    0.0170 H         1 <0>         0.1236
     31 H14         1.1570    3.1728    0.0081 H         1 <0>         0.1247
     32 H15         3.3042    1.9723   -0.0185 H         1 <0>         0.1231
     33 H16         3.3474   -0.4875   -0.0329 H         1 <0>         0.1239
     34 H17         1.2413   -1.7589   -0.0189 H         1 <0>         0.1222
@<TRIPOS>BOND
     1    1    2 1
     2    1   19 1
     3    1   20 1
     4    1   21 1
     5    2    3 1
     6    2   12 1
     7    2    4 1
     8    4    5 1
     9    4   22 1
    10    4   23 1
    11    5   10 ar
    12    5    6 ar
    13    6    7 ar
    14    6   24 1
    15    7    8 ar
    16    7   25 1
    17    8    9 ar
    18    8   26 1
    19    9   10 ar
    20    9   13 1
    21   10   11 1
    22   11   12 1
    23   11   27 1
    24   11   28 1
    25   12   29 1
    26   13   18 ar
    27   13   14 ar
    28   14   15 ar
    29   14   30 1
    30   15   16 ar
    31   15   31 1
    32   16   17 ar
    33   16   32 1
    34   17   18 ar
    35   17   33 1
    36   18   34 1
@<TRIPOS>MOLECULE
ZINC28097794
   34    36     0     0     0
SMALL
USER_CHARGES
(3S)-3-methyl-8-phenyl-1,2,3,4-tetrahydroisoquinoline
@<TRIPOS>ATOM
      1 C1          2.5656   -4.2612    0.3320 C.3       1 <0>        -0.1421
      2 C2          2.5422   -2.7786   -0.0451 C.3       1 <0>         0.0716
      3 H1          2.7957   -2.6590   -1.1088 H         1 <0>         0.0817
      4 C3          1.1642   -2.1893    0.2572 C.3       1 <0>        -0.1121
      5 C4          1.2037   -0.6890    0.1167 C.ar      1 <0>        -0.0794
      6 C5          0.0020   -0.0040    0.0018 C.ar      1 <0>        -0.1160
      7 C6         -0.0144    1.3716   -0.1195 C.ar      1 <0>        -0.1164
      8 C7          1.1719    2.0773   -0.1276 C.ar      1 <0>        -0.1079
      9 C8          2.3802    1.3969   -0.0149 C.ar      1 <0>        -0.0419
     10 C9          2.3925    0.0041    0.1063 C.ar      1 <0>        -0.1035
     11 C10         3.7221   -0.6940    0.2206 C.3       1 <0>         0.0871
     12 N1          3.5459   -2.0509    0.7478 N.3       1 <0>        -0.6601
     13 C11         3.6583    2.1508   -0.0236 C.ar      1 <0>        -0.0483
     14 C12         3.8744    3.1715    0.9000 C.ar      1 <0>        -0.1058
     15 C13         5.0669    3.8663    0.8904 C.ar      1 <0>        -0.1181
     16 C14         6.0424    3.5580   -0.0405 C.ar      1 <0>        -0.1169
     17 C15         5.8311    2.5493   -0.9631 C.ar      1 <0>        -0.1174
     18 C16         4.6444    1.8446   -0.9592 C.ar      1 <0>        -0.1053
     19 H2          1.8146   -4.8025   -0.2621 H         1 <0>         0.0606
     20 H3          2.3354   -4.3710    1.4020 H         1 <0>         0.0569
     21 H4          3.5636   -4.6759    0.1271 H         1 <0>         0.0656
     22 H5          0.4270   -2.5998   -0.4485 H         1 <0>         0.0818
     23 H6          0.8718   -2.4492    1.2853 H         1 <0>         0.0815
     24 H7         -0.9287   -0.5518    0.0071 H         1 <0>         0.1222
     25 H8         -0.9548    1.8946   -0.2125 H         1 <0>         0.1252
     26 H9          1.1622    3.1532   -0.2214 H         1 <0>         0.1240
     27 H10         4.1910   -0.7546   -0.7726 H         1 <0>         0.0860
     28 H11         4.3759   -0.1285    0.9008 H         1 <0>         0.0895
     29 H12         3.2125   -1.9898    1.7943 H         1 <0>         0.3404
     30 H13         3.1118    3.4157    1.6247 H         1 <0>         0.1224
     31 H14         5.2373    4.6546    1.6087 H         1 <0>         0.1244
     32 H15         6.9726    4.1067   -0.0469 H         1 <0>         0.1232
     33 H16         6.5960    2.3130   -1.6880 H         1 <0>         0.1247
     34 H17         4.4806    1.0569   -1.6797 H         1 <0>         0.1222
@<TRIPOS>BOND
     1    1    2 1
     2    1   19 1
     3    1   20 1
     4    1   21 1
     5    2    3 1
     6    2   12 1
     7    2    4 1
     8    4    5 1
     9    4   22 1
    10    4   23 1
    11    5   10 ar
    12    5    6 ar
    13    6    7 ar
    14    6   24 1
    15    7    8 ar
    16    7   25 1
    17    8    9 ar
    18    8   26 1
    19    9   10 ar
    20    9   13 1
    21   10   11 1
    22   11   12 1
    23   11   27 1
    24   11   28 1
    25   12   29 1
    26   13   18 ar
    27   13   14 ar
    28   14   15 ar
    29   14   30 1
    30   15   16 ar
    31   15   31 1
    32   16   17 ar
    33   16   32 1
    34   17   18 ar
    35   17   33 1
    36   18   34 1
@<TRIPOS>MOLECULE
ZINC00537822
   50    52     0     0     0
SMALL
USER_CHARGES

@<TRIPOS>ATOM
      1 C1         -0.0169    1.3952    0.0097 C.ar      1 <0>        -0.0260
      2 C2          1.1683    2.0970    0.0022 C.ar      1 <0>        -0.1650
      3 C3          2.3789    1.4198   -0.0130 C.ar      1 <0>         0.1439
      4 C4          2.4047    0.0329   -0.0212 C.ar      1 <0>        -0.1670
      5 C5          1.2267   -0.6810   -0.0142 C.ar      1 <0>        -0.0432
      6 C6          0.0021   -0.0041    0.0020 C.ar      1 <0>        -0.1967
      7 C7         -1.2591   -0.7596    0.0105 C.2       1 <0>         0.4038
      8 O1         -2.3189   -0.1702    0.0242 O.2       1 <0>        -0.4483
      9 C8         -1.2348   -2.2664    0.0022 C.3       1 <0>        -0.1653
     10 C9         -2.6689   -2.7996    0.0135 C.3       1 <0>        -0.1429
     11 C10        -2.6443   -4.3293    0.0051 C.3       1 <0>        -0.0092
     12 N1         -4.0211   -4.8413    0.0160 N.4       1 <0>        -0.3830
     13 C11        -4.6726   -4.4620    1.2755 C.3       1 <0>        -0.0093
     14 C12        -6.1318   -4.9225    1.2582 C.3       1 <0>        -0.1330
     15 C13        -6.1791   -6.4445    1.0954 C.3       1 <0>         0.1746
     16 C14        -5.4322   -6.8346   -0.1834 C.3       1 <0>        -0.1706
     17 C15        -3.9990   -6.3033   -0.1127 C.3       1 <0>        -0.0017
     18 C16        -7.6135   -6.8966    0.9991 C.ar      1 <0>        -0.1262
     19 C17        -8.5661   -6.0599    0.4482 C.ar      1 <0>        -0.1006
     20 C18        -9.8818   -6.4740    0.3596 C.ar      1 <0>        -0.1039
     21 C19       -10.2453   -7.7262    0.8224 C.ar      1 <0>        -0.0247
     22 C20        -9.2914   -8.5631    1.3735 C.ar      1 <0>        -0.1016
     23 C21        -7.9750   -8.1501    1.4564 C.ar      1 <0>        -0.0934
     24 Cl1       -11.8977   -8.2468    0.7119 Cl        1 <0>        -0.0500
     25 O2         -5.5554   -7.0652    2.2213 O.3       1 <0>        -0.5474
     26 F1          3.5378    2.1141   -0.0204 F         1 <0>        -0.1258
     27 H1         -0.9587    1.9236    0.0260 H         1 <0>         0.1459
     28 H2          1.1551    3.1769    0.0077 H         1 <0>         0.1477
     29 H3          3.3506   -0.4883   -0.0334 H         1 <0>         0.1469
     30 H4          1.2482   -1.7608   -0.0213 H         1 <0>         0.1412
     31 H5         -0.7241   -2.6166   -0.8948 H         1 <0>         0.1127
     32 H6         -0.7064   -2.6261    0.8850 H         1 <0>         0.1127
     33 H7         -3.1796   -2.4493    0.9105 H         1 <0>         0.0952
     34 H8         -3.1973   -2.4398   -0.8693 H         1 <0>         0.0947
     35 H9         -2.1335   -4.6796   -0.8919 H         1 <0>         0.1333
     36 H10        -2.1158   -4.6891    0.8880 H         1 <0>         0.1327
     37 H11        -4.1530   -4.9339    2.1093 H         1 <0>         0.1388
     38 H12        -4.6353   -3.3788    1.3915 H         1 <0>         0.1356
     39 H13        -6.6132   -4.6415    2.1949 H         1 <0>         0.1238
     40 H14        -6.6524   -4.4509    0.4248 H         1 <0>         0.1045
     41 H15        -5.4137   -7.9204   -0.2771 H         1 <0>         0.1175
     42 H16        -5.9384   -6.4027   -1.0467 H         1 <0>         0.1009
     43 H17        -3.4644   -6.5795   -1.0215 H         1 <0>         0.1329
     44 H18        -3.4937   -6.7360    0.7507 H         1 <0>         0.1354
     45 H19        -8.2824   -5.0823    0.0874 H         1 <0>         0.1334
     46 H20       -10.6260   -5.8201   -0.0704 H         1 <0>         0.1408
     47 H21        -9.5746   -9.5405    1.7352 H         1 <0>         0.1414
     48 H22        -7.2294   -8.8051    1.8823 H         1 <0>         0.1323
     49 H23        -5.5495   -8.0314    2.1846 H         1 <0>         0.3907
     50 H24        -4.5327   -4.4442   -0.7578 H         1 <0>         0.4215
@<TRIPOS>BOND
     1    1    6 ar
     2    1    2 ar
     3    1   27 1
     4    2    3 ar
     5    2   28 1
     6    3    4 ar
     7    3   26 1
     8    4    5 ar
     9    4   29 1
    10    5    6 ar
    11    5   30 1
    12    6    7 1
    13    7    8 2
    14    7    9 1
    15    9   10 1
    16    9   31 1
    17    9   32 1
    18   10   11 1
    19   10   33 1
    20   10   34 1
    21   11   12 1
    22   11   35 1
    23   11   36 1
    24   12   17 1
    25   12   13 1
    26   12   50 1
    27   13   14 1
    28   13   37 1
    29   13   38 1
    30   14   15 1
    31   14   39 1
    32   14   40 1
    33   15   16 1
    34   15   18 1
    35   15   25 1
    36   16   17 1
    37   16   41 1
    38   16   42 1
    39   17   43 1
    40   17   44 1
    41   18   23 ar
    42   18   19 ar
    43   19   20 ar
    44   19   45 1
    45   20   21 ar
    46   20   46 1
    47   21   22 ar
    48   21   24 1
    49   22   23 ar
    50   22   47 1
    51   23   48 1
    52   25   49 1
@<TRIPOS>MOLECULE
ZINC02384259
   43    44     0     0     0
SMALL
USER_CHARGES
(3R)-3-(3,4-dimethylphenyl)-1-propyl-piperidine
@<TRIPOS>ATOM
      1 C1         -3.3055   -0.7691    1.6957 C.3       1 <0>        -0.1564
      2 C2         -1.8936   -0.2007    1.5399 C.3       1 <0>        -0.1513
      3 C3         -1.3536   -0.5498    0.1516 C.3       1 <0>        -0.0064
      4 C4         -0.0178    1.4642    0.0101 C.3       1 <0>        -0.0066
      5 C5          1.4174    1.9953   -0.0008 C.3       1 <0>        -0.1462
      6 C6          2.1366    1.4828   -1.2517 C.3       1 <0>        -0.1305
      7 C7          2.1009   -0.0479   -1.2603 C.3       1 <0>        -0.0581
      8 H1          2.6356   -0.4293   -0.3904 H         1 <0>         0.0989
      9 C8          0.6459   -0.5197   -1.2129 C.3       1 <0>         0.0027
     10 C9          2.7553   -0.5602   -2.5175 C.ar      1 <0>        -0.1038
     11 C10         2.2491   -0.2052   -3.7541 C.ar      1 <0>        -0.1159
     12 C11         2.8495   -0.6747   -4.9071 C.ar      1 <0>        -0.1112
     13 C12         3.9559   -1.4996   -4.8238 C.ar      1 <0>        -0.0695
     14 C13         4.4619   -1.8544   -3.5876 C.ar      1 <0>        -0.0774
     15 C14         3.8648   -1.3802   -2.4343 C.ar      1 <0>        -0.1031
     16 C15         5.6676   -2.7539   -3.4968 C.3       1 <0>        -0.1258
     17 C16         4.6099   -2.0123   -6.0810 C.3       1 <0>        -0.1282
     18 H2         -3.9562   -0.3393    0.9341 H         1 <0>         0.0668
     19 H3         -3.2760   -1.8524    1.5791 H         1 <0>         0.0671
     20 H4         -3.6902   -0.5204    2.6847 H         1 <0>         0.0771
     21 H5         -1.2429   -0.6305    2.3015 H         1 <0>         0.0853
     22 H6         -1.9231    0.8826    1.6564 H         1 <0>         0.0855
     23 H7         -2.0043   -0.1200   -0.6100 H         1 <0>         0.1303
     24 H8         -1.3241   -1.6331    0.0350 H         1 <0>         0.1286
     25 H9         -0.5453    1.8252   -0.8729 H         1 <0>         0.1295
     26 H10        -0.5283    1.8156    0.9068 H         1 <0>         0.1297
     27 H11         1.4021    3.0851   -0.0105 H         1 <0>         0.1135
     28 H12         1.9414    1.6460    0.8890 H         1 <0>         0.0880
     29 H13         3.1721    1.8230   -1.2416 H         1 <0>         0.0953
     30 H14         1.6367    1.8639   -2.1422 H         1 <0>         0.0835
     31 H15         0.6175   -1.6093   -1.2045 H         1 <0>         0.1294
     32 H16         0.1153   -0.1495   -2.0901 H         1 <0>         0.1307
     33 H17         1.3849    0.4391   -3.8192 H         1 <0>         0.1195
     34 H18         2.4542   -0.3975   -5.8732 H         1 <0>         0.1279
     35 H19         4.2628   -1.6538   -1.4683 H         1 <0>         0.1242
     36 H20         6.5734   -2.1478   -3.4904 H         1 <0>         0.0767
     37 H21         5.6158   -3.3394   -2.5788 H         1 <0>         0.0685
     38 H22         5.6855   -3.4252   -4.3553 H         1 <0>         0.0760
     39 H23         5.3825   -1.3127   -6.3999 H         1 <0>         0.0778
     40 H24         5.0595   -2.9858   -5.8856 H         1 <0>         0.0756
     41 H25         3.8607   -2.1092   -6.8668 H         1 <0>         0.0707
     42 N1          0.0174   -0.0136    0.0260 N.4       1 <0>        -0.3942
     43 H26         0.5722   -0.3247    0.8320 H         1 <0>         0.4259
@<TRIPOS>BOND
     1    1    2 1
     2    1   18 1
     3    1   19 1
     4    1   20 1
     5    2    3 1
     6    2   21 1
     7    2   22 1
     8    3   23 1
     9    3   24 1
    10    3   42 1
    11    4    5 1
    12    4   25 1
    13    4   26 1
    14    4   42 1
    15    5    6 1
    16    5   27 1
    17    5   28 1
    18    6    7 1
    19    6   29 1
    20    6   30 1
    21    7    8 1
    22    7    9 1
    23    7   10 1
    24    9   31 1
    25    9   32 1
    26    9   42 1
    27   10   15 ar
    28   10   11 ar
    29   11   12 ar
    30   11   33 1
    31   12   13 ar
    32   12   34 1
    33   13   14 ar
    34   13   17 1
    35   14   15 ar
    36   14   16 1
    37   15   35 1
    38   16   36 1
    39   16   37 1
    40   16   38 1
    41   17   39 1
    42   17   40 1
    43   17   41 1
    44   42   43 1
@<TRIPOS>MOLECULE
ZINC13492922
   43    44     0     0     0
SMALL
USER_CHARGES
(3S)-3-(3,4-dimethylphenyl)-1-propyl-piperidine
@<TRIPOS>ATOM
      1 C1          1.2793    7.3165    8.5727 C.3       1 <0>        -0.1569
      2 C2          1.2879    5.8299    8.2108 C.3       1 <0>        -0.1529
      3 C3          0.7241    5.6450    6.8005 C.3       1 <0>        -0.0060
      4 C4          0.2071    3.4043    7.5572 C.3       1 <0>        -0.0108
      5 C5          0.3653    1.9202    7.2192 C.3       1 <0>        -0.1462
      6 C6         -0.3957    1.6121    5.9267 C.3       1 <0>        -0.1304
      7 C7          0.1376    2.5067    4.8042 C.3       1 <0>        -0.0581
      8 H1          1.1904    2.2843    4.6299 H         1 <0>         0.0991
      9 C8         -0.0139    3.9738    5.2122 C.3       1 <0>         0.0031
     10 C9         -0.6460    2.2518    3.5425 C.ar      1 <0>        -0.1037
     11 C10        -2.0121    2.4638    3.5224 C.ar      1 <0>        -0.1160
     12 C11        -2.7308    2.2300    2.3652 C.ar      1 <0>        -0.1112
     13 C12        -2.0829    1.7892    1.2262 C.ar      1 <0>        -0.0695
     14 C13        -0.7181    1.5718    1.2479 C.ar      1 <0>        -0.0774
     15 C14         0.0008    1.8057    2.4054 C.ar      1 <0>        -0.1032
     16 C15        -0.0127    1.0858    0.0080 C.3       1 <0>        -0.1258
     17 C16        -2.8655    1.5402   -0.0373 C.3       1 <0>        -0.1283
     18 H2          1.8939    7.8673    7.8606 H         1 <0>         0.0668
     19 H3          0.2570    7.6930    8.5378 H         1 <0>         0.0666
     20 H4          1.6809    7.4482    9.5774 H         1 <0>         0.0771
     21 H5          0.6733    5.2791    8.9229 H         1 <0>         0.0883
     22 H6          2.3102    5.4534    8.2457 H         1 <0>         0.0854
     23 H7          1.3387    6.1958    6.0885 H         1 <0>         0.1282
     24 H8         -0.2982    6.0216    6.7656 H         1 <0>         0.1296
     25 H9          0.7596    3.6300    8.4693 H         1 <0>         0.1332
     26 H10        -0.8483    3.6325    7.7062 H         1 <0>         0.1295
     27 H11         1.4217    1.6883    7.0836 H         1 <0>         0.0879
     28 H12        -0.0383    1.3168    8.0324 H         1 <0>         0.1133
     29 H13        -1.4579    1.8070    6.0741 H         1 <0>         0.0833
     30 H14        -0.2501    0.5657    5.6588 H         1 <0>         0.0953
     31 H15         0.3780    4.6131    4.4211 H         1 <0>         0.1295
     32 H16        -1.0683    4.1993    5.3722 H         1 <0>         0.1305
     33 H17        -2.5177    2.8117    4.4111 H         1 <0>         0.1195
     34 H18        -3.7980    2.3953    2.3497 H         1 <0>         0.1278
     35 H19         1.0680    1.6401    2.4211 H         1 <0>         0.1242
     36 H20         0.0021   -0.0041    0.0020 H         1 <0>         0.0767
     37 H21         1.0099    1.4631    0.0003 H         1 <0>         0.0685
     38 H22        -0.5399    1.4469   -0.8751 H         1 <0>         0.0760
     39 H23        -3.2138    0.5075   -0.0515 H         1 <0>         0.0778
     40 H24        -3.7223    2.2131   -0.0725 H         1 <0>         0.0707
     41 H25        -2.2266    1.7201   -0.9019 H         1 <0>         0.0757
     42 N1          0.7611    4.2105    6.4486 N.4       1 <0>        -0.3937
     43 H26         1.7363    3.9315    6.2888 H         1 <0>         0.4264
@<TRIPOS>BOND
     1    1    2 1
     2    1   18 1
     3    1   19 1
     4    1   20 1
     5    2    3 1
     6    2   21 1
     7    2   22 1
     8    3   23 1
     9    3   24 1
    10    3   42 1
    11    4    5 1
    12    4   25 1
    13    4   26 1
    14    4   42 1
    15    5    6 1
    16    5   27 1
    17    5   28 1
    18    6    7 1
    19    6   29 1
    20    6   30 1
    21    7    8 1
    22    7    9 1
    23    7   10 1
    24    9   31 1
    25    9   32 1
    26    9   42 1
    27   10   15 ar
    28   10   11 ar
    29   11   12 ar
    30   11   33 1
    31   12   13 ar
    32   12   34 1
    33   13   14 ar
    34   13   17 1
    35   14   15 ar
    36   14   16 1
    37   15   35 1
    38   16   36 1
    39   16   37 1
    40   16   38 1
    41   17   39 1
    42   17   40 1
    43   17   41 1
    44   42   43 1
@<TRIPOS>MOLECULE
ZINC28091152
   31    33     0     0     0
SMALL
USER_CHARGES
8-phenyl-1,2,3,4-tetrahydroisoquinoline
@<TRIPOS>ATOM
      1 C1         -0.1011    8.0877    0.0539 C.ar      1 <0>        -0.1179
      2 C2         -0.8537    7.3831    0.9761 C.ar      1 <0>        -0.1184
      3 C3         -0.8406    6.0030    0.9713 C.ar      1 <0>        -0.1081
      4 C4         -0.0672    5.3195    0.0352 C.ar      1 <0>        -0.0459
      5 C5          0.6932    6.0343   -0.8880 C.ar      1 <0>        -0.1049
      6 C6          0.6685    7.4143   -0.8775 C.ar      1 <0>        -0.1174
      7 C7         -0.0486    3.8357    0.0255 C.ar      1 <0>        -0.0464
      8 C8          1.1602    3.1555    0.1378 C.ar      1 <0>        -0.1086
      9 C9          1.1724    1.7756    0.1295 C.ar      1 <0>        -0.1169
     10 C10        -0.0126    1.0758    0.0081 C.ar      1 <0>        -0.1185
     11 C11        -1.2206    1.7476   -0.1121 C.ar      1 <0>        -0.0686
     12 C12        -1.2453    3.1239   -0.0968 C.ar      1 <0>        -0.0663
     13 C13        -2.5320    3.8983   -0.2109 C.3       1 <0>         0.0878
     14 N1         -3.6009    3.0437   -0.7372 N.3       1 <0>        -0.6700
     15 C14        -3.7018    1.8080    0.0557 C.3       1 <0>         0.0423
     16 C15        -2.4834    0.9357   -0.2479 C.3       1 <0>        -0.0790
     17 H1         -0.1146    9.1676    0.0610 H         1 <0>         0.1231
     18 H2         -1.4531    7.9139    1.7009 H         1 <0>         0.1239
     19 H3         -1.4289    5.4538    1.6915 H         1 <0>         0.1208
     20 H4          1.2976    5.5095   -1.6130 H         1 <0>         0.1236
     21 H5          1.2543    7.9693   -1.5953 H         1 <0>         0.1248
     22 H6          2.0852    3.7053    0.2307 H         1 <0>         0.1243
     23 H7          2.1077    1.2429    0.2182 H         1 <0>         0.1253
     24 H8          0.0019   -0.0041    0.0023 H         1 <0>         0.1230
     25 H9         -2.8267    4.2681    0.7823 H         1 <0>         0.0462
     26 H10        -2.3880    4.7504   -0.8915 H         1 <0>         0.0907
     27 H11        -4.5588    3.5822   -0.6875 H         1 <0>         0.3476
     28 H12        -3.7256    2.0601    1.1261 H         1 <0>         0.0359
     29 H13        -4.6237    1.2726   -0.2154 H         1 <0>         0.0830
     30 H14        -2.5621    0.5492   -1.2747 H         1 <0>         0.0855
     31 H15        -2.4560    0.0939    0.4596 H         1 <0>         0.0793
@<TRIPOS>BOND
     1    1    6 ar
     2    1    2 ar
     3    1   17 1
     4    2    3 ar
     5    2   18 1
     6    3    4 ar
     7    3   19 1
     8    4    5 ar
     9    4    7 1
    10    5    6 ar
    11    5   20 1
    12    6   21 1
    13    7   12 ar
    14    7    8 ar
    15    8    9 ar
    16    8   22 1
    17    9   10 ar
    18    9   23 1
    19   10   11 ar
    20   10   24 1
    21   11   16 1
    22   11   12 ar
    23   12   13 1
    24   13   14 1
    25   13   25 1
    26   13   26 1
    27   14   15 1
    28   14   27 1
    29   15   16 1
    30   15   28 1
    31   15   29 1
    32   16   30 1
    33   16   31 1
@<TRIPOS>MOLECULE
ZINC03870312
   44    45     0     0     0
SMALL
USER_CHARGES

@<TRIPOS>ATOM
      1 C1          2.0344   -2.4614   -1.6117 C.3       1 <0>        -0.1564
      2 C2          1.0053   -1.9689   -0.5924 C.3       1 <0>        -0.1483
      3 C3         -0.3778   -2.5081   -0.9628 C.3       1 <0>        -0.0221
      4 N1         -1.3660   -2.0352    0.0160 N.4       1 <0>        -0.3808
      5 C4         -1.4822   -0.5735   -0.0727 C.3       1 <0>        -0.0216
      6 C5         -2.3990   -0.0662    1.0422 C.3       1 <0>        -0.1495
      7 C6         -2.5852    1.4458    0.9011 C.3       1 <0>        -0.1554
      8 C7         -2.6701   -2.6483   -0.2695 C.3       1 <0>         0.0206
      9 H1         -3.4102   -2.2854    0.4437 H         1 <0>         0.1433
     10 C8         -2.5573   -4.1738   -0.1653 C.3       1 <0>        -0.1378
     11 C9         -3.9635   -4.7663   -0.2291 C.3       1 <0>        -0.0773
     12 C10        -4.7118   -4.2271   -1.4202 C.ar      1 <0>        -0.0686
     13 C11        -5.8362   -4.9235   -1.8466 C.ar      1 <0>        -0.1219
     14 C12        -6.5697   -4.4809   -2.9279 C.ar      1 <0>        -0.0880
     15 C13        -6.1863   -3.3333   -3.5952 C.ar      1 <0>        -0.1382
     16 C14        -5.0658   -2.6373   -3.1752 C.ar      1 <0>         0.1143
     17 C15        -4.3230   -3.0871   -2.0847 C.ar      1 <0>        -0.1167
     18 C16        -3.1061   -2.2922   -1.6893 C.3       1 <0>        -0.0851
     19 O1         -4.6876   -1.5082   -3.8302 O.3       1 <0>        -0.4961
     20 H2          3.0198   -2.0773   -1.3478 H         1 <0>         0.0776
     21 H3          2.0564   -3.5512   -1.6083 H         1 <0>         0.0671
     22 H4          1.7603   -2.1066   -2.6052 H         1 <0>         0.0669
     23 H5          1.2794   -2.3236    0.4012 H         1 <0>         0.0858
     24 H6          0.9833   -0.8791   -0.5958 H         1 <0>         0.0856
     25 H7         -0.6520   -2.1533   -1.9563 H         1 <0>         0.1318
     26 H8         -0.3558   -3.5978   -0.9594 H         1 <0>         0.1333
     27 H9         -0.4954   -0.1233    0.0354 H         1 <0>         0.1342
     28 H10        -1.9020   -0.3004   -1.0408 H         1 <0>         0.1308
     29 H11        -3.3680   -0.5600    0.9687 H         1 <0>         0.0835
     30 H12        -1.9507   -0.2883    2.0106 H         1 <0>         0.0869
     31 H13        -3.0336    1.6679   -0.0673 H         1 <0>         0.0659
     32 H14        -3.2384    1.8072    1.6954 H         1 <0>         0.0773
     33 H15        -1.6163    1.9396    0.9746 H         1 <0>         0.0677
     34 H16        -1.9603   -4.5552   -0.9937 H         1 <0>         0.0927
     35 H17        -2.0879   -4.4434    0.7807 H         1 <0>         0.0935
     36 H18        -3.8932   -5.8510   -0.3098 H         1 <0>         0.0995
     37 H19        -4.5039   -4.5084    0.6817 H         1 <0>         0.0910
     38 H20        -6.1386   -5.8204   -1.3266 H         1 <0>         0.1319
     39 H21        -7.4413   -5.0301   -3.2522 H         1 <0>         0.1360
     40 H22        -6.7582   -2.9810   -4.4410 H         1 <0>         0.1369
     41 H23        -3.3398   -1.2287   -1.7374 H         1 <0>         0.0954
     42 H24        -2.2928   -2.5125   -2.3808 H         1 <0>         0.0981
     43 H25        -5.0813   -0.6984   -3.4777 H         1 <0>         0.3928
     44 H26        -1.0692   -2.2933    0.9451 H         1 <0>         0.4233
@<TRIPOS>BOND
     1    1    2 1
     2    1   20 1
     3    1   21 1
     4    1   22 1
     5    2    3 1
     6    2   23 1
     7    2   24 1
     8    3    4 1
     9    3   25 1
    10    3   26 1
    11    4    5 1
    12    4    8 1
    13    4   44 1
    14    5    6 1
    15    5   27 1
    16    5   28 1
    17    6    7 1
    18    6   29 1
    19    6   30 1
    20    7   31 1
    21    7   32 1
    22    7   33 1
    23    8    9 1
    24    8   18 1
    25    8   10 1
    26   10   11 1
    27   10   34 1
    28   10   35 1
    29   11   12 1
    30   11   36 1
    31   11   37 1
    32   12   17 ar
    33   12   13 ar
    34   13   14 ar
    35   13   38 1
    36   14   15 ar
    37   14   39 1
    38   15   16 ar
    39   15   40 1
    40   16   17 ar
    41   16   19 1
    42   17   18 1
    43   18   41 1
    44   18   42 1
    45   19   43 1
@<TRIPOS>MOLECULE
ZINC03870313
   44    45     0     0     0
SMALL
USER_CHARGES

@<TRIPOS>ATOM
      1 C1          1.4413   -2.5874   -2.4342 C.3       1 <0>        -0.1558
      2 C2          0.7544   -2.1400   -1.1423 C.3       1 <0>        -0.1491
      3 C3         -0.7443   -2.4339   -1.2335 C.3       1 <0>        -0.0201
      4 N1         -1.4039   -2.0044    0.0068 N.4       1 <0>        -0.3818
      5 C4         -1.3254   -0.5420    0.1221 C.3       1 <0>        -0.0189
      6 C5         -1.8949   -0.1056    1.4734 C.3       1 <0>        -0.1495
      7 C6         -1.6913    1.4004    1.6503 C.3       1 <0>        -0.1554
      8 C7         -2.8130   -2.4186   -0.0191 C.3       1 <0>         0.0212
      9 H1         -3.3345   -1.9999    0.8417 H         1 <0>         0.1439
     10 C8         -3.4725   -1.9253   -1.3124 C.3       1 <0>        -0.1372
     11 C9         -4.9780   -2.1583   -1.2047 C.3       1 <0>        -0.0775
     12 C10        -5.2664   -3.5813   -0.8033 C.ar      1 <0>        -0.0684
     13 C11        -6.5491   -4.0680   -1.0239 C.ar      1 <0>        -0.1225
     14 C12        -6.8811   -5.3604   -0.6738 C.ar      1 <0>        -0.0878
     15 C13        -5.9313   -6.1820   -0.0976 C.ar      1 <0>        -0.1384
     16 C14        -4.6513   -5.7025    0.1215 C.ar      1 <0>         0.1150
     17 C15        -4.3156   -4.3974   -0.2354 C.ar      1 <0>        -0.1164
     18 C16        -2.9018   -3.9428    0.0171 C.3       1 <0>        -0.0892
     19 O1         -3.7160   -6.5091    0.6885 O.3       1 <0>        -0.4966
     20 H2          2.5091   -2.3780   -2.3693 H         1 <0>         0.0777
     21 H3          1.2888   -3.6574   -2.5750 H         1 <0>         0.0667
     22 H4          1.0155   -2.0454   -3.2786 H         1 <0>         0.0666
     23 H5          1.1802   -2.6819   -0.2979 H         1 <0>         0.0859
     24 H6          0.9069   -1.0699   -1.0015 H         1 <0>         0.0859
     25 H7         -1.1702   -1.8919   -2.0779 H         1 <0>         0.1316
     26 H8         -0.8968   -3.5039   -1.3743 H         1 <0>         0.1312
     27 H9         -0.2845   -0.2270    0.0477 H         1 <0>         0.1340
     28 H10        -1.9022   -0.0828   -0.6807 H         1 <0>         0.1313
     29 H11        -2.9599   -0.3350    1.5100 H         1 <0>         0.0855
     30 H12        -1.3808   -0.6382    2.2735 H         1 <0>         0.0852
     31 H13        -2.2054    1.9330    0.8503 H         1 <0>         0.0669
     32 H14        -2.0971    1.7113    2.6130 H         1 <0>         0.0774
     33 H15        -0.6264    1.6298    1.6137 H         1 <0>         0.0669
     34 H16        -3.2741   -0.8615   -1.4430 H         1 <0>         0.0923
     35 H17        -3.0749   -2.4804   -2.1620 H         1 <0>         0.0927
     36 H18        -5.3938   -1.4827   -0.4571 H         1 <0>         0.0903
     37 H19        -5.4430   -1.9557   -2.1695 H         1 <0>         0.0990
     38 H20        -7.2937   -3.4279   -1.4736 H         1 <0>         0.1316
     39 H21        -7.8809   -5.7290   -0.8494 H         1 <0>         0.1360
     40 H22        -6.1865   -7.1938    0.1811 H         1 <0>         0.1370
     41 H23        -2.2487   -4.3592   -0.7498 H         1 <0>         0.0928
     42 H24        -2.5786   -4.2985    0.9954 H         1 <0>         0.1031
     43 H25        -3.2026   -7.0244    0.0514 H         1 <0>         0.3942
     44 H26        -0.9429   -2.4293    0.7974 H         1 <0>         0.4229
@<TRIPOS>BOND
     1    1    2 1
     2    1   20 1
     3    1   21 1
     4    1   22 1
     5    2    3 1
     6    2   23 1
     7    2   24 1
     8    3    4 1
     9    3   25 1
    10    3   26 1
    11    4    5 1
    12    4    8 1
    13    4   44 1
    14    5    6 1
    15    5   27 1
    16    5   28 1
    17    6    7 1
    18    6   29 1
    19    6   30 1
    20    7   31 1
    21    7   32 1
    22    7   33 1
    23    8    9 1
    24    8   18 1
    25    8   10 1
    26   10   11 1
    27   10   34 1
    28   10   35 1
    29   11   12 1
    30   11   36 1
    31   11   37 1
    32   12   17 ar
    33   12   13 ar
    34   13   14 ar
    35   13   38 1
    36   14   15 ar
    37   14   39 1
    38   15   16 ar
    39   15   40 1
    40   16   17 ar
    41   16   19 1
    42   17   18 1
    43   18   41 1
    44   18   42 1
    45   19   43 1
@<TRIPOS>MOLECULE
ZINC00010402
   41    43     0     0     0
SMALL
USER_CHARGES

@<TRIPOS>ATOM
      1 C1         -0.0178    1.4648    0.0101 C.3       1 <0>        -0.0528
      2 N1          0.0021   -0.0041    0.0020 N.4       1 <0>        -0.3866
      3 C2          0.6897   -0.4778   -1.2066 C.3       1 <0>        -0.0473
      4 C3          0.7126   -0.4907    1.1921 C.3       1 <0>        -0.0070
      5 C4         -0.0711   -0.1034    2.4478 C.3       1 <0>        -0.1731
      6 C5          0.6689   -0.6103    3.6874 C.3       1 <0>         0.1296
      7 N2         -0.0815   -0.2395    4.8897 N.pl3     1 <0>        -0.5789
      8 C6          0.1850    0.9881    5.5056 C.ar      1 <0>         0.1785
      9 C7          1.4828    1.4707    5.5711 C.ar      1 <0>        -0.1484
     10 C8          1.7388    2.6851    6.1835 C.ar      1 <0>        -0.0815
     11 C9          0.7081    3.4235    6.7325 C.ar      1 <0>        -0.1265
     12 C10        -0.5929    2.9509    6.6726 C.ar      1 <0>        -0.0580
     13 C11        -0.8536    1.7391    6.0620 C.ar      1 <0>        -0.1462
     14 S1         -2.5010    1.1099    5.9702 S.3       1 <0>         0.0077
     15 C12        -2.2363   -0.6355    5.9314 C.ar      1 <0>        -0.1463
     16 C13        -1.0482   -1.1205    5.3863 C.ar      1 <0>         0.1790
     17 C14        -0.8334   -2.4893    5.3466 C.ar      1 <0>        -0.1484
     18 C15        -1.7935   -3.3545    5.8417 C.ar      1 <0>        -0.0810
     19 C16        -2.9689   -2.8637    6.3773 C.ar      1 <0>        -0.1262
     20 C17        -3.1879   -1.5059    6.4275 C.ar      1 <0>        -0.0579
     21 H1          1.0047    1.8421    0.0024 H         1 <0>         0.1230
     22 H2         -0.5450    1.8259   -0.8730 H         1 <0>         0.1255
     23 H3         -0.5280    1.8163    0.9069 H         1 <0>         0.1238
     24 H4          1.7123   -0.1005   -1.2143 H         1 <0>         0.1224
     25 H5          0.7044   -1.5677   -1.2126 H         1 <0>         0.1238
     26 H6          0.1625   -0.1167   -2.0897 H         1 <0>         0.1252
     27 H7          0.8051   -1.5756    1.1418 H         1 <0>         0.1329
     28 H8          1.7055   -0.0428    1.2310 H         1 <0>         0.1318
     29 H9         -0.1636    0.9815    2.4982 H         1 <0>         0.0925
     30 H10        -1.0640   -0.5514    2.4090 H         1 <0>         0.0915
     31 H11         0.7614   -1.6952    3.6370 H         1 <0>         0.0914
     32 H12         1.6619   -0.1623    3.7262 H         1 <0>         0.0912
     33 H13         2.2939    0.8990    5.1448 H         1 <0>         0.1281
     34 H14         2.7512    3.0580    6.2329 H         1 <0>         0.1333
     35 H15         0.9168    4.3699    7.2092 H         1 <0>         0.1357
     36 H16        -1.3995    3.5269    7.1014 H         1 <0>         0.1375
     37 H17         0.0826   -2.8805    4.9292 H         1 <0>         0.1282
     38 H18        -1.6230   -4.4205    5.8089 H         1 <0>         0.1334
     39 H19        -3.7127   -3.5459    6.7618 H         1 <0>         0.1358
     40 H20        -4.1071   -1.1234    6.8461 H         1 <0>         0.1367
     41 H21        -0.9445   -0.3533    0.0092 H         1 <0>         0.4276
@<TRIPOS>BOND
     1    1    2 1
     2    1   21 1
     3    1   22 1
     4    1   23 1
     5    2    3 1
     6    2    4 1
     7    2   41 1
     8    3   24 1
     9    3   25 1
    10    3   26 1
    11    4    5 1
    12    4   27 1
    13    4   28 1
    14    5    6 1
    15    5   29 1
    16    5   30 1
    17    6    7 1
    18    6   31 1
    19    6   32 1
    20    7   16 1
    21    7    8 1
    22    8   13 ar
    23    8    9 ar
    24    9   10 ar
    25    9   33 1
    26   10   11 ar
    27   10   34 1
    28   11   12 ar
    29   11   35 1
    30   12   13 ar
    31   12   36 1
    32   13   14 1
    33   14   15 1
    34   15   20 ar
    35   15   16 ar
    36   16   17 ar
    37   17   18 ar
    38   17   37 1
    39   18   19 ar
    40   18   38 1
    41   19   20 ar
    42   19   39 1
    43   20   40 1
@<TRIPOS>MOLECULE
ZINC22116608
   37    39     0     0     0
SMALL
USER_CHARGES

@<TRIPOS>ATOM
      1 C1         -0.0167    1.3784    0.0096 C.ar      1 <0>        -0.0959
      2 C2          1.1695    2.0865    0.0021 C.ar      1 <0>        -0.1440
      3 C3          2.3802    1.4093   -0.0131 C.ar      1 <0>         0.1125
      4 C4          2.3963    0.0221   -0.0206 C.ar      1 <0>        -0.1426
      5 C5          1.2074   -0.6814   -0.0130 C.ar      1 <0>        -0.0831
      6 C6          0.0021   -0.0041    0.0020 C.ar      1 <0>        -0.0932
      7 C7         -1.2934   -0.7740    0.0107 C.3       1 <0>         0.0170
      8 H1         -2.1266   -0.0713    0.0227 H         1 <0>         0.0843
      9 C8         -1.3519   -1.6424    1.2671 C.3       1 <0>        -0.0149
     10 N1         -2.7503   -1.7398    1.6992 N.4       1 <0>        -0.5026
     11 C9         -3.5601   -2.3813    0.6632 C.3       1 <0>        -0.0039
     12 C10        -2.6818   -3.4165   -0.0466 C.3       1 <0>        -0.1145
     13 C11        -2.0436   -2.8219   -1.2752 C.ar      1 <0>        -0.0412
     14 C12        -1.3758   -1.6180   -1.2375 C.ar      1 <0>        -0.2301
     15 C13        -0.7560   -1.1390   -2.3840 C.ar      1 <0>        -0.0726
     16 C14        -0.8274   -1.8478   -3.5697 C.ar      1 <0>        -0.0220
     17 C15        -1.5288   -3.0484   -3.6140 C.ar      1 <0>         0.2674
     18 C16        -2.1335   -3.5286   -2.4671 C.ar      1 <0>        -0.1678
     19 Cl1        -3.0071   -5.0279   -2.5169 Cl        1 <0>        -0.0919
     20 O1         -1.6213   -3.7441   -4.7792 O.3       1 <0>        -0.6613
     21 O2         -0.2149   -1.3730   -4.6873 O.3       1 <0>        -0.4858
     22 O3          3.5484    2.1036   -0.0209 O.3       1 <0>        -0.4981
     23 H2         -0.9594    1.9052    0.0259 H         1 <0>         0.1266
     24 H3          1.1543    3.1664    0.0076 H         1 <0>         0.1306
     25 H4          3.3375   -0.5074   -0.0328 H         1 <0>         0.1311
     26 H5          1.2194   -1.7613   -0.0189 H         1 <0>         0.1291
     27 H6         -0.9675   -2.6374    1.0429 H         1 <0>         0.1452
     28 H7         -0.7555   -1.1852    2.0566 H         1 <0>         0.1318
     29 H8         -2.8005   -2.2844    2.5471 H         1 <0>         0.4236
     30 H9         -4.4179   -2.8758    1.1190 H         1 <0>         0.1327
     31 H10        -3.9019   -1.6342   -0.0532 H         1 <0>         0.1354
     32 H11        -1.9015   -3.7534    0.6358 H         1 <0>         0.0908
     33 H12        -3.2956   -4.2688   -0.3378 H         1 <0>         0.1147
     34 H13        -0.2135   -0.2057   -2.3496 H         1 <0>         0.1089
     35 H14         0.6981   -1.6733   -4.7931 H         1 <0>         0.3671
     36 H15         3.8951    2.3001    0.8601 H         1 <0>         0.3923
     37 H16        -3.1096   -0.8141    1.8783 H         1 <0>         0.4245
@<TRIPOS>BOND
     1    1    6 ar
     2    1    2 ar
     3    1   23 1
     4    2    3 ar
     5    2   24 1
     6    3    4 ar
     7    3   22 1
     8    4    5 ar
     9    4   25 1
    10    5    6 ar
    11    5   26 1
    12    6    7 1
    13    7    8 1
    14    7   14 1
    15    7    9 1
    16    9   10 1
    17    9   27 1
    18    9   28 1
    19   10   11 1
    20   10   29 1
    21   10   37 1
    22   11   12 1
    23   11   30 1
    24   11   31 1
    25   12   13 1
    26   12   32 1
    27   12   33 1
    28   13   18 ar
    29   13   14 ar
    30   14   15 ar
    31   15   16 ar
    32   15   34 1
    33   16   17 ar
    34   16   21 1
    35   17   18 ar
    36   17   20 1
    37   18   19 1
    38   21   35 1
    39   22   36 1
