@<TRIPOS>MOLECULE
ZINC00020229
   47    48     0     0     0
SMALL
USER_CHARGES

@<TRIPOS>ATOM
      1 C1         -1.2761   -4.3639   -3.1085 C.3       1 <0>        -0.1860
      2 C2         -0.7301   -3.6161   -1.8905 C.3       1 <0>        -0.0234
      3 N1          0.2843   -2.6466   -2.3253 N.4       1 <0>        -0.3833
      4 C3          1.4464   -3.3632   -2.8927 C.3       1 <0>        -0.0112
      5 C4          2.6766   -2.5276   -2.4593 C.3       1 <0>        -0.1411
      6 C5          2.2619   -2.0751   -1.0345 C.3       1 <0>        -0.1419
      7 C6          0.7406   -1.8536   -1.1692 C.3       1 <0>         0.0089
      8 H1          0.5334   -0.7970   -1.3392 H         1 <0>         0.1471
      9 C7          0.0311   -2.3285    0.1004 C.3       1 <0>         0.1054
     10 N2          0.4414   -1.4922    1.2311 N.am      1 <0>        -0.7353
     11 C8          0.0201   -1.7888    2.4765 C.2       1 <0>         0.5739
     12 O1         -0.7005   -2.7505    2.6616 O.2       1 <0>        -0.5006
     13 C9          0.4333   -0.9466    3.6152 C.ar      1 <0>        -0.2025
     14 C10         1.2564    0.1627    3.4063 C.ar      1 <0>         0.0538
     15 C11         1.6384    0.9456    4.4739 C.ar      1 <0>        -0.7232
     16 C12         1.2099    0.6379    5.7550 C.ar      1 <0>         0.0546
     17 C13         0.3962   -0.4554    5.9756 C.ar      1 <0>        -0.2336
     18 C14        -0.0024   -1.2513    4.9118 C.ar      1 <0>         0.2462
     19 O2         -0.8061   -2.3229    5.1263 O.3       1 <0>        -0.2744
     20 C15        -1.2100   -2.5714    6.4743 C.3       1 <0>         0.0127
     21 S1          2.6771    2.3440    4.2087 S.o2      1 <0>         2.7060
     22 O3          3.3381    2.5983    5.4406 O.2       1 <0>        -0.9541
     23 O4          3.3846    2.1011    3.0005 O.2       1 <0>        -0.9646
     24 N3          1.6882    3.6417    3.9255 N.pl3     1 <0>        -1.2497
     25 H2         -1.7267   -3.6520   -3.8000 H         1 <0>         0.0803
     26 H3         -0.4617   -4.8893   -3.6074 H         1 <0>         0.0801
     27 H4         -2.0288   -5.0832   -2.7858 H         1 <0>         0.1066
     28 H5         -1.5444   -3.0907   -1.3916 H         1 <0>         0.1351
     29 H6         -0.2794   -4.3280   -1.1990 H         1 <0>         0.1332
     30 H7          1.5084   -4.3710   -2.4820 H         1 <0>         0.1334
     31 H8          1.3761   -3.3993   -3.9799 H         1 <0>         0.1378
     32 H9          3.5754   -3.1435   -2.4272 H         1 <0>         0.1196
     33 H10         2.8167   -1.6692   -3.1163 H         1 <0>         0.1013
     34 H11         2.4744   -2.8565   -0.3048 H         1 <0>         0.1036
     35 H12         2.7641   -1.1464   -0.7636 H         1 <0>         0.1180
     36 H13        -1.0477   -2.2516   -0.0358 H         1 <0>         0.0915
     37 H14         0.2990   -3.3661    0.2999 H         1 <0>         0.0952
     38 H15         1.0162   -0.7250    1.0834 H         1 <0>         0.4053
     39 H16         1.5932    0.4061    2.4094 H         1 <0>         0.1478
     40 H17         1.5144    1.2568    6.5860 H         1 <0>         0.1569
     41 H18         0.0663   -0.6888    6.9771 H         1 <0>         0.1535
     42 H19        -0.3283   -2.7381    7.0930 H         1 <0>         0.0668
     43 H20        -1.7619   -1.7109    6.8527 H         1 <0>         0.0666
     44 H21        -1.8481   -3.4546    6.5055 H         1 <0>         0.1133
     45 H22         0.7249    3.5276    3.9304 H         1 <0>         0.4171
     46 H23         2.0722    4.5159    3.7546 H         1 <0>         0.4246
     47 H24        -0.1083   -2.0336   -3.0240 H         1 <0>         0.4289
@<TRIPOS>BOND
     1    1    2 1
     2    1   25 1
     3    1   26 1
     4    1   27 1
     5    2    3 1
     6    2   28 1
     7    2   29 1
     8    3    7 1
     9    3    4 1
    10    3   47 1
    11    4    5 1
    12    4   30 1
    13    4   31 1
    14    5    6 1
    15    5   32 1
    16    5   33 1
    17    6    7 1
    18    6   34 1
    19    6   35 1
    20    7    8 1
    21    7    9 1
    22    9   10 1
    23    9   36 1
    24    9   37 1
    25   10   11 am
    26   10   38 1
    27   11   12 2
    28   11   13 1
    29   13   18 ar
    30   13   14 ar
    31   14   15 ar
    32   14   39 1
    33   15   16 ar
    34   15   21 1
    35   16   17 ar
    36   16   40 1
    37   17   18 ar
    38   17   41 1
    39   18   19 1
    40   19   20 1
    41   20   42 1
    42   20   43 1
    43   20   44 1
    44   21   22 2
    45   21   23 2
    46   21   24 1
    47   24   45 1
    48   24   46 1
@<TRIPOS>MOLECULE
ZINC00057008
   47    48     0     0     0
SMALL
USER_CHARGES

@<TRIPOS>ATOM
      1 C1         -0.0187    1.5258    0.0104 C.3       1 <0>        -0.1897
      2 C2          0.0021   -0.0041    0.0020 C.3       1 <0>        -0.0136
      3 N1          0.6897   -0.4778   -1.2066 N.4       1 <0>        -0.3974
      4 C3         -0.0977   -0.1111   -2.4030 C.3       1 <0>        -0.0106
      5 C4          0.0876   -1.3002   -3.3783 C.3       1 <0>        -0.1438
      6 C5          0.0948   -2.5070   -2.4033 C.3       1 <0>        -0.1316
      7 C6          0.8183   -1.9459   -1.1611 C.3       1 <0>         0.0107
      8 H1          0.3514   -2.3311   -0.2546 H         1 <0>         0.1483
      9 C7          2.2961   -2.3403   -1.1970 C.3       1 <0>         0.1010
     10 N2          3.0089   -1.6628   -0.1111 N.am      1 <0>        -0.7578
     11 C8          4.3318   -1.8612    0.0535 C.2       1 <0>         0.5719
     12 O1          4.9337   -2.6023   -0.6993 O.2       1 <0>        -0.4872
     13 C9          5.0496   -1.1789    1.1471 C.ar      1 <0>        -0.2038
     14 C10         4.3608   -0.3309    2.0180 C.ar      1 <0>         0.0500
     15 C11         5.0369    0.3029    3.0376 C.ar      1 <0>        -0.7236
     16 C12         6.3978    0.1034    3.2039 C.ar      1 <0>         0.0551
     17 C13         7.0907   -0.7318    2.3505 C.ar      1 <0>        -0.2312
     18 C14         6.4251   -1.3822    1.3219 C.ar      1 <0>         0.2480
     19 O2          7.1035   -2.2073    0.4857 O.3       1 <0>        -0.2733
     20 C15         8.5034   -2.3657    0.7254 C.3       1 <0>         0.0122
     21 S1          4.1669    1.3725    4.1347 S.o2      1 <0>         2.7072
     22 O3          5.1271    2.2718    4.6717 O.2       1 <0>        -0.9524
     23 O4          3.0123    1.8184    3.4366 O.2       1 <0>        -0.9690
     24 N3          3.6282    0.4460    5.3971 N.pl3     1 <0>        -1.2496
     25 H2          1.0039    1.9031    0.0027 H         1 <0>         0.0828
     26 H3         -0.5459    1.8868   -0.8726 H         1 <0>         0.0811
     27 H4         -0.5289    1.8773    0.9072 H         1 <0>         0.1105
     28 H5          0.5293   -0.3651    0.8851 H         1 <0>         0.1249
     29 H6         -1.0205   -0.3814    0.0098 H         1 <0>         0.1346
     30 H7         -1.1498    0.0064   -2.1435 H         1 <0>         0.1360
     31 H8          0.2896    0.8066   -2.8456 H         1 <0>         0.1357
     32 H9         -0.7473   -1.3669   -4.0759 H         1 <0>         0.1211
     33 H10         1.0351   -1.2237   -3.9118 H         1 <0>         0.0999
     34 H11        -0.9229   -2.8070   -2.1539 H         1 <0>         0.1077
     35 H12         0.6508   -3.3426   -2.8285 H         1 <0>         0.1183
     36 H13         2.3873   -3.4195   -1.0737 H         1 <0>         0.1172
     37 H14         2.7275   -2.0462   -2.1538 H         1 <0>         0.0984
     38 H15         2.5287   -1.0715    0.4895 H         1 <0>         0.3924
     39 H16         3.3000   -0.1722    1.8919 H         1 <0>         0.1417
     40 H17         6.9199    0.6046    4.0056 H         1 <0>         0.1577
     41 H18         8.1514   -0.8823    2.4865 H         1 <0>         0.1548
     42 H19         8.9974   -1.3974    0.6459 H         1 <0>         0.0674
     43 H20         8.6572   -2.7711    1.7254 H         1 <0>         0.0675
     44 H21         8.9232   -3.0494   -0.0124 H         1 <0>         0.1149
     45 H22         3.8201   -0.5046    5.4176 H         1 <0>         0.4178
     46 H23         3.1208    0.8539    6.1162 H         1 <0>         0.4251
     47 H24         1.6056   -0.0583   -1.2636 H         1 <0>         0.4224
@<TRIPOS>BOND
     1    1    2 1
     2    1   25 1
     3    1   26 1
     4    1   27 1
     5    2    3 1
     6    2   28 1
     7    2   29 1
     8    3    7 1
     9    3    4 1
    10    3   47 1
    11    4    5 1
    12    4   30 1
    13    4   31 1
    14    5    6 1
    15    5   32 1
    16    5   33 1
    17    6    7 1
    18    6   34 1
    19    6   35 1
    20    7    8 1
    21    7    9 1
    22    9   10 1
    23    9   36 1
    24    9   37 1
    25   10   11 am
    26   10   38 1
    27   11   12 2
    28   11   13 1
    29   13   18 ar
    30   13   14 ar
    31   14   15 ar
    32   14   39 1
    33   15   16 ar
    34   15   21 1
    35   16   17 ar
    36   16   40 1
    37   17   18 ar
    38   17   41 1
    39   18   19 1
    40   19   20 1
    41   20   42 1
    42   20   43 1
    43   20   44 1
    44   21   22 2
    45   21   23 2
    46   21   24 1
    47   24   45 1
    48   24   46 1
