@<TRIPOS>MOLECULE
ZINC52956332
   66    69     0     0     0
SMALL
USER_CHARGES

@<TRIPOS>ATOM
      1 C1         -0.2570   -0.0396   -0.2249 C.3       1 <0>        -0.1481
      2 C2         -0.4777   -1.5512   -0.1410 C.3       1 <0>         0.0719
      3 C3          0.2510   -2.1058    1.0847 C.3       1 <0>        -0.1743
      4 O1         -1.8760   -1.8229   -0.0272 O.3       1 <0>        -0.2968
      5 C4         -2.3308   -2.9699   -0.5993 C.ar      1 <0>         0.1238
      6 C5         -1.4369   -3.8709   -1.1538 C.ar      1 <0>        -0.2108
      7 C6         -1.9007   -5.0365   -1.7356 C.ar      1 <0>        -0.0833
      8 C7         -3.2562   -5.3067   -1.7656 C.ar      1 <0>        -0.1528
      9 C8         -4.1549   -4.4130   -1.2140 C.ar      1 <0>        -0.0865
     10 C9         -3.6965   -3.2442   -0.6239 C.ar      1 <0>         0.1375
     11 N1         -4.6040   -2.3403   -0.0596 N.pl3     1 <0>        -0.6674
     12 C10        -5.1972   -1.2631   -0.8665 C.3       1 <0>         0.1547
     13 C11        -5.0050    0.0635   -0.1240 C.3       1 <0>         0.0426
     14 N2         -5.5408   -0.0593    1.2382 N.3       1 <0>        -0.5278
     15 C12        -4.8056   -1.0693    2.0110 C.3       1 <0>         0.0391
     16 C13        -4.9943   -2.4462    1.3545 C.3       1 <0>         0.1554
     17 C14        -5.5326    1.2387    1.9262 C.3       1 <0>         0.0947
     18 C15        -6.3064    1.1292    3.2147 C.ar      1 <0>        -0.0813
     19 C16        -7.6662    1.3854    3.2273 C.ar      1 <0>        -0.0744
     20 C17        -8.3840    1.2867    4.4058 C.ar      1 <0>        -0.1211
     21 C18        -7.7471    0.9321    5.5774 C.ar      1 <0>        -0.0675
     22 C19        -6.3760    0.6723    5.5716 C.ar      1 <0>        -0.1273
     23 C20        -5.6587    0.7682    4.3778 C.ar      1 <0>        -0.0879
     24 C21        -5.6870    0.2923    6.8233 C.2       1 <0>         0.5617
     25 O2         -6.1780   -0.5424    7.5580 O.2       1 <0>        -0.5326
     26 N3         -4.5146    0.8713    7.1497 N.am      1 <0>        -0.6059
     27 C22        -3.8640    1.8148    6.2303 C.3       1 <0>         0.0916
     28 C23        -3.5771    3.1180    6.9827 C.3       1 <0>        -0.1360
     29 C24        -2.7654    2.8071    8.2423 C.3       1 <0>        -0.1214
     30 C25        -3.5758    1.8882    9.1594 C.3       1 <0>        -0.1356
     31 C26        -3.8657    0.5757    8.4343 C.3       1 <0>         0.1105
     32 H1          0.8096    0.1676   -0.3117 H         1 <0>         0.0754
     33 H2         -0.7761    0.3555   -1.0981 H         1 <0>         0.0627
     34 H3         -0.6472    0.4351    0.6754 H         1 <0>         0.0636
     35 H4         -0.0875   -2.0259   -1.0413 H         1 <0>         0.0742
     36 H5         -0.1393   -1.6311    1.9850 H         1 <0>         0.0650
     37 H6          0.0937   -3.1828    1.1445 H         1 <0>         0.0608
     38 H7          1.3176   -1.8986    0.9979 H         1 <0>         0.0710
     39 H8         -0.3773   -3.6629   -1.1321 H         1 <0>         0.1279
     40 H9         -1.2021   -5.7375   -2.1681 H         1 <0>         0.1235
     41 H10        -3.6139   -6.2182   -2.2214 H         1 <0>         0.1239
     42 H11        -5.2133   -4.6264   -1.2391 H         1 <0>         0.1282
     43 H12        -4.7006   -1.2157   -1.8356 H         1 <0>         0.0685
     44 H13        -6.2613   -1.4538   -1.0061 H         1 <0>         0.0563
     45 H14        -3.9427    0.3033   -0.0768 H         1 <0>         0.0406
     46 H15        -5.5341    0.8563   -0.6529 H         1 <0>         0.0772
     47 H16        -3.7461   -0.8138    2.0285 H         1 <0>         0.0394
     48 H17        -5.1901   -1.0982    3.0305 H         1 <0>         0.0783
     49 H18        -6.0393   -2.7483    1.4243 H         1 <0>         0.0563
     50 H19        -4.3636   -3.1812    1.8544 H         1 <0>         0.0674
     51 H20        -4.5044    1.5283    2.1433 H         1 <0>         0.0422
     52 H21        -5.9950    1.9913    1.2875 H         1 <0>         0.0858
     53 H22        -8.1693    1.6640    2.3132 H         1 <0>         0.1285
     54 H23        -9.4450    1.4880    4.4089 H         1 <0>         0.1309
     55 H24        -8.3085    0.8561    6.4969 H         1 <0>         0.1292
     56 H25        -4.5982    0.5642    4.3658 H         1 <0>         0.1264
     57 H26        -2.9283    1.3874    5.8698 H         1 <0>         0.0700
     58 H27        -4.5244    2.0175    5.3871 H         1 <0>         0.0990
     59 H28        -3.0089    3.7912    6.3407 H         1 <0>         0.0765
     60 H29        -4.5182    3.5906    7.2637 H         1 <0>         0.0681
     61 H30        -1.8355    2.3122    7.9621 H         1 <0>         0.0648
     62 H31        -2.5388    3.7354    8.7666 H         1 <0>         0.0672
     63 H32        -3.0066    1.6860   10.0668 H         1 <0>         0.0777
     64 H33        -4.5169    2.3723    9.4200 H         1 <0>         0.0669
     65 H34        -4.5272   -0.0389    9.0449 H         1 <0>         0.0936
     66 H35        -2.9302    0.0450    8.2576 H         1 <0>         0.0683
@<TRIPOS>BOND
     1    1    2 1
     2    1   32 1
     3    1   33 1
     4    1   34 1
     5    2    3 1
     6    2    4 1
     7    2   35 1
     8    3   36 1
     9    3   37 1
    10    3   38 1
    11    4    5 1
    12    5   10 ar
    13    5    6 ar
    14    6    7 ar
    15    6   39 1
    16    7    8 ar
    17    7   40 1
    18    8    9 ar
    19    8   41 1
    20    9   10 ar
    21    9   42 1
    22   10   11 1
    23   11   16 1
    24   11   12 1
    25   12   13 1
    26   12   43 1
    27   12   44 1
    28   13   14 1
    29   13   45 1
    30   13   46 1
    31   14   15 1
    32   14   17 1
    33   15   16 1
    34   15   47 1
    35   15   48 1
    36   16   49 1
    37   16   50 1
    38   17   18 1
    39   17   51 1
    40   17   52 1
    41   18   23 ar
    42   18   19 ar
    43   19   20 ar
    44   19   53 1
    45   20   21 ar
    46   20   54 1
    47   21   22 ar
    48   21   55 1
    49   22   23 ar
    50   22   24 1
    51   23   56 1
    52   24   25 2
    53   24   26 am
    54   26   31 1
    55   26   27 1
    56   27   28 1
    57   27   57 1
    58   27   58 1
    59   28   29 1
    60   28   59 1
    61   28   60 1
    62   29   30 1
    63   29   61 1
    64   29   62 1
    65   30   31 1
    66   30   63 1
    67   30   64 1
    68   31   65 1
    69   31   66 1
@<TRIPOS>MOLECULE
ZINC22064449
   39    41     0     0     0
SMALL
USER_CHARGES
(4aS,10bS)-4-propyl-2,3,4a,5,6,10b-hexahydronaphtho[8,7-b][1,4]oxazin-9-ol
@<TRIPOS>ATOM
      1 C1          0.4806   -0.9191   -3.7859 C.3       1 <0>        -0.1538
      2 C2         -0.1995   -0.4247   -2.5077 C.3       1 <0>        -0.1215
      3 C3         -0.0679    1.0969   -2.4158 C.3       1 <0>         0.0481
      4 N1         -0.7209    1.5717   -1.1886 N.3       1 <0>        -0.5344
      5 C4         -0.0127    1.0858    0.0080 C.3       1 <0>         0.0135
      6 C5         -0.7241    1.5768    1.2696 C.3       1 <0>         0.0605
      7 O1         -0.8460    3.0046    1.2401 O.3       1 <0>        -0.3766
      8 C6         -1.5498    3.4706    0.0912 C.3       1 <0>         0.1433
      9 H1         -2.5495    3.0167    0.1578 H         1 <0>         0.0796
     10 C7         -0.7936    3.0364   -1.1647 C.3       1 <0>         0.0601
     11 H2          0.2477    3.3907   -1.1758 H         1 <0>         0.0542
     12 C8         -1.5413    3.5800   -2.3815 C.3       1 <0>        -0.1130
     13 C9         -1.3389    5.1149   -2.3932 C.3       1 <0>        -0.0754
     14 C10        -1.6234    5.7165   -1.0422 C.ar      1 <0>        -0.1116
     15 C11        -1.7058    4.9629    0.1113 C.ar      1 <0>        -0.0370
     16 C12        -1.9405    5.5851    1.3276 C.ar      1 <0>        -0.1383
     17 C13        -2.1030    6.9588    1.3949 C.ar      1 <0>         0.1504
     18 C14        -2.0305    7.7148    0.2340 C.ar      1 <0>        -0.2060
     19 C15        -1.7925    7.0939   -0.9733 C.ar      1 <0>        -0.0827
     20 O2         -2.3325    7.5624    2.5907 O.3       1 <0>        -0.5097
     21 H3          0.3860   -2.0130   -3.8520 H         1 <0>         0.0582
     22 H4          1.5454   -0.6437   -3.7647 H         1 <0>         0.0530
     23 H5         -0.0006   -0.4560   -4.6599 H         1 <0>         0.0558
     24 H6         -1.2643   -0.7001   -2.5289 H         1 <0>         0.0718
     25 H7          0.2817   -0.8878   -1.6336 H         1 <0>         0.0614
     26 H8          0.9969    1.3722   -2.3946 H         1 <0>         0.0346
     27 H9         -0.5490    1.5600   -3.2899 H         1 <0>         0.0831
     28 H10         0.0013   -0.0141    0.0044 H         1 <0>         0.0924
     29 H11         1.0196    1.4657    0.0027 H         1 <0>         0.0434
     30 H12        -1.7275    1.1292    1.3224 H         1 <0>         0.0621
     31 H13        -0.1438    1.2816    2.1562 H         1 <0>         0.1026
     32 H14        -1.1304    3.1280   -3.2963 H         1 <0>         0.0788
     33 H15        -2.6093    3.3307   -2.2971 H         1 <0>         0.0782
     34 H16        -0.2985    5.3455   -2.6660 H         1 <0>         0.0761
     35 H17        -2.0199    5.5690   -3.1281 H         1 <0>         0.0803
     36 H18        -1.9971    4.9940    2.2297 H         1 <0>         0.1326
     37 H19        -2.1605    8.7861    0.2761 H         1 <0>         0.1275
     38 H20        -1.7372    7.6845   -1.8758 H         1 <0>         0.1253
     39 H21        -2.4611    8.6537    2.6402 H         1 <0>         0.4330
@<TRIPOS>BOND
     1    1    2 1
     2    1   21 1
     3    1   22 1
     4    1   23 1
     5    2    3 1
     6    2   24 1
     7    2   25 1
     8    3    4 1
     9    3   26 1
    10    3   27 1
    11    4   10 1
    12    4    5 1
    13    5    6 1
    14    5   28 1
    15    5   29 1
    16    6    7 1
    17    6   30 1
    18    6   31 1
    19    7    8 1
    20    8    9 1
    21    8   15 1
    22    8   10 1
    23   10   11 1
    24   10   12 1
    25   12   13 1
    26   12   32 1
    27   12   33 1
    28   13   14 1
    29   13   34 1
    30   13   35 1
    31   14   19 ar
    32   14   15 ar
    33   15   16 ar
    34   16   17 ar
    35   16   36 1
    36   17   18 ar
    37   17   20 1
    38   18   19 ar
    39   18   37 1
    40   19   38 1
    41   20   39 1
@<TRIPOS>MOLECULE
ZINC26824949
   39    41     0     0     0
SMALL
USER_CHARGES
(4aS,10bR)-4-propyl-2,3,4a,5,6,10b-hexahydronaphtho[8,7-b][1,4]oxazin-9-ol
@<TRIPOS>ATOM
      1 C1         -0.7288    1.5792    1.2668 C.3       1 <0>        -0.1536
      2 C2         -0.0127    1.0858    0.0080 C.3       1 <0>        -0.1223
      3 C3         -0.7527    1.5927   -1.2315 C.3       1 <0>         0.0529
      4 N1         -0.0651    1.1189   -2.4401 N.3       1 <0>        -0.5336
      5 C4          1.2725    1.7177   -2.5542 C.3       1 <0>         0.0091
      6 C5          1.9679    1.1463   -3.7935 C.3       1 <0>         0.0616
      7 O1          1.1674    1.4210   -4.9450 O.3       1 <0>        -0.3749
      8 C6         -0.1523    0.8713   -4.8854 C.3       1 <0>         0.1453
      9 H1         -0.0409   -0.2224   -4.8491 H         1 <0>         0.0767
     10 C7         -0.8677    1.3807   -3.6375 C.3       1 <0>         0.0581
     11 H2         -1.8124    0.8382   -3.4852 H         1 <0>         0.0945
     12 C8         -1.1111    2.8838   -3.7925 C.3       1 <0>        -0.1480
     13 C9         -2.1729    3.0905   -4.8712 C.3       1 <0>        -0.0716
     14 C10        -1.8268    2.3151   -6.1156 C.ar      1 <0>        -0.1027
     15 C11        -0.9071    1.2899   -6.1227 C.ar      1 <0>        -0.0354
     16 C12        -0.6419    0.6082   -7.3015 C.ar      1 <0>        -0.1392
     17 C13        -1.2907    0.9554   -8.4747 C.ar      1 <0>         0.1496
     18 C14        -2.2121    1.9924   -8.4676 C.ar      1 <0>        -0.2020
     19 C15        -2.4761    2.6649   -7.2934 C.ar      1 <0>        -0.0844
     20 O2         -1.0259    0.2845   -9.6265 O.3       1 <0>        -0.5101
     21 H3         -0.1968    1.2148    2.1579 H         1 <0>         0.0581
     22 H4         -1.7608    1.1985    1.2746 H         1 <0>         0.0557
     23 H5         -0.7437    2.6791    1.2729 H         1 <0>         0.0530
     24 H6          1.0193    1.4665    0.0002 H         1 <0>         0.0619
     25 H7          0.0022   -0.0141    0.0019 H         1 <0>         0.0713
     26 H8         -1.7847    1.2120   -1.2237 H         1 <0>         0.0766
     27 H9         -0.7676    2.6926   -1.2254 H         1 <0>         0.0392
     28 H10         1.1785    2.8094   -2.6508 H         1 <0>         0.0466
     29 H11         1.8593    1.4784   -1.6551 H         1 <0>         0.0895
     30 H12         2.9561    1.6155   -3.9085 H         1 <0>         0.1012
     31 H13         2.0895    0.0592   -3.6773 H         1 <0>         0.0611
     32 H14        -1.4603    3.2993   -2.8357 H         1 <0>         0.0714
     33 H15        -0.1738    3.3786   -4.0868 H         1 <0>         0.0757
     34 H16        -3.1479    2.7449   -4.4970 H         1 <0>         0.0767
     35 H17        -2.2352    4.1591   -5.1244 H         1 <0>         0.0764
     36 H18         0.0757   -0.1989   -7.3043 H         1 <0>         0.1286
     37 H19        -2.7204    2.2721   -9.3785 H         1 <0>         0.1280
     38 H20        -3.1944    3.4713   -7.2889 H         1 <0>         0.1252
     39 H21        -1.5431    0.5630  -10.5565 H         1 <0>         0.4336
@<TRIPOS>BOND
     1    1    2 1
     2    1   21 1
     3    1   22 1
     4    1   23 1
     5    2    3 1
     6    2   24 1
     7    2   25 1
     8    3    4 1
     9    3   26 1
    10    3   27 1
    11    4   10 1
    12    4    5 1
    13    5    6 1
    14    5   28 1
    15    5   29 1
    16    6    7 1
    17    6   30 1
    18    6   31 1
    19    7    8 1
    20    8    9 1
    21    8   15 1
    22    8   10 1
    23   10   11 1
    24   10   12 1
    25   12   13 1
    26   12   32 1
    27   12   33 1
    28   13   14 1
    29   13   34 1
    30   13   35 1
    31   14   19 ar
    32   14   15 ar
    33   15   16 ar
    34   16   17 ar
    35   16   36 1
    36   17   18 ar
    37   17   20 1
    38   18   19 ar
    39   18   37 1
    40   19   38 1
    41   20   39 1
@<TRIPOS>MOLECULE
ZINC13742643
   41    42     0     0     0
SMALL
USER_CHARGES
(6R)-N',N'-dipropyl-4,5,6,7-tetrahydro-1,3-benzothiazole-2,6-diamine
@<TRIPOS>ATOM
      1 C1         -0.1175    1.1729   -2.5115 C.3       1 <0>        -0.1562
      2 C2         -0.8531    1.5686   -1.2296 C.3       1 <0>        -0.1481
      3 C3         -0.0581    1.0845   -0.0153 C.3       1 <0>        -0.0197
      4 C4         -1.9224    0.8075    1.5048 C.3       1 <0>        -0.0127
      5 C5         -1.5560   -0.6417    1.8312 C.3       1 <0>        -0.1487
      6 C6         -2.8343   -1.4621    2.0144 C.3       1 <0>        -0.1556
      7 C7          0.2325    1.5194    2.3489 C.3       1 <0>         0.0307
      8 H1          0.5001    0.4836    2.5577 H         1 <0>         0.1466
      9 C8         -0.4287    2.1381    3.5839 C.3       1 <0>        -0.1388
     10 C9          0.4263    1.8759    4.8248 C.3       1 <0>        -0.0402
     11 C10         1.8510    2.3405    4.5460 C.2       1 <0>         0.1342
     12 C11         2.2731    2.5243    3.2691 C.2       1 <0>        -0.2844
     13 S1          3.9513    3.0520    3.4852 S.3       1 <0>         0.0695
     14 C12         3.9716    2.9911    5.2225 C.2       1 <0>         0.3783
     15 N1          2.7477    2.5896    5.4990 N.2       1 <0>        -0.5942
     16 N2          5.0087    3.2884    6.0928 N.pl3     1 <0>        -0.7898
     17 C13         1.4978    2.3242    2.0113 C.3       1 <0>        -0.0284
     18 H2         -0.0163    0.0884   -2.5523 H         1 <0>         0.0668
     19 H3         -0.6838    1.5178   -3.3766 H         1 <0>         0.0771
     20 H4          0.8717    1.6306   -2.5188 H         1 <0>         0.0668
     21 H5         -1.8423    1.1109   -1.2223 H         1 <0>         0.0855
     22 H6         -0.9542    2.6532   -1.1888 H         1 <0>         0.0848
     23 H7         -0.0337   -0.0052   -0.0079 H         1 <0>         0.1342
     24 H8          0.9598    1.4704   -0.0700 H         1 <0>         0.1318
     25 H9         -2.4342    1.2538    2.3574 H         1 <0>         0.1313
     26 H10        -2.5789    0.8291    0.6349 H         1 <0>         0.1311
     27 H11        -0.9691   -1.0610    1.0140 H         1 <0>         0.0846
     28 H12        -0.9710   -0.6703    2.7505 H         1 <0>         0.0866
     29 H13        -3.4193   -1.4335    1.0950 H         1 <0>         0.0664
     30 H14        -2.5733   -2.4945    2.2469 H         1 <0>         0.0767
     31 H15        -3.4212   -1.0428    2.8316 H         1 <0>         0.0675
     32 H16        -0.5332    3.2131    3.4375 H         1 <0>         0.0937
     33 H17        -1.4153    1.6968    3.7249 H         1 <0>         0.0975
     34 H18         0.0206    2.4294    5.6717 H         1 <0>         0.1046
     35 H19         0.4250    0.8096    5.0508 H         1 <0>         0.0946
     36 H20         5.8670    3.5759    5.7442 H         1 <0>         0.4259
     37 H21         4.8761    3.2089    7.0504 H         1 <0>         0.4220
     38 H22         2.1023    1.7735    1.2906 H         1 <0>         0.0987
     39 H23         1.2178    3.2915    1.5942 H         1 <0>         0.0947
     40 N3         -0.7071    1.5956    1.2104 N.4       1 <0>        -0.3922
     41 H24        -0.9732    2.5763    1.0627 H         1 <0>         0.4268
@<TRIPOS>BOND
     1    1    2 1
     2    1   18 1
     3    1   19 1
     4    1   20 1
     5    2    3 1
     6    2   21 1
     7    2   22 1
     8    3   23 1
     9    3   24 1
    10    3   40 1
    11    4    5 1
    12    4   25 1
    13    4   26 1
    14    4   40 1
    15    5    6 1
    16    5   27 1
    17    5   28 1
    18    6   29 1
    19    6   30 1
    20    6   31 1
    21    7    8 1
    22    7   17 1
    23    7    9 1
    24    7   40 1
    25    9   10 1
    26    9   32 1
    27    9   33 1
    28   10   11 1
    29   10   34 1
    30   10   35 1
    31   11   15 1
    32   11   12 2
    33   12   13 1
    34   12   17 1
    35   13   14 1
    36   14   15 2
    37   14   16 1
    38   16   36 1
    39   16   37 1
    40   17   38 1
    41   17   39 1
    42   40   41 1
@<TRIPOS>MOLECULE
ZINC13742644
   41    42     0     0     0
SMALL
USER_CHARGES
(6S)-N',N'-dipropyl-4,5,6,7-tetrahydro-1,3-benzothiazole-2,6-diamine
@<TRIPOS>ATOM
      1 C1          3.8194    1.2123    4.8869 C.3       1 <0>        -0.1559
      2 C2          3.2368    1.9126    3.6576 C.3       1 <0>        -0.1498
      3 C3          3.8833    1.3443    2.3927 C.3       1 <0>        -0.0150
      4 C4          4.3180    1.9153    0.0802 C.3       1 <0>        -0.0178
      5 C5          5.6183    2.6797    0.3365 C.3       1 <0>        -0.1490
      6 C6          6.5720    2.4733   -0.8420 C.3       1 <0>        -0.1563
      7 C7          2.0378    1.7110    0.8688 C.3       1 <0>         0.0322
      8 H1          1.3881    1.8408    1.7343 H         1 <0>         0.1432
      9 C8          1.5411    2.5850   -0.2872 C.3       1 <0>        -0.1371
     10 C9          0.0423    2.3689   -0.5025 C.3       1 <0>        -0.0410
     11 C10        -0.2211    0.8752   -0.6545 C.2       1 <0>         0.1340
     12 C11         0.6959   -0.0283   -0.2243 C.2       1 <0>        -0.2841
     13 S1         -0.0674   -1.5780   -0.6216 S.3       1 <0>         0.0691
     14 C12        -1.5218   -0.9269   -1.3165 C.2       1 <0>         0.3784
     15 N1         -1.3268    0.3708   -1.1997 N.2       1 <0>        -0.5940
     16 N2         -2.6074   -1.5999   -1.8550 N.pl3     1 <0>        -0.7898
     17 C13         2.0128    0.2408    0.4211 C.3       1 <0>        -0.0255
     18 H2          3.6184    0.1428    4.8251 H         1 <0>         0.0668
     19 H3          4.8962    1.3781    4.9232 H         1 <0>         0.0668
     20 H4          3.3589    1.6171    5.7880 H         1 <0>         0.0770
     21 H5          3.4379    2.9821    3.7194 H         1 <0>         0.0853
     22 H6          2.1601    1.7469    3.6213 H         1 <0>         0.0852
     23 H7          3.6104    0.2945    2.2854 H         1 <0>         0.1319
     24 H8          4.9672    1.4322    2.4677 H         1 <0>         0.1320
     25 H9          4.5384    0.8552   -0.0452 H         1 <0>         0.1321
     26 H10         3.8441    2.2973   -0.8240 H         1 <0>         0.1328
     27 H11         5.3998    3.7421    0.4454 H         1 <0>         0.0860
     28 H12         6.0837    2.3090    1.2498 H         1 <0>         0.0848
     29 H13         6.7904    1.4110   -0.9509 H         1 <0>         0.0666
     30 H14         6.1065    2.8440   -1.7553 H         1 <0>         0.0671
     31 H15         7.4984    3.0179   -0.6594 H         1 <0>         0.0771
     32 H16         2.0788    2.3207   -1.1978 H         1 <0>         0.0936
     33 H17         1.7251    3.6334   -0.0525 H         1 <0>         0.0968
     34 H18        -0.2761    2.8899   -1.4055 H         1 <0>         0.1049
     35 H19        -0.5092    2.7516    0.3563 H         1 <0>         0.0956
     36 H20        -2.6153   -2.5697   -1.8755 H         1 <0>         0.4259
     37 H21        -3.3591   -1.1011   -2.2114 H         1 <0>         0.4221
     38 H22         2.1374   -0.4093    1.2871 H         1 <0>         0.0970
     39 H23         2.8160    0.0604   -0.2933 H         1 <0>         0.0949
     40 N3          3.4110    2.1231    1.2286 N.4       1 <0>        -0.3919
     41 H24         3.4065    3.1201    1.4740 H         1 <0>         0.4278
@<TRIPOS>BOND
     1    1    2 1
     2    1   18 1
     3    1   19 1
     4    1   20 1
     5    2    3 1
     6    2   21 1
     7    2   22 1
     8    3   23 1
     9    3   24 1
    10    3   40 1
    11    4    5 1
    12    4   25 1
    13    4   26 1
    14    4   40 1
    15    5    6 1
    16    5   27 1
    17    5   28 1
    18    6   29 1
    19    6   30 1
    20    6   31 1
    21    7    8 1
    22    7   17 1
    23    7    9 1
    24    7   40 1
    25    9   10 1
    26    9   32 1
    27    9   33 1
    28   10   11 1
    29   10   34 1
    30   10   35 1
    31   11   15 1
    32   11   12 2
    33   12   13 1
    34   12   17 1
    35   13   14 1
    36   14   15 2
    37   14   16 1
    38   16   36 1
    39   16   37 1
    40   17   38 1
    41   17   39 1
    42   40   41 1
@<TRIPOS>MOLECULE
ZINC20358060
   39    41     0     0     0
SMALL
USER_CHARGES
1-benzyl-4-(2-iodopyrrol-1-yl)piperidine
@<TRIPOS>ATOM
      1 C1         -6.3766   -3.2696    3.8374 C.ar      1 <0>        -0.0837
      2 C2         -6.7726   -1.9671    3.5973 C.ar      1 <0>        -0.1136
      3 C3         -6.5464   -1.3928    2.3604 C.ar      1 <0>        -0.0981
      4 C4         -5.9247   -2.1212    1.3634 C.ar      1 <0>        -0.1606
      5 C5         -5.5339   -3.4255    1.6017 C.ar      1 <0>        -0.0939
      6 C6         -5.7553   -3.9981    2.8403 C.ar      1 <0>        -0.1129
      7 C7         -5.6786   -1.4952    0.0148 C.3       1 <0>         0.0468
      8 N1         -4.3655   -0.8366    0.0130 N.4       1 <0>        -0.3985
      9 C8         -4.1890   -0.0180   -1.1933 C.3       1 <0>         0.0005
     10 C9         -2.7621    0.5338   -1.2327 C.3       1 <0>        -0.1569
     11 C10        -2.5115    1.3773    0.0204 C.3       1 <0>         0.1188
     12 C11        -2.7490    0.5144    1.2628 C.3       1 <0>        -0.1548
     13 C12        -4.1762   -0.0368    1.2299 C.3       1 <0>        -0.0060
     14 N2         -1.1284    1.8603    0.0169 N.pl3     1 <0>        -0.4381
     15 C13        -0.0126    1.0758    0.0080 C.2       1 <0>         0.0015
     16 C14         1.0690    1.8810    0.0020 C.2       1 <0>        -0.1814
     17 C15         0.6048    3.2113    0.0130 C.2       1 <0>        -0.1355
     18 C16        -0.7436    3.1684    0.0254 C.2       1 <0>        -0.0106
     19 I1         -2.0251    4.8257    0.0447 I         1 <0>         0.0221
     20 H1         -6.5530   -3.7181    4.8038 H         1 <0>         0.1361
     21 H2         -7.2583   -1.3981    4.3761 H         1 <0>         0.1363
     22 H3         -6.8558   -0.3752    2.1728 H         1 <0>         0.1299
     23 H4         -5.0521   -3.9960    0.8214 H         1 <0>         0.1315
     24 H5         -5.4463   -5.0158    3.0277 H         1 <0>         0.1363
     25 H6         -5.6987   -2.2751   -0.7606 H         1 <0>         0.1403
     26 H7         -6.4621   -0.7515   -0.1928 H         1 <0>         0.1344
     27 H8         -4.3672   -0.6364   -2.0854 H         1 <0>         0.1424
     28 H9         -4.9044    0.8174   -1.1774 H         1 <0>         0.1317
     29 H10        -2.0468   -0.3013   -1.2638 H         1 <0>         0.1008
     30 H11        -2.6353    1.1588   -2.1290 H         1 <0>         0.1222
     31 H12        -3.1610    2.2651    0.0307 H         1 <0>         0.1136
     32 H13        -2.0320   -0.3198    1.2723 H         1 <0>         0.0997
     33 H14        -2.6113    1.1266    2.1663 H         1 <0>         0.1203
     34 H15        -4.8916    0.7987    1.2345 H         1 <0>         0.1297
     35 H16        -4.3451   -0.6689    2.1141 H         1 <0>         0.1437
     36 H17         0.0021   -0.0041    0.0020 H         1 <0>         0.1679
     37 H18         2.1015    1.5644   -0.0090 H         1 <0>         0.1488
     38 H19         1.2160    4.1017    0.0118 H         1 <0>         0.1480
     39 H20        -3.5928   -1.6195    0.0029 H         1 <0>         0.4411
@<TRIPOS>BOND
     1    1    6 ar
     2    1    2 ar
     3    1   20 1
     4    2    3 ar
     5    2   21 1
     6    3    4 ar
     7    3   22 1
     8    4    5 ar
     9    4    7 1
    10    5    6 ar
    11    5   23 1
    12    6   24 1
    13    7    8 1
    14    7   25 1
    15    7   26 1
    16    8   13 1
    17    8    9 1
    18    8   39 1
    19    9   10 1
    20    9   27 1
    21    9   28 1
    22   10   11 1
    23   10   29 1
    24   10   30 1
    25   11   12 1
    26   11   14 1
    27   11   31 1
    28   12   13 1
    29   12   32 1
    30   12   33 1
    31   13   34 1
    32   13   35 1
    33   14   18 1
    34   14   15 1
    35   15   16 2
    36   15   36 1
    37   16   17 1
    38   16   37 1
    39   17   18 2
    40   17   38 1
    41   18   19 1
@<TRIPOS>MOLECULE
ZINC03785159
   38    39     0     0     0
SMALL
USER_CHARGES

@<TRIPOS>ATOM
      1 C1         -0.0187    1.5258    0.0104 C.3       1 <0>        -0.1566
      2 C2          0.0021   -0.0041    0.0020 C.3       1 <0>        -0.1507
      3 C3          0.7421   -0.5109    1.2415 C.3       1 <0>        -0.0110
      4 N1          0.7620   -1.9797    1.2335 N.4       1 <0>        -0.3831
      5 C4          1.5443   -2.4507    0.0842 C.3       1 <0>        -0.0135
      6 C5          1.5009   -3.9791    0.0247 C.3       1 <0>        -0.1453
      7 C6          2.0923   -4.5518    1.3160 C.3       1 <0>        -0.1318
      8 C7          1.3153   -3.9953    2.5125 C.3       1 <0>        -0.0601
      9 H1          0.2782   -4.3266    2.4589 H         1 <0>         0.1042
     10 C8          1.3656   -2.4663    2.4799 C.3       1 <0>        -0.0041
     11 C9          1.9371   -4.4929    3.7918 C.ar      1 <0>        -0.0999
     12 C10         3.2550   -4.1875    4.0833 C.ar      1 <0>        -0.0864
     13 C11         3.8337   -4.6403    5.2554 C.ar      1 <0>        -0.1095
     14 C12         3.0992   -5.3998    6.1426 C.ar      1 <0>        -0.0579
     15 C13         1.7690   -5.7113    5.8551 C.ar      1 <0>        -0.0108
     16 C14         1.1897   -5.2470    4.6723 C.ar      1 <0>        -0.0597
     17 C15         1.0006   -6.4993    6.7713 C.1       1 <0>         0.2349
     18 N2          0.3911   -7.1243    7.4981 N.1       1 <0>        -0.3886
     19 H2          1.0039    1.9031    0.0027 H         1 <0>         0.0669
     20 H3         -0.5459    1.8868   -0.8726 H         1 <0>         0.0774
     21 H4         -0.5289    1.8773    0.9072 H         1 <0>         0.0673
     22 H5         -1.0205   -0.3814    0.0098 H         1 <0>         0.0859
     23 H6          0.5123   -0.3556   -0.8948 H         1 <0>         0.0861
     24 H7          1.7647   -0.1336    1.2338 H         1 <0>         0.1296
     25 H8          0.2319   -0.1594    2.1383 H         1 <0>         0.1311
     26 H9          1.1241   -2.0397   -0.8337 H         1 <0>         0.1326
     27 H10         2.5779   -2.1208    0.1892 H         1 <0>         0.1291
     28 H11         0.4677   -4.3100   -0.0805 H         1 <0>         0.0890
     29 H12         2.0838   -4.3268   -0.8282 H         1 <0>         0.1149
     30 H13         2.0121   -5.6388    1.3029 H         1 <0>         0.0982
     31 H14         3.1404   -4.2635    1.3960 H         1 <0>         0.0856
     32 H15         2.4030   -2.1361    2.5337 H         1 <0>         0.1312
     33 H16         0.8134   -2.0668    3.3305 H         1 <0>         0.1336
     34 H17         3.8345   -3.5933    3.3923 H         1 <0>         0.1298
     35 H18         4.8629   -4.3989    5.4763 H         1 <0>         0.1417
     36 H19         3.5523   -5.7530    7.0571 H         1 <0>         0.1409
     37 H20         0.1600   -5.4811    4.4456 H         1 <0>         0.1364
     38 H21        -0.1823   -2.3275    1.1601 H         1 <0>         0.4227
@<TRIPOS>BOND
     1    1    2 1
     2    1   19 1
     3    1   20 1
     4    1   21 1
     5    2    3 1
     6    2   22 1
     7    2   23 1
     8    3    4 1
     9    3   24 1
    10    3   25 1
    11    4   10 1
    12    4    5 1
    13    4   38 1
    14    5    6 1
    15    5   26 1
    16    5   27 1
    17    6    7 1
    18    6   28 1
    19    6   29 1
    20    7    8 1
    21    7   30 1
    22    7   31 1
    23    8    9 1
    24    8   10 1
    25    8   11 1
    26   10   32 1
    27   10   33 1
    28   11   16 ar
    29   11   12 ar
    30   12   13 ar
    31   12   34 1
    32   13   14 ar
    33   13   35 1
    34   14   15 ar
    35   14   36 1
    36   15   16 ar
    37   15   17 1
    38   16   37 1
    39   17   18 3
@<TRIPOS>MOLECULE
ZINC49037116
   46    48     0     0     0
SMALL
USER_CHARGES

@<TRIPOS>ATOM
      1 C1         -0.0167    1.3780    0.0096 C.ar      1 <0>        -0.1396
      2 C2          1.1830    2.0711    0.0019 C.ar      1 <0>        -0.1087
      3 C3          2.3685    1.3412   -0.0134 C.ar      1 <0>         0.1239
      4 C4          2.3055   -0.0462   -0.0202 C.ar      1 <0>         0.0721
      5 N1          1.1425   -0.6663   -0.0124 N.ar      1 <0>        -0.4544
      6 C5          0.0021   -0.0041    0.0020 C.ar      1 <0>         0.0800
      7 N2          3.6056    1.9959   -0.0221 N.am      1 <0>        -0.5589
      8 C6          4.9192    1.3353   -0.0441 C.3       1 <0>         0.0810
      9 C7          5.9213    2.5060   -0.0452 C.3       1 <0>         0.0920
     10 N3          5.0660    3.7019   -0.0237 N.am      1 <0>        -0.6304
     11 C8          3.7810    3.3239   -0.0176 C.2       1 <0>         0.7019
     12 O1          2.8573    4.1145   -0.0051 O.2       1 <0>        -0.5582
     13 C9          5.5434    5.0870   -0.0164 C.3       1 <0>         0.1322
     14 C10         5.6923    5.5826   -1.4562 C.3       1 <0>        -0.0319
     15 N4          6.1710    6.9714   -1.4490 N.4       1 <0>        -0.3739
     16 C11         7.5182    7.0226   -0.9291 C.3       1 <0>        -0.0252
     17 C12         7.7413    8.2862   -0.0803 C.3       1 <0>        -0.1450
     18 C13         7.0926    9.5399   -0.6990 C.3       1 <0>        -0.1436
     19 C14         7.2852    9.6360   -2.1898 C.3       1 <0>        -0.1342
     20 C15         6.0948    8.9499   -2.9024 C.3       1 <0>        -0.1571
     21 C16         6.2030    7.4961   -2.8253 C.3       1 <0>        -0.0005
     22 H1         -0.9556    1.9115    0.0259 H         1 <0>         0.1442
     23 H2          1.1981    3.1510    0.0072 H         1 <0>         0.1652
     24 H3          3.2186   -0.6228   -0.0324 H         1 <0>         0.1567
     25 H4         -0.9302   -0.5493    0.0084 H         1 <0>         0.1636
     26 H5          5.0522    0.7186    0.8448 H         1 <0>         0.1025
     27 H6          5.0307    0.7354   -0.9473 H         1 <0>         0.1013
     28 H7          6.5520    2.4706    0.8432 H         1 <0>         0.0980
     29 H8          6.5304    2.4874   -0.9490 H         1 <0>         0.0930
     30 H9          4.8266    5.7156    0.5120 H         1 <0>         0.1084
     31 H10         6.5093    5.1357    0.4863 H         1 <0>         0.1064
     32 H11         6.4090    4.9540   -1.9846 H         1 <0>         0.1338
     33 H12         4.7263    5.5339   -1.9590 H         1 <0>         0.1359
     34 H13         7.6965    6.1420   -0.3120 H         1 <0>         0.1283
     35 H14         8.2222    7.0227   -1.7612 H         1 <0>         0.1307
     36 H15         7.3180    8.1236    0.9109 H         1 <0>         0.0900
     37 H16         8.8130    8.4578    0.0207 H         1 <0>         0.1080
     38 H17         6.0240    9.5228   -0.4847 H         1 <0>         0.0660
     39 H18         7.5262   10.4245   -0.2324 H         1 <0>         0.0923
     40 H19         7.3306   10.6845   -2.4843 H         1 <0>         0.0908
     41 H20         8.2134    9.1379   -2.4699 H         1 <0>         0.0779
     42 H21         5.1649    9.2649   -2.4288 H         1 <0>         0.0881
     43 H22         6.0821    9.2526   -3.9494 H         1 <0>         0.1180
     44 H23         7.1394    7.1913   -3.2925 H         1 <0>         0.1283
     45 H24         5.3782    7.0553   -3.3853 H         1 <0>         0.1260
     46 H25         5.5619    7.5402   -0.8800 H         1 <0>         0.4251
@<TRIPOS>BOND
     1    1    6 ar
     2    1    2 ar
     3    1   22 1
     4    2    3 ar
     5    2   23 1
     6    3    4 ar
     7    3    7 1
     8    4    5 ar
     9    4   24 1
    10    5    6 ar
    11    6   25 1
    12    7   11 am
    13    7    8 1
    14    8    9 1
    15    8   26 1
    16    8   27 1
    17    9   10 1
    18    9   28 1
    19    9   29 1
    20   10   11 am
    21   10   13 1
    22   11   12 2
    23   13   14 1
    24   13   30 1
    25   13   31 1
    26   14   15 1
    27   14   32 1
    28   14   33 1
    29   15   21 1
    30   15   16 1
    31   15   46 1
    32   16   17 1
    33   16   34 1
    34   16   35 1
    35   17   18 1
    36   17   36 1
    37   17   37 1
    38   18   19 1
    39   18   38 1
    40   18   39 1
    41   19   20 1
    42   19   40 1
    43   19   41 1
    44   20   21 1
    45   20   42 1
    46   20   43 1
    47   21   44 1
    48   21   45 1
@<TRIPOS>MOLECULE
ZINC05736728
   41    43     0     0     0
SMALL
USER_CHARGES
4-(1,3-dibenzylhexahydropyrimidin-2-yl)phenol
@<TRIPOS>ATOM
      1 C1         -0.0126    1.0758    0.0080 C.ar      1 <0>        -0.0824
      2 C2         -1.2190    1.7506    0.0173 C.ar      1 <0>        -0.1126
      3 C3         -1.2377    3.1328    0.0299 C.ar      1 <0>        -0.0940
      4 C4         -0.0501    3.8402    0.0223 C.ar      1 <0>        -0.1657
      5 C5          1.1563    3.1654    0.0076 C.ar      1 <0>        -0.0976
      6 C6          1.1750    1.7832    0.0004 C.ar      1 <0>        -0.1131
      7 C7         -0.0705    5.3471    0.0297 C.3       1 <0>         0.0495
      8 C8          1.1581    5.5089   -2.0500 C.3       1 <0>        -0.0027
      9 C9          1.0449    5.9102   -3.5224 C.3       1 <0>        -0.1584
     10 C10         0.7726    7.4140   -3.6170 C.3       1 <0>         0.1221
     11 C11        -0.5066    7.7428   -2.8424 C.3       1 <0>        -0.1602
     12 C12        -0.3485    7.2884   -1.3897 C.3       1 <0>         0.0026
     13 N1          0.6054    7.7939   -5.0220 N.pl3     1 <0>        -0.4248
     14 C13        -0.3280    7.3036   -5.8631 C.2       1 <0>         0.0299
     15 C14        -0.1807    7.8886   -7.0780 C.2       1 <0>        -0.2029
     16 C15         0.8946    8.7752   -6.9998 C.2       1 <0>        -0.0794
     17 C16         1.3799    8.7073   -5.7051 C.2       1 <0>        -0.1122
     18 C17         2.4693    9.4393   -5.1802 C.2       1 <0>         0.3961
     19 O1          3.0749   10.2182   -5.8881 O.2       1 <0>        -0.4449
     20 H1          0.0021   -0.0041    0.0020 H         1 <0>         0.1366
     21 H2         -2.1469    1.1980    0.0187 H         1 <0>         0.1368
     22 H3         -2.1802    3.6600    0.0410 H         1 <0>         0.1314
     23 H4          2.0841    3.7181    0.0014 H         1 <0>         0.1312
     24 H5          2.1175    1.2560   -0.0115 H         1 <0>         0.1367
     25 H6         -0.9604    5.6958    0.5537 H         1 <0>         0.1374
     26 H7          0.8193    5.7200    0.5368 H         1 <0>         0.1386
     27 H8          1.9865    6.0472   -1.5895 H         1 <0>         0.1362
     28 H9          1.3378    4.4362   -1.9787 H         1 <0>         0.1382
     29 H10         0.2254    5.3620   -3.9871 H         1 <0>         0.0980
     30 H11         1.9770    5.6762   -4.0367 H         1 <0>         0.1224
     31 H12         1.6100    7.9636   -3.1873 H         1 <0>         0.1178
     32 H13        -1.3506    7.2235   -3.2964 H         1 <0>         0.0986
     33 H14        -0.6834    8.8180   -2.8702 H         1 <0>         0.1236
     34 H15        -1.2630    7.5081   -0.8388 H         1 <0>         0.1390
     35 H16         0.4870    7.8183   -0.9323 H         1 <0>         0.1370
     36 H17        -1.0748    6.5658   -5.6092 H         1 <0>         0.1688
     37 H18        -0.7855    7.6986   -7.9524 H         1 <0>         0.1505
     38 H19         1.2752    9.3961   -7.7973 H         1 <0>         0.1542
     39 H20         2.7630    9.3059   -4.1495 H         1 <0>         0.0860
     40 N2         -0.1130    5.8290   -1.3664 N.4       1 <0>        -0.3959
     41 H21        -0.8827    5.3596   -1.8578 H         1 <0>         0.4275
@<TRIPOS>BOND
     1    1    6 ar
     2    1    2 ar
     3    1   20 1
     4    2    3 ar
     5    2   21 1
     6    3    4 ar
     7    3   22 1
     8    4    5 ar
     9    4    7 1
    10    5    6 ar
    11    5   23 1
    12    6   24 1
    13    7   25 1
    14    7   26 1
    15    7   40 1
    16    8    9 1
    17    8   27 1
    18    8   28 1
    19    8   40 1
    20    9   10 1
    21    9   29 1
    22    9   30 1
    23   10   11 1
    24   10   13 1
    25   10   31 1
    26   11   12 1
    27   11   32 1
    28   11   33 1
    29   12   34 1
    30   12   35 1
    31   12   40 1
    32   13   17 1
    33   13   14 1
    34   14   15 2
    35   14   36 1
    36   15   16 1
    37   15   37 1
    38   16   17 2
    39   16   38 1
    40   17   18 1
    41   18   19 2
    42   18   39 1
    43   40   41 1
@<TRIPOS>MOLECULE
ZINC02169415
   51    53     0     0     0
SMALL
USER_CHARGES

@<TRIPOS>ATOM
      1 C1          0.1211    1.2205   -3.1182 C.3       1 <0>        -0.1554
      2 C2          0.1212   -0.2930   -2.8943 C.3       1 <0>        -0.1522
      3 C3          0.5756   -0.5972   -1.4653 C.3       1 <0>        -0.0201
      4 N1          0.5307   -2.0474   -1.2355 N.4       1 <0>        -0.3814
      5 C4         -0.8598   -2.5136   -1.3189 C.3       1 <0>        -0.0169
      6 C5         -1.6744   -1.8943   -0.1814 C.3       1 <0>        -0.0968
      7 C6         -3.0637   -2.4784   -0.1827 C.ar      1 <0>        -0.1073
      8 C7         -4.0648   -1.8787   -0.9236 C.ar      1 <0>        -0.1097
      9 C8         -5.3392   -2.4144   -0.9248 C.ar      1 <0>        -0.1136
     10 C9         -5.6122   -3.5500   -0.1855 C.ar      1 <0>        -0.1044
     11 C10        -4.6108   -4.1503    0.5547 C.ar      1 <0>        -0.1137
     12 C11        -3.3354   -3.6170    0.5525 C.ar      1 <0>        -0.1108
     13 C12         1.3381   -2.7300   -2.2553 C.3       1 <0>         0.0202
     14 H1          0.9446   -2.5044   -3.2465 H         1 <0>         0.1445
     15 C13         2.7949   -2.2617   -2.1593 C.3       1 <0>        -0.1386
     16 C14         3.5541   -2.7985   -3.3710 C.3       1 <0>        -0.0685
     17 C15         3.3324   -4.2809   -3.5206 C.ar      1 <0>        -0.1100
     18 C16         2.2929   -4.9405   -2.9056 C.ar      1 <0>        -0.0755
     19 C17         2.1397   -6.3086   -3.0915 C.ar      1 <0>        -0.1201
     20 C18         3.0232   -7.0147   -3.8823 C.ar      1 <0>        -0.0943
     21 C19         4.0710   -6.3578   -4.4975 C.ar      1 <0>        -0.1328
     22 C20         4.2258   -4.9935   -4.3180 C.ar      1 <0>         0.1136
     23 O1          5.2555   -4.3454   -4.9234 O.3       1 <0>        -0.4942
     24 C21         1.2991   -4.2382   -2.0176 C.3       1 <0>        -0.0918
     25 H2         -0.5617    1.6923   -2.4116 H         1 <0>         0.0668
     26 H3          1.1276    1.6103   -2.9662 H         1 <0>         0.0672
     27 H4         -0.2026    1.4372   -4.1362 H         1 <0>         0.0768
     28 H5         -0.8853   -0.6828   -3.0463 H         1 <0>         0.0858
     29 H6          0.8041   -0.7648   -3.6009 H         1 <0>         0.0873
     30 H7          1.5950   -0.2382   -1.3241 H         1 <0>         0.1334
     31 H8         -0.0869   -0.0967   -0.7591 H         1 <0>         0.1340
     32 H9         -1.2865   -2.2144   -2.2762 H         1 <0>         0.1340
     33 H10        -0.8845   -3.6000   -1.2338 H         1 <0>         0.1338
     34 H11        -1.1906   -2.1099    0.7712 H         1 <0>         0.0938
     35 H12        -1.7338   -0.8152   -0.3228 H         1 <0>         0.0953
     36 H13        -3.8515   -0.9914   -1.5013 H         1 <0>         0.1234
     37 H14        -6.1215   -1.9455   -1.5031 H         1 <0>         0.1293
     38 H15        -6.6080   -3.9682   -0.1859 H         1 <0>         0.1296
     39 H16        -4.8242   -5.0373    1.1326 H         1 <0>         0.1293
     40 H17        -2.5522   -4.0881    1.1278 H         1 <0>         0.1236
     41 H18         2.8309   -1.1723   -2.1566 H         1 <0>         0.0944
     42 H19         3.2447   -2.6466   -1.2441 H         1 <0>         0.0924
     43 H20         3.2032   -2.2902   -4.2691 H         1 <0>         0.0891
     44 H21         4.6191   -2.6055   -3.2423 H         1 <0>         0.0953
     45 H22         1.3212   -6.8249   -2.6121 H         1 <0>         0.1287
     46 H23         2.8959   -8.0784   -4.0194 H         1 <0>         0.1355
     47 H24         4.7668   -6.9060   -5.1155 H         1 <0>         0.1369
     48 H25         6.0632   -4.3085   -4.3930 H         1 <0>         0.3953
     49 H26         1.5412   -4.4440   -0.9749 H         1 <0>         0.0972
     50 H27         0.2976   -4.6103   -2.2335 H         1 <0>         0.0996
     51 H28         0.9005   -2.2543   -0.3198 H         1 <0>         0.4223
@<TRIPOS>BOND
     1    1    2 1
     2    1   25 1
     3    1   26 1
     4    1   27 1
     5    2    3 1
     6    2   28 1
     7    2   29 1
     8    3    4 1
     9    3   30 1
    10    3   31 1
    11    4    5 1
    12    4   13 1
    13    4   51 1
    14    5    6 1
    15    5   32 1
    16    5   33 1
    17    6    7 1
    18    6   34 1
    19    6   35 1
    20    7   12 ar
    21    7    8 ar
    22    8    9 ar
    23    8   36 1
    24    9   10 ar
    25    9   37 1
    26   10   11 ar
    27   10   38 1
    28   11   12 ar
    29   11   39 1
    30   12   40 1
    31   13   14 1
    32   13   24 1
    33   13   15 1
    34   15   16 1
    35   15   41 1
    36   15   42 1
    37   16   17 1
    38   16   43 1
    39   16   44 1
    40   17   22 ar
    41   17   18 ar
    42   18   19 ar
    43   18   24 1
    44   19   20 ar
    45   19   45 1
    46   20   21 ar
    47   20   46 1
    48   21   22 ar
    49   21   47 1
    50   22   23 1
    51   23   48 1
    52   24   49 1
    53   24   50 1
@<TRIPOS>MOLECULE
ZINC02169418
   51    53     0     0     0
SMALL
USER_CHARGES

@<TRIPOS>ATOM
      1 C1         -0.1570    1.5040   -0.0065 C.3       1 <0>        -0.1558
      2 C2         -0.1131   -0.0252   -0.0294 C.3       1 <0>        -0.1485
      3 C3          0.6431   -0.4951   -1.2737 C.3       1 <0>        -0.0231
      4 N1          0.8044   -1.9545   -1.2266 N.4       1 <0>        -0.3815
      5 C4         -0.5154   -2.5956   -1.2986 C.3       1 <0>        -0.0142
      6 C5         -1.1513   -2.3024   -2.6589 C.3       1 <0>        -0.0995
      7 C6         -2.5572   -2.8446   -2.6836 C.ar      1 <0>        -0.1068
      8 C7         -2.7912   -4.1397   -3.1064 C.ar      1 <0>        -0.1099
      9 C8         -4.0807   -4.6371   -3.1290 C.ar      1 <0>        -0.1131
     10 C9         -5.1363   -3.8394   -2.7283 C.ar      1 <0>        -0.1045
     11 C10        -4.9022   -2.5446   -2.3046 C.ar      1 <0>        -0.1133
     12 C11        -3.6121   -2.0487   -2.2780 C.ar      1 <0>        -0.1110
     13 C12         1.6246   -2.3934   -2.3635 C.3       1 <0>         0.0189
     14 H1          1.1134   -2.1588   -3.2971 H         1 <0>         0.1441
     15 C13         1.8663   -3.9047   -2.2728 C.3       1 <0>        -0.1380
     16 C14         2.5094   -4.3686   -3.5782 C.3       1 <0>        -0.0721
     17 C15         3.7047   -3.5150   -3.9122 C.ar      1 <0>        -0.1100
     18 C16         3.9158   -2.2801   -3.3428 C.ar      1 <0>        -0.0758
     19 C17         5.0353   -1.5394   -3.7004 C.ar      1 <0>        -0.1203
     20 C18         5.9413   -2.0317   -4.6175 C.ar      1 <0>        -0.0943
     21 C19         5.7364   -3.2728   -5.1880 C.ar      1 <0>        -0.1328
     22 C20         4.6204   -4.0137   -4.8367 C.ar      1 <0>         0.1139
     23 O1          4.4168   -5.2348   -5.3974 O.3       1 <0>        -0.4943
     24 C21         2.9772   -1.6850   -2.3257 C.3       1 <0>        -0.0918
     25 H2          0.8596    1.8964    0.0164 H         1 <0>         0.0669
     26 H3         -0.6663    1.8663   -0.8995 H         1 <0>         0.0668
     27 H4         -0.6957    1.8388    0.8800 H         1 <0>         0.0774
     28 H5          0.3962   -0.3874    0.8637 H         1 <0>         0.0854
     29 H6         -1.1298   -0.4176   -0.0523 H         1 <0>         0.0867
     30 H7          0.0806   -0.2203   -2.1660 H         1 <0>         0.1320
     31 H8          1.6245   -0.0218   -1.3028 H         1 <0>         0.1335
     32 H9         -0.4033   -3.6727   -1.1745 H         1 <0>         0.1341
     33 H10        -1.1536   -2.2031   -0.5070 H         1 <0>         0.1358
     34 H11        -1.1743   -1.2253   -2.8247 H         1 <0>         0.0938
     35 H12        -0.5645   -2.7784   -3.4445 H         1 <0>         0.0952
     36 H13        -1.9665   -4.7629   -3.4194 H         1 <0>         0.1234
     37 H14        -4.2636   -5.6487   -3.4600 H         1 <0>         0.1294
     38 H15        -6.1439   -4.2278   -2.7467 H         1 <0>         0.1296
     39 H16        -5.7269   -1.9213   -1.9919 H         1 <0>         0.1292
     40 H17        -3.4288   -1.0383   -1.9434 H         1 <0>         0.1226
     41 H18         2.5331   -4.1205   -1.4380 H         1 <0>         0.0933
     42 H19         0.9169   -4.4203   -2.1278 H         1 <0>         0.0937
     43 H20         2.8266   -5.4062   -3.4738 H         1 <0>         0.1023
     44 H21         1.7793   -4.2959   -4.3843 H         1 <0>         0.0849
     45 H22         5.1980   -0.5685   -3.2564 H         1 <0>         0.1287
     46 H23         6.8084   -1.4477   -4.8889 H         1 <0>         0.1355
     47 H24         6.4431   -3.6637   -5.9050 H         1 <0>         0.1368
     48 H25         3.9013   -5.2111   -6.2152 H         1 <0>         0.3956
     49 H26         2.8347   -0.6265   -2.5431 H         1 <0>         0.1001
     50 H27         3.4111   -1.7918   -1.3315 H         1 <0>         0.0973
     51 H28         1.2583   -2.2150   -0.3640 H         1 <0>         0.4235
@<TRIPOS>BOND
     1    1    2 1
     2    1   25 1
     3    1   26 1
     4    1   27 1
     5    2    3 1
     6    2   28 1
     7    2   29 1
     8    3    4 1
     9    3   30 1
    10    3   31 1
    11    4    5 1
    12    4   13 1
    13    4   51 1
    14    5    6 1
    15    5   32 1
    16    5   33 1
    17    6    7 1
    18    6   34 1
    19    6   35 1
    20    7   12 ar
    21    7    8 ar
    22    8    9 ar
    23    8   36 1
    24    9   10 ar
    25    9   37 1
    26   10   11 ar
    27   10   38 1
    28   11   12 ar
    29   11   39 1
    30   12   40 1
    31   13   14 1
    32   13   24 1
    33   13   15 1
    34   15   16 1
    35   15   41 1
    36   15   42 1
    37   16   17 1
    38   16   43 1
    39   16   44 1
    40   17   22 ar
    41   17   18 ar
    42   18   19 ar
    43   18   24 1
    44   19   20 ar
    45   19   45 1
    46   20   21 ar
    47   20   46 1
    48   21   22 ar
    49   21   47 1
    50   22   23 1
    51   23   48 1
    52   24   49 1
    53   24   50 1
@<TRIPOS>MOLECULE
ZINC01851149
   58    61     0     0     0
SMALL
USER_CHARGES

@<TRIPOS>ATOM
      1 C1         -0.0167    1.3781    0.0096 C.ar      1 <0>        -0.0896
      2 C2          1.1690    2.0873    0.0021 C.ar      1 <0>        -0.1006
      3 C3          2.3816    1.4109   -0.0131 C.ar      1 <0>         0.1668
      4 C4          2.3986    0.0211   -0.0208 C.ar      1 <0>        -0.0379
      5 C5          1.2084   -0.6828   -0.0132 C.ar      1 <0>        -0.0271
      6 C6          0.0021   -0.0041    0.0020 C.ar      1 <0>        -0.0892
      7 Cl1         1.2271   -2.4187   -0.0233 Cl        1 <0>        -0.0322
      8 Cl2         3.9117   -0.8297   -0.0404 Cl        1 <0>        -0.0503
      9 N1          3.5822    2.1260   -0.0212 N.pl3     1 <0>        -0.6733
     10 C7          4.2166    2.5248   -1.2872 C.3       1 <0>         0.1212
     11 C8          5.6874    2.0967   -1.2494 C.3       1 <0>        -0.0255
     12 N2          6.3270    2.6517   -0.0498 N.4       1 <0>        -0.3792
     13 C9          5.7166    2.0749    1.1547 C.3       1 <0>        -0.0318
     14 C10         4.2444    2.5067    1.2361 C.3       1 <0>         0.1223
     15 C11         7.7610    2.3338   -0.0701 C.3       1 <0>        -0.0093
     16 C12         8.4515    3.0158    1.1127 C.3       1 <0>        -0.1453
     17 C13         9.9450    2.6847    1.0915 C.3       1 <0>        -0.1184
     18 C14        10.6355    3.3667    2.2743 C.3       1 <0>         0.0595
     19 O1         12.0305    3.0574    2.2545 O.3       1 <0>        -0.3124
     20 C15        12.7944    3.5890    3.2448 C.ar      1 <0>         0.1559
     21 C16        12.2111    4.3876    4.2189 C.ar      1 <0>        -0.2294
     22 C17        12.9865    4.9295    5.2261 C.ar      1 <0>        -0.0411
     23 C18        14.3441    4.6777    5.2669 C.ar      1 <0>        -0.1551
     24 C19        14.9331    3.8788    4.2952 C.ar      1 <0>         0.2059
     25 C20        14.1552    3.3295    3.2858 C.ar      1 <0>        -0.1852
     26 N3         16.3074    3.6248    4.3397 N.am      1 <0>        -0.6651
     27 C21        17.0003    3.8176    5.4770 C.2       1 <0>         0.5216
     28 O2         18.1945    3.6066    5.4945 O.2       1 <0>        -0.5157
     29 C22        16.3105    4.2925    6.7275 C.3       1 <0>        -0.1402
     30 C23        15.1900    5.2680    6.3653 C.3       1 <0>        -0.0752
     31 H1         -0.9596    1.9044    0.0260 H         1 <0>         0.1477
     32 H2          1.1527    3.1672    0.0077 H         1 <0>         0.1420
     33 H3         -0.9265   -0.5556    0.0083 H         1 <0>         0.1502
     34 H4          3.7134    2.0333   -2.1198 H         1 <0>         0.1171
     35 H5          4.1529    3.6066   -1.4040 H         1 <0>         0.0851
     36 H6          5.7487    1.0088   -1.2236 H         1 <0>         0.1293
     37 H7          6.1971    2.4687   -2.1381 H         1 <0>         0.1401
     38 H8          5.7771    0.9876    1.1077 H         1 <0>         0.1300
     39 H9          6.2479    2.4307    2.0374 H         1 <0>         0.1398
     40 H10         4.1834    3.5868    1.3697 H         1 <0>         0.0853
     41 H11         3.7595    2.0032    2.0724 H         1 <0>         0.1165
     42 H12         7.8950    1.2546    0.0040 H         1 <0>         0.1305
     43 H13         8.1993    2.6912   -1.0020 H         1 <0>         0.1352
     44 H14         8.3175    4.0950    1.0386 H         1 <0>         0.0923
     45 H15         8.0132    2.6584    2.0445 H         1 <0>         0.0907
     46 H16        10.0790    1.6055    1.1656 H         1 <0>         0.0866
     47 H17        10.3833    3.0420    0.1597 H         1 <0>         0.0875
     48 H18        10.5015    4.4459    2.2002 H         1 <0>         0.0675
     49 H19        10.1972    3.0093    3.2062 H         1 <0>         0.0669
     50 H20        11.1499    4.5859    4.1893 H         1 <0>         0.1286
     51 H21        12.5305    5.5511    5.9824 H         1 <0>         0.1354
     52 H22        14.6099    2.7045    2.5314 H         1 <0>         0.1380
     53 H23        16.7645    3.3072    3.5453 H         1 <0>         0.4136
     54 H24        15.8894    3.4371    7.2558 H         1 <0>         0.1060
     55 H25        17.0331    4.7940    7.3713 H         1 <0>         0.1134
     56 H26        15.6229    6.2086    6.0246 H         1 <0>         0.0845
     57 H27        14.5699    5.4506    7.2429 H         1 <0>         0.0936
     58 H28         6.2073    3.6535   -0.0392 H         1 <0>         0.4226
@<TRIPOS>BOND
     1    1    6 ar
     2    1    2 ar
     3    1   31 1
     4    2    3 ar
     5    2   32 1
     6    3    4 ar
     7    3    9 1
     8    4    5 ar
     9    4    8 1
    10    5    6 ar
    11    5    7 1
    12    6   33 1
    13    9   14 1
    14    9   10 1
    15   10   11 1
    16   10   34 1
    17   10   35 1
    18   11   12 1
    19   11   36 1
    20   11   37 1
    21   12   13 1
    22   12   15 1
    23   12   58 1
    24   13   14 1
    25   13   38 1
    26   13   39 1
    27   14   40 1
    28   14   41 1
    29   15   16 1
    30   15   42 1
    31   15   43 1
    32   16   17 1
    33   16   44 1
    34   16   45 1
    35   17   18 1
    36   17   46 1
    37   17   47 1
    38   18   19 1
    39   18   48 1
    40   18   49 1
    41   19   20 1
    42   20   25 ar
    43   20   21 ar
    44   21   22 ar
    45   21   50 1
    46   22   23 ar
    47   22   51 1
    48   23   30 1
    49   23   24 ar
    50   24   25 ar
    51   24   26 1
    52   25   52 1
    53   26   27 am
    54   26   53 1
    55   27   28 2
    56   27   29 1
    57   29   30 1
    58   29   54 1
    59   29   55 1
    60   30   56 1
    61   30   57 1
@<TRIPOS>MOLECULE
ZINC01851149
   57    60     0     0     0
SMALL
USER_CHARGES

@<TRIPOS>ATOM
      1 C1         -0.0167    1.3781    0.0096 C.ar      1 <0>        -0.0962
      2 C2          1.1690    2.0873    0.0021 C.ar      1 <0>        -0.1094
      3 C3          2.3816    1.4109   -0.0131 C.ar      1 <0>         0.1932
      4 C4          2.3986    0.0211   -0.0208 C.ar      1 <0>        -0.0428
      5 C5          1.2084   -0.6828   -0.0132 C.ar      1 <0>        -0.0286
      6 C6          0.0021   -0.0041    0.0020 C.ar      1 <0>        -0.1045
      7 Cl1         1.2271   -2.4187   -0.0233 Cl        1 <0>        -0.0488
      8 Cl2         3.9117   -0.8297   -0.0404 Cl        1 <0>        -0.0433
      9 N1          3.5822    2.1260   -0.0212 N.pl3     1 <0>        -0.6753
     10 C7          4.2154    2.5239   -1.2877 C.3       1 <0>         0.1522
     11 C8          5.6814    2.0786   -1.2601 C.3       1 <0>         0.0390
     12 N2          6.3271    2.6054   -0.0504 N.3       1 <0>        -0.5335
     13 C9          5.7110    2.0562    1.1648 C.3       1 <0>         0.0352
     14 C10         4.2431    2.5059    1.2366 C.3       1 <0>         0.1520
     15 C11         7.7731    2.3471   -0.0705 C.3       1 <0>         0.0570
     16 C12         8.4448    3.1181    1.0676 C.3       1 <0>        -0.1122
     17 C13         9.9508    2.8491    1.0467 C.3       1 <0>        -0.1185
     18 C14        10.6225    3.6201    2.1847 C.3       1 <0>         0.0609
     19 O1         12.0291    3.3688    2.1652 O.3       1 <0>        -0.3131
     20 C15        12.7788    3.9828    3.1179 C.ar      1 <0>         0.1632
     21 C16        12.1712    4.8060    4.0560 C.ar      1 <0>        -0.2281
     22 C17        12.9321    5.4316    5.0250 C.ar      1 <0>        -0.0412
     23 C18        14.2995    5.2392    5.0634 C.ar      1 <0>        -0.1625
     24 C19        14.9129    4.4161    4.1277 C.ar      1 <0>         0.2001
     25 C20        14.1497    3.7829    3.1569 C.ar      1 <0>        -0.1880
     26 N3         16.2971    4.2225    4.1697 N.am      1 <0>        -0.6633
     27 C21        16.9915    4.5031    5.2876 C.2       1 <0>         0.5225
     28 O2         18.1937    4.3433    5.3024 O.2       1 <0>        -0.5237
     29 C22        16.2937    5.0132    6.5196 C.3       1 <0>        -0.1395
     30 C23        15.1296    5.9209    6.1201 C.3       1 <0>        -0.0723
     31 H1         -0.9596    1.9044    0.0260 H         1 <0>         0.1404
     32 H2          1.1527    3.1672    0.0077 H         1 <0>         0.1387
     33 H3         -0.9265   -0.5556    0.0083 H         1 <0>         0.1426
     34 H4          3.7022    2.0431   -2.1205 H         1 <0>         0.0715
     35 H5          4.1638    3.6071   -1.3984 H         1 <0>         0.0629
     36 H6          5.7306    0.9897   -1.2538 H         1 <0>         0.0403
     37 H7          6.1944    2.4613   -2.1423 H         1 <0>         0.0804
     38 H8          5.7599    0.9676    1.1373 H         1 <0>         0.0406
     39 H9          6.2457    2.4226    2.0412 H         1 <0>         0.0819
     40 H10         4.1941    3.5874    1.3639 H         1 <0>         0.0629
     41 H11         3.7483    2.0131    2.0736 H         1 <0>         0.0709
     42 H12         7.9533    1.2798    0.0578 H         1 <0>         0.0339
     43 H13         8.1873    2.6734   -1.0245 H         1 <0>         0.0769
     44 H14         8.2646    4.1855    0.9393 H         1 <0>         0.0762
     45 H15         8.0306    2.7918    2.0216 H         1 <0>         0.0660
     46 H16        10.1310    1.7817    1.1750 H         1 <0>         0.0732
     47 H17        10.3650    3.1754    0.0927 H         1 <0>         0.0761
     48 H18        10.4423    4.6874    2.0565 H         1 <0>         0.0659
     49 H19        10.2083    3.2938    3.1387 H         1 <0>         0.0641
     50 H20        11.1023    4.9580    4.0282 H         1 <0>         0.1320
     51 H21        12.4571    6.0722    5.7533 H         1 <0>         0.1337
     52 H22        14.6236    3.1389    2.4308 H         1 <0>         0.1367
     53 H23        16.7599    3.8832    3.3877 H         1 <0>         0.4126
     54 H24        15.9140    4.1697    7.0961 H         1 <0>         0.1050
     55 H25        17.0002    5.5774    7.1284 H         1 <0>         0.1106
     56 H26        15.5192    6.8597    5.7264 H         1 <0>         0.0818
     57 H27        14.5104    6.1229    6.9941 H         1 <0>         0.0917
@<TRIPOS>BOND
     1    1    6 ar
     2    1    2 ar
     3    1   31 1
     4    2    3 ar
     5    2   32 1
     6    3    4 ar
     7    3    9 1
     8    4    5 ar
     9    4    8 1
    10    5    6 ar
    11    5    7 1
    12    6   33 1
    13    9   14 1
    14    9   10 1
    15   10   11 1
    16   10   34 1
    17   10   35 1
    18   11   12 1
    19   11   36 1
    20   11   37 1
    21   12   13 1
    22   12   15 1
    23   13   14 1
    24   13   38 1
    25   13   39 1
    26   14   40 1
    27   14   41 1
    28   15   16 1
    29   15   42 1
    30   15   43 1
    31   16   17 1
    32   16   44 1
    33   16   45 1
    34   17   18 1
    35   17   46 1
    36   17   47 1
    37   18   19 1
    38   18   48 1
    39   18   49 1
    40   19   20 1
    41   20   25 ar
    42   20   21 ar
    43   21   22 ar
    44   21   50 1
    45   22   23 ar
    46   22   51 1
    47   23   30 1
    48   23   24 ar
    49   24   25 ar
    50   24   26 1
    51   25   52 1
    52   26   27 am
    53   26   53 1
    54   27   28 2
    55   27   29 1
    56   29   30 1
    57   29   54 1
    58   29   55 1
    59   30   56 1
    60   30   57 1
@<TRIPOS>MOLECULE
ZINC01640539
   54    58     0     0     0
SMALL
USER_CHARGES
8-(benzothiophen-3-ylmethyl)-3-methyl-1-phenyl-1,3,8-triazaspiro[4.5]decan-4-one
@<TRIPOS>ATOM
      1 C1          4.8033    5.2887    2.4855 C.3       1 <0>         0.0915
      2 N1          3.7169    5.0562    1.5306 N.am      1 <0>        -0.6138
      3 C2          3.0521    3.7669    1.3018 C.3       1 <0>         0.2399
      4 N2          2.3532    3.8878    0.0009 N.pl3     1 <0>        -0.4405
      5 C3          2.1010    5.3397   -0.1092 C.3       1 <0>         0.0528
      6 C4          3.1737    5.9941    0.7261 C.2       1 <0>         0.5255
      7 O1          3.4932    7.1632    0.6823 O.2       1 <0>        -0.5127
      8 C5          0.7176    5.6756    0.4412 C.3       1 <0>        -0.1630
      9 C6          0.4583    7.1759    0.2779 C.3       1 <0>        -0.0165
     10 C7          1.9072    7.2804   -1.6636 C.3       1 <0>        -0.0147
     11 C8          2.2145    5.7835   -1.5651 C.3       1 <0>        -0.1193
     12 C9          0.1704    8.9387   -1.3563 C.3       1 <0>         0.0630
     13 C10        -1.2927    9.1085   -1.0374 C.2       1 <0>        -0.1831
     14 C11        -2.2006    9.1464   -2.0232 C.2       1 <0>        -0.1094
     15 S1         -3.7460    9.3526   -1.1590 S.3       1 <0>         0.1055
     16 C12        -3.1283    9.3920    0.5037 C.ar      1 <0>        -0.1170
     17 C13        -1.7338    9.2391    0.3435 C.ar      1 <0>        -0.0960
     18 C14        -0.9570    9.2329    1.5259 C.ar      1 <0>        -0.1041
     19 C15        -1.5450    9.3689    2.7444 C.ar      1 <0>        -0.1040
     20 C16        -2.9190    9.5175    2.8748 C.ar      1 <0>        -0.0828
     21 C17        -3.7124    9.5286    1.7445 C.ar      1 <0>        -0.0649
     22 C18         1.1546    3.1707    0.0081 C.ar      1 <0>         0.0817
     23 C19         0.2688    3.2849   -1.0559 C.ar      1 <0>        -0.1416
     24 C20        -0.9152    2.5740   -1.0458 C.ar      1 <0>        -0.0944
     25 C21        -1.2220    1.7538    0.0244 C.ar      1 <0>        -0.1243
     26 C22        -0.3398    1.6335    1.0825 C.ar      1 <0>        -0.0844
     27 C23         0.8459    2.3414    1.0789 C.ar      1 <0>        -0.1597
     28 H1          5.1047    6.3354    2.4452 H         1 <0>         0.0920
     29 H2          4.4604    5.0479    3.4917 H         1 <0>         0.0744
     30 H3          5.6532    4.6558    2.2301 H         1 <0>         0.0762
     31 H4          2.3328    3.5699    2.0968 H         1 <0>         0.0836
     32 H5          3.7910    2.9668    1.2574 H         1 <0>         0.1155
     33 H6         -0.0384    5.1139   -0.1074 H         1 <0>         0.1186
     34 H7          0.6724    5.4115    1.4977 H         1 <0>         0.1123
     35 H8          1.1978    7.7368    0.8494 H         1 <0>         0.1364
     36 H9         -0.5405    7.4140    0.6437 H         1 <0>         0.1455
     37 H10         2.6367    7.8404   -1.0785 H         1 <0>         0.1534
     38 H11         1.9595    7.5943   -2.7061 H         1 <0>         0.1369
     39 H12         3.2261    5.5953   -1.9250 H         1 <0>         0.1239
     40 H13         1.5021    5.2251   -2.1723 H         1 <0>         0.1027
     41 H14         0.7612    9.5835   -0.7058 H         1 <0>         0.1381
     42 H15         0.3494    9.2100   -2.3967 H         1 <0>         0.1399
     43 H16        -2.0352    9.0685   -3.0877 H         1 <0>         0.2021
     44 H17         0.1150    9.1192    1.4599 H         1 <0>         0.1246
     45 H18        -0.9287    9.3608    3.6313 H         1 <0>         0.1356
     46 H19        -3.3643    9.6240    3.8530 H         1 <0>         0.1443
     47 H20        -4.7827    9.6431    1.8323 H         1 <0>         0.1411
     48 H21         0.5059    3.9285   -1.8901 H         1 <0>         0.1255
     49 H22        -1.6044    2.6623   -1.8727 H         1 <0>         0.1317
     50 H23        -2.1508    1.2027    0.0320 H         1 <0>         0.1307
     51 H24        -0.5806    0.9888    1.9149 H         1 <0>         0.1324
     52 H25         1.5323    2.2507    1.9078 H         1 <0>         0.1343
     53 N3          0.5387    7.5218   -1.1576 N.4       1 <0>        -0.3876
     54 H26        -0.1183    6.9303   -1.6797 H         1 <0>         0.4222
@<TRIPOS>BOND
     1    1    2 1
     2    1   28 1
     3    1   29 1
     4    1   30 1
     5    2    6 am
     6    2    3 1
     7    3    4 1
     8    3   31 1
     9    3   32 1
    10    4    5 1
    11    4   22 1
    12    5   11 1
    13    5    6 1
    14    5    8 1
    15    6    7 2
    16    8    9 1
    17    8   33 1
    18    8   34 1
    19    9   35 1
    20    9   36 1
    21    9   53 1
    22   10   11 1
    23   10   37 1
    24   10   38 1
    25   10   53 1
    26   11   39 1
    27   11   40 1
    28   12   13 1
    29   12   41 1
    30   12   42 1
    31   12   53 1
    32   13   17 1
    33   13   14 2
    34   14   15 1
    35   14   43 1
    36   15   16 1
    37   16   21 ar
    38   16   17 ar
    39   17   18 ar
    40   18   19 ar
    41   18   44 1
    42   19   20 ar
    43   19   45 1
    44   20   21 ar
    45   20   46 1
    46   21   47 1
    47   22   27 ar
    48   22   23 ar
    49   23   24 ar
    50   23   48 1
    51   24   25 ar
    52   24   49 1
    53   25   26 ar
    54   25   50 1
    55   26   27 ar
    56   26   51 1
    57   27   52 1
    58   53   54 1
@<TRIPOS>MOLECULE
ZINC23282651
   46    49     0     0     0
SMALL
USER_CHARGES
4-(4-bromophenyl)-1-(1H-indol-3-ylmethyl)piperidin-4-ol
@<TRIPOS>ATOM
      1 C1         -3.6682    0.3380    5.1309 C.ar      1 <0>        -0.1217
      2 C2         -3.8390    1.2807    6.1358 C.ar      1 <0>        -0.0924
      3 C3         -2.9642    2.3370    6.2643 C.ar      1 <0>        -0.1143
      4 C4         -1.8980    2.4628    5.3794 C.ar      1 <0>         0.0875
      5 C5         -1.7294    1.5050    4.3630 C.ar      1 <0>        -0.0993
      6 C6         -2.6283    0.4425    4.2509 C.ar      1 <0>        -0.0989
      7 C7         -0.5382    1.9140    3.6150 C.2       1 <0>        -0.2670
      8 C8         -0.0759    3.0331    4.1946 C.2       1 <0>         0.1342
      9 N1         -0.8789    3.3791    5.2472 N.pl3     1 <0>        -0.5926
     10 H1         -0.8113    4.2304    5.9405 H         1 <0>         0.4586
     11 C9          0.0589    1.2086    2.4247 C.3       1 <0>         0.0881
     12 N2         -0.6996    1.5592    1.2165 N.4       1 <0>        -0.3943
     13 C10        -0.0127    1.0858    0.0080 C.3       1 <0>        -0.0016
     14 C11        -0.7525    1.5926   -1.2322 C.3       1 <0>        -0.1336
     15 C12        -2.1941    1.0772   -1.2067 C.3       1 <0>         0.1848
     16 C13        -2.8718    1.5436    0.0848 C.3       1 <0>        -0.1679
     17 C14        -2.0706    1.0383    1.2868 C.3       1 <0>        -0.0076
     18 C15        -2.9443    1.6207   -2.3953 C.ar      1 <0>        -0.1101
     19 C16        -2.6041    2.8523   -2.9229 C.ar      1 <0>        -0.1100
     20 C17        -3.2887    3.3491   -4.0161 C.ar      1 <0>        -0.0848
     21 C18        -4.3214    2.6183   -4.5755 C.ar      1 <0>        -0.0834
     22 C19        -4.6649    1.3884   -4.0440 C.ar      1 <0>        -0.0828
     23 C20        -3.9763    0.8901   -2.9541 C.ar      1 <0>        -0.0997
     24 Br1        -5.2628    3.3004   -6.0670 Br        1 <0>        -0.0321
     25 O1         -2.1916   -0.3510   -1.2558 O.3       1 <0>        -0.5773
     26 H2         -4.3632   -0.4840    5.0438 H         1 <0>         0.1302
     27 H3         -4.6662    1.1850    6.8235 H         1 <0>         0.1342
     28 H4         -3.1058    3.0653    7.0491 H         1 <0>         0.1288
     29 H5         -2.5019   -0.2944    3.4715 H         1 <0>         0.1202
     30 H6          0.7989    3.5805    3.8760 H         1 <0>         0.1793
     31 H7          1.1071    1.5189    2.3025 H         1 <0>         0.1335
     32 H8          0.0145    0.1209    2.5828 H         1 <0>         0.1287
     33 H9          1.0193    1.4664   -0.0000 H         1 <0>         0.1318
     34 H10         0.0021   -0.0141    0.0017 H         1 <0>         0.1346
     35 H11        -0.7545    2.6926   -1.2340 H         1 <0>         0.1030
     36 H12        -0.2459    1.2254   -2.1369 H         1 <0>         0.1210
     37 H13        -2.9093    2.6428    0.1029 H         1 <0>         0.0957
     38 H14        -3.8946    1.1410    0.1283 H         1 <0>         0.1129
     39 H15        -2.0461   -0.0614    1.2745 H         1 <0>         0.1283
     40 H16        -2.5470    1.3840    2.2160 H         1 <0>         0.1398
     41 H17        -1.8005    3.4246   -2.4835 H         1 <0>         0.1321
     42 H18        -3.0200    4.3093   -4.4310 H         1 <0>         0.1386
     43 H19        -5.4709    0.8174   -4.4807 H         1 <0>         0.1394
     44 H20        -4.2442   -0.0704   -2.5392 H         1 <0>         0.1316
     45 H21        -3.1428   -0.9033   -1.2463 H         1 <0>         0.4209
     46 H22        -0.7603    2.6560    1.1594 H         1 <0>         0.4336
@<TRIPOS>BOND
     1    1    6 ar
     2    1    2 ar
     3    1   26 1
     4    2    3 ar
     5    2   27 1
     6    3    4 ar
     7    3   28 1
     8    4    9 1
     9    4    5 ar
    10    5    6 ar
    11    5    7 1
    12    6   29 1
    13    7    8 2
    14    7   11 1
    15    8    9 1
    16    8   30 1
    17    9   10 1
    18   11   12 1
    19   11   31 1
    20   11   32 1
    21   12   17 1
    22   12   13 1
    23   12   46 1
    24   13   14 1
    25   13   33 1
    26   13   34 1
    27   14   15 1
    28   14   35 1
    29   14   36 1
    30   15   16 1
    31   15   18 1
    32   15   25 1
    33   16   17 1
    34   16   37 1
    35   16   38 1
    36   17   39 1
    37   17   40 1
    38   18   23 ar
    39   18   19 ar
    40   19   20 ar
    41   19   41 1
    42   20   21 ar
    43   20   42 1
    44   21   22 ar
    45   21   24 1
    46   22   23 ar
    47   22   43 1
    48   23   44 1
    49   25   45 1
@<TRIPOS>MOLECULE
ZINC01530688
   45    48     0     0     0
SMALL
USER_CHARGES

@<TRIPOS>ATOM
      1 C1         -4.7096    1.3430    2.2454 C.3       1 <0>        -0.0476
      2 N1         -4.6828   -0.1254    2.2123 N.4       1 <0>        -0.5103
      3 C2         -3.7697   -0.5747    1.1528 C.3       1 <0>        -0.0122
      4 C3         -3.7417   -2.1040    1.1183 C.3       1 <0>        -0.1635
      5 C4         -2.7907   -2.5720    0.0149 C.3       1 <0>        -0.0969
      6 C5         -2.6597   -4.0954    0.0667 C.3       1 <0>         0.0263
      7 C6         -4.0215   -4.8232    0.0106 C.3       1 <0>        -0.1040
      8 C7         -3.8423   -6.3391    0.0533 C.3       1 <0>        -0.1129
      9 C8         -2.3488   -6.7253    0.1407 C.3       1 <0>        -0.0103
     10 C9         -1.6882   -6.0486   -1.0501 C.ar      1 <0>        -0.0804
     11 C10        -1.8517   -4.6645   -1.0890 C.ar      1 <0>        -0.0813
     12 C11        -1.3264   -3.9281   -2.1114 C.ar      1 <0>        -0.1094
     13 C12        -0.6062   -4.5800   -3.1047 C.ar      1 <0>        -0.1189
     14 C13        -0.4268   -5.9496   -3.0553 C.ar      1 <0>        -0.1139
     15 C14        -0.9845   -6.6958   -2.0246 C.ar      1 <0>        -0.1023
     16 C15        -1.8144   -5.9955    1.3627 C.ar      1 <0>        -0.0777
     17 C16        -1.9635   -4.5918    1.3239 C.ar      1 <0>        -0.0757
     18 C17        -1.5329   -3.7937    2.3445 C.ar      1 <0>        -0.1206
     19 C18        -0.9095   -4.3826    3.4374 C.ar      1 <0>        -0.1235
     20 C19        -0.7301   -5.7522    3.4874 C.ar      1 <0>        -0.1148
     21 C20        -1.2169   -6.5979    2.4324 C.ar      1 <0>        -0.1003
     22 H1         -5.3871    1.6763    3.0315 H         1 <0>         0.1266
     23 H2         -3.7068    1.7202    2.4459 H         1 <0>         0.1236
     24 H3         -5.0547    1.7219    1.2835 H         1 <0>         0.1237
     25 H4         -4.3633   -0.4762    3.1027 H         1 <0>         0.4303
     26 H5         -4.1148   -0.1957    0.1909 H         1 <0>         0.1331
     27 H6         -2.7669   -0.1974    1.3534 H         1 <0>         0.1321
     28 H7         -3.3966   -2.4829    2.0803 H         1 <0>         0.0978
     29 H8         -4.7445   -2.4813    0.9178 H         1 <0>         0.0924
     30 H9         -3.1863   -2.2741   -0.9562 H         1 <0>         0.0849
     31 H10        -1.8110   -2.1178    0.1629 H         1 <0>         0.0828
     32 H11        -4.6281   -4.5114    0.8609 H         1 <0>         0.0659
     33 H12        -4.5344   -4.5501   -0.9116 H         1 <0>         0.0712
     34 H13        -4.3652   -6.7360    0.9235 H         1 <0>         0.0720
     35 H14        -4.2715   -6.7748   -0.8490 H         1 <0>         0.0737
     36 H15        -2.1865   -7.8028    0.1645 H         1 <0>         0.1072
     37 H16        -1.4684   -2.8581   -2.1478 H         1 <0>         0.1223
     38 H17        -0.1840   -4.0128   -3.9210 H         1 <0>         0.1245
     39 H18         0.1348   -6.4454   -3.8333 H         1 <0>         0.1261
     40 H19        -0.8596   -7.7681   -1.9924 H         1 <0>         0.1279
     41 H20        -1.6741   -2.7238    2.3027 H         1 <0>         0.1202
     42 H21        -0.5623   -3.7660    4.2534 H         1 <0>         0.1230
     43 H22        -0.2442   -6.1987    4.3423 H         1 <0>         0.1258
     44 H23        -1.0918   -7.6703    2.4602 H         1 <0>         0.1327
     45 H24        -5.6110   -0.4746    2.0266 H         1 <0>         0.4305
@<TRIPOS>BOND
     1    1    2 1
     2    1   22 1
     3    1   23 1
     4    1   24 1
     5    2    3 1
     6    2   25 1
     7    2   45 1
     8    3    4 1
     9    3   26 1
    10    3   27 1
    11    4    5 1
    12    4   28 1
    13    4   29 1
    14    5    6 1
    15    5   30 1
    16    5   31 1
    17    6   11 1
    18    6   17 1
    19    6    7 1
    20    7    8 1
    21    7   32 1
    22    7   33 1
    23    8    9 1
    24    8   34 1
    25    8   35 1
    26    9   10 1
    27    9   16 1
    28    9   36 1
    29   10   15 ar
    30   10   11 ar
    31   11   12 ar
    32   12   13 ar
    33   12   37 1
    34   13   14 ar
    35   13   38 1
    36   14   15 ar
    37   14   39 1
    38   15   40 1
    39   16   21 ar
    40   16   17 ar
    41   17   18 ar
    42   18   19 ar
    43   18   41 1
    44   19   20 ar
    45   19   42 1
    46   20   21 ar
    47   20   43 1
    48   21   44 1
@<TRIPOS>MOLECULE
ZINC02022527
   54    55     0     0     0
SMALL
USER_CHARGES

@<TRIPOS>ATOM
      1 C1         -3.0730    2.2881   -4.2693 C.3       1 <0>        -0.1569
      2 C2         -2.3049    1.5870   -3.1471 C.3       1 <0>        -0.1270
      3 C3         -2.8110    2.0874   -1.7927 C.3       1 <0>        -0.1231
      4 C4         -2.0429    1.3862   -0.6705 C.3       1 <0>        -0.1174
      5 C5         -2.5490    1.8867    0.6839 C.3       1 <0>        -0.1006
      6 C6         -2.2117    3.3722    0.8391 C.3       1 <0>        -0.1451
      7 C7         -2.6658    3.8518    2.2196 C.3       1 <0>        -0.0114
      8 C8         -2.3347    1.6429    3.1595 C.3       1 <0>        -0.0001
      9 C9         -1.8707    1.0973    1.8070 C.3       1 <0>        -0.1442
     10 C10        -2.2939    3.5901    4.5974 C.3       1 <0>        -0.0052
     11 C11        -2.1583    5.1140    4.5919 C.3       1 <0>        -0.1459
     12 C12        -2.4764    5.6593    5.9856 C.3       1 <0>        -0.1543
     13 C13        -2.3428    7.1604    5.9803 C.2       1 <0>         0.3987
     14 O1         -2.0245    7.7371    4.9623 O.2       1 <0>        -0.4456
     15 C14        -2.5986    7.9263    7.2106 C.ar      1 <0>        -0.1885
     16 C15        -3.0878    7.2813    8.3513 C.ar      1 <0>        -0.0705
     17 C16        -3.3195    8.0047    9.5018 C.ar      1 <0>        -0.1389
     18 C17        -3.0801    9.3679    9.5265 C.ar      1 <0>        -0.0729
     19 C18        -2.6016   10.0143    8.4004 C.ar      1 <0>        -0.1345
     20 C19        -2.3594    9.3036    7.2436 C.ar      1 <0>        -0.0178
     21 C20        -1.8387   10.0095    6.0182 C.3       1 <0>        -0.1264
     22 H1         -4.1363    2.0676   -4.1746 H         1 <0>         0.0549
     23 H2         -2.9175    3.3647   -4.1985 H         1 <0>         0.0540
     24 H3         -2.7125    1.9316   -5.2342 H         1 <0>         0.0581
     25 H4         -1.2417    1.8075   -3.2417 H         1 <0>         0.0621
     26 H5         -2.4605    0.5104   -3.2179 H         1 <0>         0.0631
     27 H6         -3.8743    1.8669   -1.6981 H         1 <0>         0.0644
     28 H7         -2.6555    3.1639   -1.7219 H         1 <0>         0.0632
     29 H8         -2.1984    0.3097   -0.7413 H         1 <0>         0.0733
     30 H9         -0.9796    1.6067   -0.7651 H         1 <0>         0.0688
     31 H10        -3.6287    1.7492    0.7427 H         1 <0>         0.0884
     32 H11        -1.1354    3.5132    0.7407 H         1 <0>         0.0881
     33 H12        -2.7264    3.9447    0.0675 H         1 <0>         0.1133
     34 H13        -3.7442    3.7233    2.3122 H         1 <0>         0.1295
     35 H14        -2.4142    4.9057    2.3388 H         1 <0>         0.1342
     36 H15        -3.4146    1.5248    3.2476 H         1 <0>         0.1293
     37 H16        -1.8426    1.0924    3.9613 H         1 <0>         0.1282
     38 H17        -2.1418    0.0446    1.7270 H         1 <0>         0.1118
     39 H18        -0.7890    1.2025    1.7239 H         1 <0>         0.0880
     40 H19        -3.3133    3.3170    4.8704 H         1 <0>         0.1315
     41 H20        -1.5979    3.1659    5.3211 H         1 <0>         0.1302
     42 H21        -1.1389    5.3871    4.3190 H         1 <0>         0.0944
     43 H22        -2.8542    5.5382    3.8682 H         1 <0>         0.0968
     44 H23        -3.4115    5.4088    6.2361 H         1 <0>         0.0981
     45 H24        -1.7805    5.2352    6.7093 H         1 <0>         0.1100
     46 H25        -3.2793    6.2186    8.3321 H         1 <0>         0.1290
     47 H26        -3.6933    7.5074   10.3846 H         1 <0>         0.1322
     48 H27        -3.2682    9.9300   10.4293 H         1 <0>         0.1326
     49 H28        -2.4176   11.0782    8.4274 H         1 <0>         0.1332
     50 H29        -2.6709   10.2515    5.3572 H         1 <0>         0.0784
     51 H30        -1.3321   10.9277    6.3156 H         1 <0>         0.0652
     52 H31        -1.1365    9.3600    5.4956 H         1 <0>         0.0893
     53 N1         -1.9588    3.0696    3.2558 N.4       1 <0>        -0.3931
     54 H32        -0.9467    3.1581    3.1071 H         1 <0>         0.4272
@<TRIPOS>BOND
     1    1    2 1
     2    1   22 1
     3    1   23 1
     4    1   24 1
     5    2    3 1
     6    2   25 1
     7    2   26 1
     8    3    4 1
     9    3   27 1
    10    3   28 1
    11    4    5 1
    12    4   29 1
    13    4   30 1
    14    5    9 1
    15    5    6 1
    16    5   31 1
    17    6    7 1
    18    6   32 1
    19    6   33 1
    20    7   34 1
    21    7   35 1
    22    7   53 1
    23    8    9 1
    24    8   36 1
    25    8   37 1
    26    8   53 1
    27    9   38 1
    28    9   39 1
    29   10   11 1
    30   10   40 1
    31   10   41 1
    32   10   53 1
    33   11   12 1
    34   11   42 1
    35   11   43 1
    36   12   13 1
    37   12   44 1
    38   12   45 1
    39   13   14 2
    40   13   15 1
    41   15   20 ar
    42   15   16 ar
    43   16   17 ar
    44   16   46 1
    45   17   18 ar
    46   17   47 1
    47   18   19 ar
    48   18   48 1
    49   19   20 ar
    50   19   49 1
    51   20   21 1
    52   21   50 1
    53   21   51 1
    54   21   52 1
    55   53   54 1
@<TRIPOS>MOLECULE
ZINC01481744
   59    63     0     0     0
SMALL
USER_CHARGES
tert-butylBLAHol
@<TRIPOS>ATOM
      1 C1          7.4021    8.7034   -0.7443 C.3       1 <0>        -0.1466
      2 C2          7.5600    7.3733   -0.0048 C.3       1 <0>        -0.0472
      3 C3          8.5881    6.5044   -0.7320 C.3       1 <0>        -0.1553
      4 C4          8.0362    7.6381    1.4249 C.3       1 <0>        -0.1470
      5 C5          6.2137    6.6474    0.0323 C.3       1 <0>         0.1386
      6 C6          5.7356    6.3816   -1.3980 C.3       1 <0>        -0.1808
      7 C7          4.4166    5.6077   -1.3542 C.3       1 <0>        -0.0052
      8 C8          3.3652    3.5592   -0.6154 C.3       1 <0>        -0.0027
      9 C9          3.6680    2.1410   -0.1452 C.3       1 <0>        -0.0191
     10 H1          4.2105    1.6604   -0.9594 H         1 <0>         0.1021
     11 C10         2.3734    1.3946   -0.0260 C.ar      1 <0>        -0.0842
     12 C11         1.1723    2.0854    0.0021 C.ar      1 <0>        -0.1223
     13 C12        -0.0167    1.3784    0.0096 C.ar      1 <0>        -0.1108
     14 C13         0.0021   -0.0041    0.0020 C.ar      1 <0>        -0.1048
     15 C14         1.2071   -0.6813    0.0133 C.ar      1 <0>        -0.1051
     16 C15         2.3948    0.0364    0.0071 C.ar      1 <0>        -0.0695
     17 C16         3.7024   -0.6896    0.1021 C.3       1 <0>        -0.0845
     18 C17         4.3272   -0.4713    1.4512 C.3       1 <0>        -0.0850
     19 C18         4.8103    0.9217    1.7463 C.ar      1 <0>        -0.0444
     20 C19         4.5590    2.0827    1.0479 C.ar      1 <0>        -0.0603
     21 C20         5.1779    3.2568    1.4753 C.ar      1 <0>        -0.1299
     22 C21         5.9679    3.2844    2.6137 C.ar      1 <0>        -0.0975
     23 C22         6.1786    2.1330    3.3379 C.ar      1 <0>        -0.0990
     24 C23         5.6072    0.9672    2.8970 C.ar      1 <0>        -0.1046
     25 C24         5.0337    4.5665    0.7444 C.3       1 <0>         0.0810
     26 H2          4.2805    5.1671    1.2544 H         1 <0>         0.1391
     27 C25         6.3702    5.3111    0.7637 C.3       1 <0>        -0.1720
     28 O1          5.2533    7.4561    0.7147 O.3       1 <0>        -0.5331
     29 H3          6.6697    9.3225   -0.2261 H         1 <0>         0.0690
     30 H4          8.3612    9.2205   -0.7707 H         1 <0>         0.0638
     31 H5          7.0629    8.5148   -1.7628 H         1 <0>         0.0556
     32 H6          8.2488    6.3158   -1.7506 H         1 <0>         0.0600
     33 H7          9.5472    7.0215   -0.7584 H         1 <0>         0.0731
     34 H8          8.7006    5.5568   -0.2052 H         1 <0>         0.0598
     35 H9          8.1487    6.6905    1.9518 H         1 <0>         0.0543
     36 H10         8.9953    8.1552    1.3985 H         1 <0>         0.0641
     37 H11         7.3038    8.2571    1.9431 H         1 <0>         0.0692
     38 H12         6.4847    5.7942   -1.9288 H         1 <0>         0.1035
     39 H13         5.5840    7.3302   -1.9132 H         1 <0>         0.1274
     40 H14         4.0813    5.4044   -2.3713 H         1 <0>         0.1398
     41 H15         3.6639    6.2024   -0.8366 H         1 <0>         0.1295
     42 H16         2.9358    3.5269   -1.6168 H         1 <0>         0.1429
     43 H17         2.6573    4.0264    0.0692 H         1 <0>         0.1364
     44 H18         1.1646    3.1652    0.0175 H         1 <0>         0.1229
     45 H19        -0.9590    1.9060    0.0169 H         1 <0>         0.1296
     46 H20        -0.9263   -0.5557   -0.0124 H         1 <0>         0.1306
     47 H21         1.2241   -1.7611    0.0273 H         1 <0>         0.1320
     48 H22         3.5343   -1.7559   -0.0490 H         1 <0>         0.0895
     49 H23         4.3776   -0.3184   -0.6689 H         1 <0>         0.0749
     50 H24         3.5946   -0.7431    2.2111 H         1 <0>         0.0852
     51 H25         5.1749   -1.1501    1.5451 H         1 <0>         0.0900
     52 H26         6.4197    4.2119    2.9332 H         1 <0>         0.1353
     53 H27         6.7814    2.1475    4.2340 H         1 <0>         0.1400
     54 H28         5.7764    0.0573    3.4536 H         1 <0>         0.1328
     55 H29         7.1294    4.7094    0.2640 H         1 <0>         0.1055
     56 H30         6.6704    5.4938    1.7955 H         1 <0>         0.1265
     57 H31         4.3755    7.0555    0.7778 H         1 <0>         0.3658
     58 N1          4.6164    4.3231   -0.6385 N.4       1 <0>        -0.3871
     59 H32         5.3405    3.7791   -1.1223 H         1 <0>         0.4282
@<TRIPOS>BOND
     1    1    2 1
     2    1   29 1
     3    1   30 1
     4    1   31 1
     5    2    3 1
     6    2    4 1
     7    2    5 1
     8    3   32 1
     9    3   33 1
    10    3   34 1
    11    4   35 1
    12    4   36 1
    13    4   37 1
    14    5   27 1
    15    5    6 1
    16    5   28 1
    17    6    7 1
    18    6   38 1
    19    6   39 1
    20    7   40 1
    21    7   41 1
    22    7   58 1
    23    8    9 1
    24    8   42 1
    25    8   43 1
    26    8   58 1
    27    9   10 1
    28    9   20 1
    29    9   11 1
    30   11   16 ar
    31   11   12 ar
    32   12   13 ar
    33   12   44 1
    34   13   14 ar
    35   13   45 1
    36   14   15 ar
    37   14   46 1
    38   15   16 ar
    39   15   47 1
    40   16   17 1
    41   17   18 1
    42   17   48 1
    43   17   49 1
    44   18   19 1
    45   18   50 1
    46   18   51 1
    47   19   24 ar
    48   19   20 ar
    49   20   21 ar
    50   21   22 ar
    51   21   25 1
    52   22   23 ar
    53   22   52 1
    54   23   24 ar
    55   23   53 1
    56   24   54 1
    57   25   26 1
    58   25   27 1
    59   25   58 1
    60   27   55 1
    61   27   56 1
    62   28   57 1
    63   58   59 1
@<TRIPOS>MOLECULE
ZINC04364519
   57    59     0     0     0
SMALL
USER_CHARGES
4-chloro-N-[4-[4-(2-methoxyphenyl)piperazin-1-yl]butyl]benzamide
@<TRIPOS>ATOM
      1 C1         -1.1455    3.4824    0.0264 C.3       1 <0>         0.0204
      2 O1         -1.2029    2.0546    0.0189 O.3       1 <0>        -0.2998
      3 C2         -0.0168    1.3889    0.0097 C.ar      1 <0>         0.1642
      4 C3          1.1751    2.0944    0.0021 C.ar      1 <0>        -0.2027
      5 C4          2.3802    1.4164   -0.0135 C.ar      1 <0>        -0.0622
      6 C5          2.3999    0.0340   -0.0207 C.ar      1 <0>        -0.1458
      7 C6          1.2148   -0.6775   -0.0132 C.ar      1 <0>        -0.1060
      8 C7          0.0021   -0.0041    0.0020 C.ar      1 <0>         0.0239
      9 N1         -1.1993   -0.7222    0.0092 N.pl3     1 <0>        -0.4815
     10 C8         -1.3293   -1.5189    1.2371 C.3       1 <0>         0.0300
     11 C9         -2.6874   -2.2247    1.2428 C.3       1 <0>        -0.0034
     12 C10        -2.6684   -2.2806   -1.1770 C.3       1 <0>         0.0051
     13 C11        -1.3103   -1.5748   -1.1826 C.3       1 <0>         0.0290
     14 C12        -4.0593   -3.8310    0.0585 C.3       1 <0>        -0.0022
     15 C13        -4.2778   -4.4456    1.4425 C.3       1 <0>        -0.1490
     16 C14        -5.5911   -5.2306    1.4503 C.3       1 <0>        -0.1308
     17 C15        -5.8097   -5.8451    2.8343 C.3       1 <0>         0.1190
     18 N2         -7.0671   -6.5968    2.8418 N.am      1 <0>        -0.7322
     19 C16        -7.4682   -7.2280    3.9630 C.2       1 <0>         0.5641
     20 O2         -6.7866   -7.1737    4.9680 O.2       1 <0>        -0.5262
     21 C17        -8.7367   -7.9863    3.9705 C.ar      1 <0>        -0.1407
     22 C18        -9.5245   -8.0457    2.8194 C.ar      1 <0>        -0.0743
     23 C19       -10.7040   -8.7600    2.8307 C.ar      1 <0>        -0.1178
     24 C20       -11.1136   -9.4077    3.9845 C.ar      1 <0>        -0.0074
     25 C21       -10.3393   -9.3472    5.1314 C.ar      1 <0>        -0.1153
     26 C22        -9.1548   -8.6413    5.1305 C.ar      1 <0>        -0.0436
     27 Cl1       -12.6031  -10.2994    3.9930 Cl        1 <0>        -0.0511
     28 H1         -0.6217    3.8296   -0.8642 H         1 <0>         0.0590
     29 H2         -2.1577    3.8867    0.0334 H         1 <0>         0.1054
     30 H3         -0.6132    3.8200    0.9157 H         1 <0>         0.0590
     31 H4          1.1633    3.1743    0.0076 H         1 <0>         0.1382
     32 H5          3.3085    1.9682   -0.0198 H         1 <0>         0.1340
     33 H6          3.3435   -0.4913   -0.0325 H         1 <0>         0.1308
     34 H7          1.2330   -1.7573   -0.0195 H         1 <0>         0.1241
     35 H8         -0.5330   -2.2623    1.2743 H         1 <0>         0.0621
     36 H9         -1.2564   -0.8637    2.1052 H         1 <0>         0.1229
     37 H10        -3.4839   -1.4807    1.2331 H         1 <0>         0.1410
     38 H11        -2.7741   -2.8392    2.1389 H         1 <0>         0.1384
     39 H12        -3.4647   -1.5372   -1.2141 H         1 <0>         0.1403
     40 H13        -2.7414   -2.9355   -2.0452 H         1 <0>         0.1351
     41 H14        -1.2235   -0.9603   -2.0787 H         1 <0>         0.1233
     42 H15        -0.5138   -2.3188   -1.1729 H         1 <0>         0.0623
     43 H16        -4.8853   -3.1595   -0.1755 H         1 <0>         0.1331
     44 H17        -4.0130   -4.6239   -0.6880 H         1 <0>         0.1303
     45 H18        -3.4517   -5.1171    1.6765 H         1 <0>         0.0913
     46 H19        -4.3241   -3.6526    2.1890 H         1 <0>         0.0945
     47 H20        -6.4172   -4.5590    1.2164 H         1 <0>         0.0831
     48 H21        -5.5448   -6.0235    0.7039 H         1 <0>         0.0826
     49 H22        -4.9836   -6.5166    3.0683 H         1 <0>         0.0733
     50 H23        -5.8559   -5.0522    3.5808 H         1 <0>         0.0735
     51 H24        -7.6110   -6.6401    2.0398 H         1 <0>         0.4022
     52 H25        -9.2084   -7.5373    1.9206 H         1 <0>         0.1330
     53 H26       -11.3119   -8.8107    1.9395 H         1 <0>         0.1430
     54 H27       -10.6638   -9.8543    6.0281 H         1 <0>         0.1455
     55 H28        -8.5515   -8.5954    6.0251 H         1 <0>         0.1478
     56 N3         -2.7769   -3.0952    0.0514 N.4       1 <0>        -0.3973
     57 H29        -2.0043   -3.7711    0.0731 H         1 <0>         0.4247
@<TRIPOS>BOND
     1    1    2 1
     2    1   28 1
     3    1   29 1
     4    1   30 1
     5    2    3 1
     6    3    8 ar
     7    3    4 ar
     8    4    5 ar
     9    4   31 1
    10    5    6 ar
    11    5   32 1
    12    6    7 ar
    13    6   33 1
    14    7    8 ar
    15    7   34 1
    16    8    9 1
    17    9   13 1
    18    9   10 1
    19   10   11 1
    20   10   35 1
    21   10   36 1
    22   11   37 1
    23   11   38 1
    24   11   56 1
    25   12   13 1
    26   12   39 1
    27   12   40 1
    28   12   56 1
    29   13   41 1
    30   13   42 1
    31   14   15 1
    32   14   43 1
    33   14   44 1
    34   14   56 1
    35   15   16 1
    36   15   45 1
    37   15   46 1
    38   16   17 1
    39   16   47 1
    40   16   48 1
    41   17   18 1
    42   17   49 1
    43   17   50 1
    44   18   19 am
    45   18   51 1
    46   19   20 2
    47   19   21 1
    48   21   26 ar
    49   21   22 ar
    50   22   23 ar
    51   22   52 1
    52   23   24 ar
    53   23   53 1
    54   24   25 ar
    55   24   27 1
    56   25   26 ar
    57   25   54 1
    58   26   55 1
    59   56   57 1
@<TRIPOS>MOLECULE
ZINC01537496
   57    60     0     0     0
SMALL
USER_CHARGES

@<TRIPOS>ATOM
      1 C1         -0.0173    1.4248    0.0099 C.3       1 <0>         0.0229
      2 O1          0.0021   -0.0041    0.0020 O.3       1 <0>        -0.3111
      3 C2          0.6063   -0.6076   -1.0566 C.ar      1 <0>         0.1290
      4 C3          1.1727    0.1584   -2.0619 C.ar      1 <0>        -0.2023
      5 C4          1.7862   -0.4565   -3.1379 C.ar      1 <0>        -0.0670
      6 C5          1.8369   -1.8361   -3.2138 C.ar      1 <0>        -0.1490
      7 C6          1.2745   -2.6077   -2.2144 C.ar      1 <0>        -0.0821
      8 C7          0.6620   -1.9977   -1.1294 C.ar      1 <0>         0.1090
      9 N1          0.0968   -2.7768   -0.1132 N.pl3     1 <0>        -0.6637
     10 C8         -1.3057   -3.2146   -0.1871 C.3       1 <0>         0.1220
     11 C9         -1.3569   -4.7253    0.0636 C.3       1 <0>        -0.0223
     12 N2         -0.6925   -5.0320    1.3366 N.4       1 <0>        -0.3803
     13 C10         0.7338   -4.6939    1.2505 C.3       1 <0>        -0.0277
     14 C11         0.8902   -3.1864    1.0559 C.3       1 <0>         0.1222
     15 C12        -0.8376   -6.4641    1.6301 C.3       1 <0>        -0.0085
     16 C13        -0.2558   -6.7628    3.0132 C.3       1 <0>        -0.1448
     17 C14        -0.4069   -8.2543    3.3189 C.3       1 <0>        -0.1362
     18 C15         0.1750   -8.5530    4.7020 C.3       1 <0>         0.1116
     19 N3          0.0302   -9.9811    4.9947 N.am      1 <0>        -0.5803
     20 C16        -1.0384  -10.5296    5.6004 C.2       1 <0>         0.5775
     21 O2         -2.0207   -9.9284    5.9859 O.2       1 <0>        -0.4596
     22 C17        -0.8170  -11.9863    5.7182 C.ar      1 <0>        -0.1470
     23 C18        -1.5532  -13.0379    6.2398 C.ar      1 <0>        -0.0409
     24 C19        -1.0423  -14.3255    6.1903 C.ar      1 <0>        -0.0904
     25 C20         0.1956  -14.5669    5.6245 C.ar      1 <0>        -0.0905
     26 C21         0.9432  -13.5248    5.0988 C.ar      1 <0>        -0.0408
     27 C22         0.4452  -12.2324    5.1412 C.ar      1 <0>        -0.1471
     28 C23         0.9460  -10.9176    4.6879 C.2       1 <0>         0.5777
     29 O3          2.0074  -10.7163    4.1330 O.2       1 <0>        -0.4601
     30 H1          1.0053    1.8021    0.0021 H         1 <0>         0.0588
     31 H2         -0.5445    1.7859   -0.8732 H         1 <0>         0.0588
     32 H3         -0.5275    1.7763    0.9067 H         1 <0>         0.1035
     33 H4          1.1348    1.2363   -2.0057 H         1 <0>         0.1341
     34 H5          2.2267    0.1425   -3.9212 H         1 <0>         0.1319
     35 H6          2.3168   -2.3119   -4.0562 H         1 <0>         0.1306
     36 H7          1.3151   -3.6852   -2.2764 H         1 <0>         0.1265
     37 H8         -1.8914   -2.6971    0.5728 H         1 <0>         0.0779
     38 H9         -1.7068   -2.9936   -1.1762 H         1 <0>         0.1139
     39 H10        -2.3961   -5.0513    0.1082 H         1 <0>         0.1358
     40 H11        -0.8470   -5.2457   -0.7471 H         1 <0>         0.1296
     41 H12         1.2353   -4.9969    2.1697 H         1 <0>         0.1373
     42 H13         1.1804   -5.2153    0.4039 H         1 <0>         0.1300
     43 H14         1.9402   -2.9468    0.8881 H         1 <0>         0.1137
     44 H15         0.5300   -2.6661    1.9434 H         1 <0>         0.0772
     45 H16        -1.8938   -6.7330    1.6144 H         1 <0>         0.1322
     46 H17        -0.3036   -7.0450    0.8781 H         1 <0>         0.1298
     47 H18         0.8004   -6.4939    3.0289 H         1 <0>         0.0923
     48 H19        -0.7898   -6.1819    3.7652 H         1 <0>         0.0931
     49 H20        -1.4631   -8.5232    3.3032 H         1 <0>         0.0826
     50 H21         0.1271   -8.8352    2.5669 H         1 <0>         0.0821
     51 H22         1.2312   -8.2841    4.7177 H         1 <0>         0.1009
     52 H23        -0.3590   -7.9721    5.4540 H         1 <0>         0.1012
     53 H24        -2.5208  -12.8551    6.6834 H         1 <0>         0.1447
     54 H25        -1.6152  -15.1457    6.5970 H         1 <0>         0.1471
     55 H26         0.5831  -15.5745    5.5922 H         1 <0>         0.1471
     56 H27         1.9099  -13.7192    4.6583 H         1 <0>         0.1446
     57 H28        -1.1202   -4.4947    2.0759 H         1 <0>         0.4225
@<TRIPOS>BOND
     1    1    2 1
     2    1   30 1
     3    1   31 1
     4    1   32 1
     5    2    3 1
     6    3    8 ar
     7    3    4 ar
     8    4    5 ar
     9    4   33 1
    10    5    6 ar
    11    5   34 1
    12    6    7 ar
    13    6   35 1
    14    7    8 ar
    15    7   36 1
    16    8    9 1
    17    9   14 1
    18    9   10 1
    19   10   11 1
    20   10   37 1
    21   10   38 1
    22   11   12 1
    23   11   39 1
    24   11   40 1
    25   12   13 1
    26   12   15 1
    27   12   57 1
    28   13   14 1
    29   13   41 1
    30   13   42 1
    31   14   43 1
    32   14   44 1
    33   15   16 1
    34   15   45 1
    35   15   46 1
    36   16   17 1
    37   16   47 1
    38   16   48 1
    39   17   18 1
    40   17   49 1
    41   17   50 1
    42   18   19 1
    43   18   51 1
    44   18   52 1
    45   19   28 am
    46   19   20 am
    47   20   21 2
    48   20   22 1
    49   22   27 ar
    50   22   23 ar
    51   23   24 ar
    52   23   53 1
    53   24   25 ar
    54   24   54 1
    55   25   26 ar
    56   25   55 1
    57   26   27 ar
    58   26   56 1
    59   27   28 1
    60   28   29 2
@<TRIPOS>MOLECULE
ZINC01537496
   56    59     0     0     0
SMALL
USER_CHARGES

@<TRIPOS>ATOM
      1 C1         -0.0173    1.4248    0.0099 C.3       1 <0>         0.0252
      2 O1          0.0021   -0.0041    0.0020 O.3       1 <0>        -0.3039
      3 C2          0.6063   -0.6076   -1.0566 C.ar      1 <0>         0.1197
      4 C3          1.1727    0.1584   -2.0619 C.ar      1 <0>        -0.2066
      5 C4          1.7862   -0.4565   -3.1379 C.ar      1 <0>        -0.0837
      6 C5          1.8369   -1.8361   -3.2138 C.ar      1 <0>        -0.1522
      7 C6          1.2745   -2.6077   -2.2144 C.ar      1 <0>        -0.0882
      8 C7          0.6620   -1.9977   -1.1294 C.ar      1 <0>         0.1392
      9 N1          0.0968   -2.7768   -0.1132 N.pl3     1 <0>        -0.6684
     10 C8         -1.3056   -3.2137   -0.1884 C.3       1 <0>         0.1536
     11 C9         -1.3570   -4.7276    0.0431 C.3       1 <0>         0.0413
     12 N2         -0.6724   -5.0507    1.3020 N.3       1 <0>        -0.5343
     13 C10         0.7517   -4.6956    1.2405 C.3       1 <0>         0.0376
     14 C11         0.8913   -3.1855    1.0551 C.3       1 <0>         0.1533
     15 C12        -0.8472   -6.4678    1.6476 C.3       1 <0>         0.0572
     16 C13        -0.3417   -6.7116    3.0710 C.3       1 <0>        -0.1116
     17 C14        -0.5237   -8.1875    3.4309 C.3       1 <0>        -0.1352
     18 C15        -0.0183   -8.4314    4.8543 C.3       1 <0>         0.1117
     19 N3         -0.1926   -9.8446    5.1990 N.am      1 <0>        -0.5766
     20 C16        -1.2970  -10.3582    5.7700 C.2       1 <0>         0.5742
     21 O2         -2.2921   -9.7334    6.0773 O.2       1 <0>        -0.4586
     22 C17        -1.0969  -11.8102    5.9608 C.ar      1 <0>        -0.1418
     23 C18        -1.8700  -12.8328    6.4868 C.ar      1 <0>        -0.0442
     24 C19        -1.3702  -14.1253    6.5188 C.ar      1 <0>        -0.0946
     25 C20        -0.1069  -14.4004    6.0299 C.ar      1 <0>        -0.0948
     26 C21         0.6778  -13.3876    5.5008 C.ar      1 <0>        -0.0443
     27 C22         0.1913  -12.0907    5.4623 C.ar      1 <0>        -0.1422
     28 C23         0.7285  -10.8005    4.9808 C.2       1 <0>         0.5745
     29 O3          1.8195  -10.6314    4.4748 O.2       1 <0>        -0.4601
     30 H1          1.0053    1.8021    0.0021 H         1 <0>         0.0536
     31 H2         -0.5445    1.7859   -0.8732 H         1 <0>         0.0536
     32 H3         -0.5275    1.7763    0.9067 H         1 <0>         0.0992
     33 H4          1.1348    1.2363   -2.0057 H         1 <0>         0.1276
     34 H5          2.2267    0.1425   -3.9212 H         1 <0>         0.1245
     35 H6          2.3168   -2.3119   -4.0562 H         1 <0>         0.1238
     36 H7          1.3151   -3.6852   -2.2764 H         1 <0>         0.1250
     37 H8         -1.8890   -2.7058    0.5796 H         1 <0>         0.0582
     38 H9         -1.7097   -2.9800   -1.1734 H         1 <0>         0.0690
     39 H10        -2.3961   -5.0517    0.1006 H         1 <0>         0.0794
     40 H11        -0.8612   -5.2388   -0.7821 H         1 <0>         0.0341
     41 H12         1.2419   -4.9966    2.1663 H         1 <0>         0.0828
     42 H13         1.2181   -5.2073    0.3986 H         1 <0>         0.0336
     43 H14         1.9390   -2.9332    0.8918 H         1 <0>         0.0686
     44 H15         0.5231   -2.6749    1.9450 H         1 <0>         0.0576
     45 H16        -1.9037   -6.7288    1.5875 H         1 <0>         0.0751
     46 H17        -0.2804   -7.0845    0.9501 H         1 <0>         0.0326
     47 H18         0.7149   -6.4507    3.1310 H         1 <0>         0.0675
     48 H19        -0.9085   -6.0950    3.7685 H         1 <0>         0.0776
     49 H20        -1.5803   -8.4485    3.3709 H         1 <0>         0.0712
     50 H21         0.0431   -8.8042    2.7334 H         1 <0>         0.0685
     51 H22         1.0383   -8.1704    4.9144 H         1 <0>         0.0977
     52 H23        -0.5851   -7.8147    5.5518 H         1 <0>         0.0992
     53 H24        -2.8576  -12.6236    6.8705 H         1 <0>         0.1433
     54 H25        -1.9719  -14.9229    6.9289 H         1 <0>         0.1439
     55 H26         0.2716  -15.4114    6.0607 H         1 <0>         0.1438
     56 H27         1.6642  -13.6083    5.1206 H         1 <0>         0.1430
@<TRIPOS>BOND
     1    1    2 1
     2    1   30 1
     3    1   31 1
     4    1   32 1
     5    2    3 1
     6    3    8 ar
     7    3    4 ar
     8    4    5 ar
     9    4   33 1
    10    5    6 ar
    11    5   34 1
    12    6    7 ar
    13    6   35 1
    14    7    8 ar
    15    7   36 1
    16    8    9 1
    17    9   14 1
    18    9   10 1
    19   10   11 1
    20   10   37 1
    21   10   38 1
    22   11   12 1
    23   11   39 1
    24   11   40 1
    25   12   13 1
    26   12   15 1
    27   13   14 1
    28   13   41 1
    29   13   42 1
    30   14   43 1
    31   14   44 1
    32   15   16 1
    33   15   45 1
    34   15   46 1
    35   16   17 1
    36   16   47 1
    37   16   48 1
    38   17   18 1
    39   17   49 1
    40   17   50 1
    41   18   19 1
    42   18   51 1
    43   18   52 1
    44   19   28 am
    45   19   20 am
    46   20   21 2
    47   20   22 1
    48   22   27 ar
    49   22   23 ar
    50   23   24 ar
    51   23   53 1
    52   24   25 ar
    53   24   54 1
    54   25   26 ar
    55   25   55 1
    56   26   27 ar
    57   26   56 1
    58   27   28 1
    59   28   29 2
@<TRIPOS>MOLECULE
ZINC11909395
   63    66     0     0     0
SMALL
USER_CHARGES
N-[3-[4-(2-methoxyphenyl)piperazin-1-yl]propyl]-2-(1-naphthyl)acetamide
@<TRIPOS>ATOM
      1 C1         -1.1455    3.4824    0.0264 C.3       1 <0>         0.0203
      2 O1         -1.2029    2.0546    0.0189 O.3       1 <0>        -0.2997
      3 C2         -0.0168    1.3889    0.0097 C.ar      1 <0>         0.1644
      4 C3          1.1751    2.0944    0.0021 C.ar      1 <0>        -0.2027
      5 C4          2.3802    1.4164   -0.0135 C.ar      1 <0>        -0.0621
      6 C5          2.3999    0.0340   -0.0207 C.ar      1 <0>        -0.1459
      7 C6          1.2148   -0.6775   -0.0132 C.ar      1 <0>        -0.1060
      8 C7          0.0021   -0.0041    0.0020 C.ar      1 <0>         0.0236
      9 N1         -1.1993   -0.7222    0.0092 N.pl3     1 <0>        -0.4814
     10 C8         -1.3293   -1.5189    1.2371 C.3       1 <0>         0.0305
     11 C9         -2.6874   -2.2247    1.2428 C.3       1 <0>        -0.0036
     12 C10        -2.6684   -2.2806   -1.1770 C.3       1 <0>         0.0048
     13 C11        -1.3103   -1.5748   -1.1826 C.3       1 <0>         0.0292
     14 C12        -4.0593   -3.8310    0.0585 C.3       1 <0>         0.0005
     15 C13        -4.2778   -4.4456    1.4425 C.3       1 <0>        -0.1649
     16 C14        -5.5911   -5.2306    1.4503 C.3       1 <0>         0.1236
     17 N2         -5.8004   -5.8190    2.7755 N.am      1 <0>        -0.7410
     18 C15        -6.9003   -6.5591    3.0181 C.2       1 <0>         0.5166
     19 O2         -7.7168   -6.7380    2.1394 O.2       1 <0>        -0.5124
     20 C16        -7.1156   -7.1644    4.3813 C.3       1 <0>        -0.1011
     21 C17        -8.4091   -7.9376    4.3890 C.ar      1 <0>        -0.0673
     22 C18        -9.5554   -7.3492    4.8283 C.ar      1 <0>        -0.0974
     23 C19       -10.7606   -8.0482    4.8427 C.ar      1 <0>        -0.1170
     24 C20       -10.8270   -9.3396    4.4176 C.ar      1 <0>        -0.0974
     25 C21        -9.6646   -9.9804    3.9567 C.ar      1 <0>        -0.0527
     26 C22        -8.4395   -9.2677    3.9374 C.ar      1 <0>        -0.0325
     27 C23        -7.2760   -9.9101    3.4803 C.ar      1 <0>        -0.1136
     28 C24        -7.3423  -11.2015    3.0561 C.ar      1 <0>        -0.1098
     29 C25        -8.5478  -11.9009    3.0711 C.ar      1 <0>        -0.1190
     30 C26        -9.6937  -11.3128    3.5104 C.ar      1 <0>        -0.0997
     31 H1         -2.1577    3.8867    0.0334 H         1 <0>         0.1055
     32 H2         -0.6132    3.8200    0.9157 H         1 <0>         0.0590
     33 H3         -0.6217    3.8296   -0.8642 H         1 <0>         0.0591
     34 H4          1.1633    3.1743    0.0076 H         1 <0>         0.1382
     35 H5          3.3085    1.9682   -0.0198 H         1 <0>         0.1340
     36 H6          3.3435   -0.4913   -0.0325 H         1 <0>         0.1308
     37 H7          1.2330   -1.7573   -0.0195 H         1 <0>         0.1240
     38 H8         -0.5330   -2.2623    1.2743 H         1 <0>         0.0620
     39 H9         -1.2564   -0.8637    2.1052 H         1 <0>         0.1228
     40 H10        -3.4839   -1.4807    1.2331 H         1 <0>         0.1416
     41 H11        -2.7741   -2.8392    2.1389 H         1 <0>         0.1369
     42 H12        -3.4647   -1.5372   -1.2141 H         1 <0>         0.1413
     43 H13        -2.7414   -2.9355   -2.0452 H         1 <0>         0.1364
     44 H14        -1.2235   -0.9603   -2.0787 H         1 <0>         0.1240
     45 H15        -0.5138   -2.3188   -1.1729 H         1 <0>         0.0626
     46 H16        -4.8853   -3.1595   -0.1755 H         1 <0>         0.1367
     47 H17        -4.0130   -4.6239   -0.6880 H         1 <0>         0.1341
     48 H18        -3.4517   -5.1171    1.6765 H         1 <0>         0.0940
     49 H19        -4.3241   -3.6526    2.1890 H         1 <0>         0.0973
     50 H20        -6.4172   -4.5590    1.2164 H         1 <0>         0.0778
     51 H21        -5.5448   -6.0235    0.7039 H         1 <0>         0.0773
     52 H22        -5.1473   -5.6760    3.4783 H         1 <0>         0.4029
     53 H23        -6.2895   -7.8359    4.6153 H         1 <0>         0.1069
     54 H24        -7.1619   -6.3715    5.1278 H         1 <0>         0.1077
     55 H25        -9.5301   -6.3254    5.1711 H         1 <0>         0.1211
     56 H26       -11.6556   -7.5578    5.1962 H         1 <0>         0.1265
     57 H27       -11.7683   -9.8688    4.4342 H         1 <0>         0.1299
     58 H28        -6.3349   -9.3805    3.4623 H         1 <0>         0.1177
     59 H29        -6.4474  -11.6917    2.7022 H         1 <0>         0.1222
     60 H30        -8.5729  -12.9249    2.7287 H         1 <0>         0.1253
     61 H31       -10.6207  -11.8669    3.5156 H         1 <0>         0.1297
     62 N3         -2.7769   -3.0952    0.0514 N.4       1 <0>        -0.3964
     63 H32        -2.0043   -3.7711    0.0731 H         1 <0>         0.4248
@<TRIPOS>BOND
     1    1    2 1
     2    1   31 1
     3    1   32 1
     4    1   33 1
     5    2    3 1
     6    3    8 ar
     7    3    4 ar
     8    4    5 ar
     9    4   34 1
    10    5    6 ar
    11    5   35 1
    12    6    7 ar
    13    6   36 1
    14    7    8 ar
    15    7   37 1
    16    8    9 1
    17    9   13 1
    18    9   10 1
    19   10   11 1
    20   10   38 1
    21   10   39 1
    22   11   40 1
    23   11   41 1
    24   11   62 1
    25   12   13 1
    26   12   42 1
    27   12   43 1
    28   12   62 1
    29   13   44 1
    30   13   45 1
    31   14   15 1
    32   14   46 1
    33   14   47 1
    34   14   62 1
    35   15   16 1
    36   15   48 1
    37   15   49 1
    38   16   17 1
    39   16   50 1
    40   16   51 1
    41   17   18 am
    42   17   52 1
    43   18   19 2
    44   18   20 1
    45   20   21 1
    46   20   53 1
    47   20   54 1
    48   21   26 ar
    49   21   22 ar
    50   22   23 ar
    51   22   55 1
    52   23   24 ar
    53   23   56 1
    54   24   25 ar
    55   24   57 1
    56   25   30 ar
    57   25   26 ar
    58   26   27 ar
    59   27   28 ar
    60   27   58 1
    61   28   29 ar
    62   28   59 1
    63   29   30 ar
    64   29   60 1
    65   30   61 1
    66   62   63 1
@<TRIPOS>MOLECULE
ZINC00538337
   58    62     0     0     0
SMALL
USER_CHARGES

@<TRIPOS>ATOM
      1 C1         -0.0168    1.3842    0.0097 C.ar      1 <0>        -0.0898
      2 C2          1.1703    2.0901    0.0021 C.ar      1 <0>        -0.1344
      3 C3          2.3788    1.4141   -0.0135 C.ar      1 <0>         0.1119
      4 C4          2.3997    0.0295   -0.0216 C.ar      1 <0>        -0.1322
      5 C5          1.2148   -0.6800   -0.0137 C.ar      1 <0>        -0.0888
      6 C6          0.0021   -0.0041    0.0020 C.ar      1 <0>         0.1035
      7 N1         -1.2015   -0.7222    0.0101 N.pl3     1 <0>        -0.4255
      8 C7         -2.2407   -0.5077    0.8765 C.2       1 <0>         0.0751
      9 C8         -3.2397   -1.3652    0.6140 C.2       1 <0>        -0.1721
     10 C9         -2.8068   -2.1974   -0.5117 C.ar      1 <0>        -0.0841
     11 C10        -1.5194   -1.7470   -0.8569 C.ar      1 <0>         0.1032
     12 C11        -0.8430   -2.3517   -1.9103 C.ar      1 <0>        -0.1070
     13 C12        -1.4366   -3.3808   -2.6081 C.ar      1 <0>        -0.0841
     14 C13        -2.7089   -3.8239   -2.2706 C.ar      1 <0>        -0.0491
     15 C14        -3.3935   -3.2441   -1.2250 C.ar      1 <0>        -0.0671
     16 Cl1        -3.4366   -5.1218   -3.1648 Cl        1 <0>        -0.0596
     17 C15        -4.5571   -1.4553    1.3402 C.3       1 <0>        -0.0164
     18 C16        -4.3063   -1.7573    2.8204 C.3       1 <0>        -0.1397
     19 C17        -5.6422   -1.7687    3.5665 C.3       1 <0>        -0.0052
     20 N2         -6.2909   -0.4585    3.4359 N.4       1 <0>        -0.3798
     21 C18        -6.5994   -0.1937    2.0255 C.3       1 <0>        -0.0131
     22 C19        -5.3003   -0.1217    1.2201 C.3       1 <0>        -0.1392
     23 C20        -7.5345   -0.4493    4.2177 C.3       1 <0>        -0.0330
     24 C21        -8.1476    0.9521    4.1845 C.3       1 <0>         0.1326
     25 N3         -9.3878    0.9612    4.9641 N.am      1 <0>        -0.6351
     26 C22       -10.7283    0.6664    4.4362 C.3       1 <0>         0.0898
     27 C23       -11.6494    0.8170    5.6625 C.3       1 <0>         0.0871
     28 N4        -10.7301    1.1807    6.7511 N.am      1 <0>        -0.7327
     29 C24        -9.4802    1.2337    6.2723 C.2       1 <0>         0.7000
     30 O1         -8.5172    1.5083    6.9620 O.2       1 <0>        -0.5776
     31 F1          3.5389    2.1063   -0.0213 F         1 <0>        -0.1276
     32 H1         -0.9590    1.9118    0.0260 H         1 <0>         0.1391
     33 H2          1.1561    3.1700    0.0080 H         1 <0>         0.1488
     34 H3          3.3432   -0.4959   -0.0345 H         1 <0>         0.1499
     35 H4          1.2315   -1.7598   -0.0203 H         1 <0>         0.1411
     36 H5         -2.2541    0.2401    1.6556 H         1 <0>         0.1691
     37 H6          0.1466   -2.0149   -2.1816 H         1 <0>         0.1333
     38 H7         -0.9074   -3.8472   -3.4259 H         1 <0>         0.1426
     39 H8         -4.3833   -3.5900   -0.9659 H         1 <0>         0.1336
     40 H9         -5.1611   -2.2499    0.9021 H         1 <0>         0.0971
     41 H10        -3.8271   -2.7315    2.9171 H         1 <0>         0.1158
     42 H11        -3.6594   -0.9891    3.2440 H         1 <0>         0.0884
     43 H12        -6.2882   -2.5373    3.1423 H         1 <0>         0.1304
     44 H13        -5.4673   -1.9836    4.6207 H         1 <0>         0.1320
     45 H14        -7.2250   -0.9960    1.6341 H         1 <0>         0.1319
     46 H15        -7.1311    0.7541    1.9420 H         1 <0>         0.1316
     47 H16        -4.6740    0.6804    1.6106 H         1 <0>         0.0885
     48 H17        -5.5315    0.0731    0.1729 H         1 <0>         0.1159
     49 H18        -8.2379   -1.1638    3.7899 H         1 <0>         0.1318
     50 H19        -7.3173   -0.7265    5.2492 H         1 <0>         0.1351
     51 H20        -7.4442    1.6665    4.6123 H         1 <0>         0.1060
     52 H21        -8.3648    1.2293    3.1530 H         1 <0>         0.1030
     53 H22       -11.0011    1.3839    3.6624 H         1 <0>         0.0916
     54 H23       -10.7713   -0.3513    4.0481 H         1 <0>         0.0867
     55 H24       -12.3795    1.6093    5.4975 H         1 <0>         0.0926
     56 H25       -12.1498   -0.1259    5.8832 H         1 <0>         0.0914
     57 H26       -10.9875    1.3510    7.6707 H         1 <0>         0.4382
     58 H27        -5.6719    0.2583    3.7840 H         1 <0>         0.4243
@<TRIPOS>BOND
     1    1    6 ar
     2    1    2 ar
     3    1   32 1
     4    2    3 ar
     5    2   33 1
     6    3    4 ar
     7    3   31 1
     8    4    5 ar
     9    4   34 1
    10    5    6 ar
    11    5   35 1
    12    6    7 1
    13    7   11 1
    14    7    8 1
    15    8    9 2
    16    8   36 1
    17    9   10 1
    18    9   17 1
    19   10   15 ar
    20   10   11 ar
    21   11   12 ar
    22   12   13 ar
    23   12   37 1
    24   13   14 ar
    25   13   38 1
    26   14   15 ar
    27   14   16 1
    28   15   39 1
    29   17   22 1
    30   17   18 1
    31   17   40 1
    32   18   19 1
    33   18   41 1
    34   18   42 1
    35   19   20 1
    36   19   43 1
    37   19   44 1
    38   20   21 1
    39   20   23 1
    40   20   58 1
    41   21   22 1
    42   21   45 1
    43   21   46 1
    44   22   47 1
    45   22   48 1
    46   23   24 1
    47   23   49 1
    48   23   50 1
    49   24   25 1
    50   24   51 1
    51   24   52 1
    52   25   29 am
    53   25   26 1
    54   26   27 1
    55   26   53 1
    56   26   54 1
    57   27   28 1
    58   27   55 1
    59   27   56 1
    60   28   29 am
    61   28   57 1
    62   29   30 2
@<TRIPOS>MOLECULE
ZINC13766768
   42    43     0     0     0
SMALL
USER_CHARGES
3-phenoxy-N-(2-phenoxyethyl)propan-1-amine
@<TRIPOS>ATOM
      1 C1         -0.0126    1.0758    0.0080 C.ar      1 <0>        -0.1479
      2 C2         -1.2199    1.7496    0.0174 C.ar      1 <0>        -0.0800
      3 C3         -1.2413    3.1308    0.0307 C.ar      1 <0>        -0.2082
      4 C4         -0.0501    3.8419    0.0227 C.ar      1 <0>         0.1181
      5 C5          1.1599    3.1635    0.0075 C.ar      1 <0>        -0.1465
      6 C6          1.1760    1.7822    0.0004 C.ar      1 <0>        -0.0770
      7 O1         -0.0685    5.2008    0.0293 O.3       1 <0>        -0.3142
      8 C7         -1.3504    5.8322    0.0450 C.3       1 <0>         0.0628
      9 C8         -1.1705    7.3515    0.0503 C.3       1 <0>        -0.1523
     10 C9         -2.5430    8.0275    0.0671 C.3       1 <0>        -0.0010
     11 C10        -3.6703   10.1703    0.0884 C.3       1 <0>         0.0057
     12 C11        -3.4500   11.6843    0.0933 C.3       1 <0>         0.0243
     13 O2         -2.8301   12.0794   -1.1321 O.3       1 <0>        -0.3304
     14 C12        -2.5632   13.4026   -1.2899 C.ar      1 <0>         0.1097
     15 C13        -2.8964   14.3029   -0.2883 C.ar      1 <0>        -0.2033
     16 C14        -2.6192   15.6467   -0.4490 C.ar      1 <0>        -0.0786
     17 C15        -2.0198   16.0961   -1.6111 C.ar      1 <0>        -0.1399
     18 C16        -1.6920   15.2016   -2.6132 C.ar      1 <0>        -0.0772
     19 C17        -1.9623   13.8561   -2.4552 C.ar      1 <0>        -0.1422
     20 H1          0.0021   -0.0041    0.0020 H         1 <0>         0.1294
     21 H2         -2.1470    1.1956    0.0184 H         1 <0>         0.1286
     22 H3         -2.1846    3.6567    0.0422 H         1 <0>         0.1246
     23 H4          2.0886    3.7149    0.0009 H         1 <0>         0.1324
     24 H5          2.1177    1.2536   -0.0114 H         1 <0>         0.1349
     25 H6         -1.9122    5.5359   -0.8409 H         1 <0>         0.0725
     26 H7         -1.8945    5.5275    0.9390 H         1 <0>         0.0723
     27 H8         -0.6088    7.6478    0.9362 H         1 <0>         0.0999
     28 H9         -0.6264    7.6562   -0.8437 H         1 <0>         0.1004
     29 H10        -3.1048    7.7313   -0.8187 H         1 <0>         0.1364
     30 H11        -3.0871    7.7229    0.9611 H         1 <0>         0.1363
     31 H12        -4.2399    9.8889   -0.7973 H         1 <0>         0.1436
     32 H13        -4.2222    9.8805    0.9825 H         1 <0>         0.1520
     33 H14        -4.4098   12.1908    0.1948 H         1 <0>         0.1106
     34 H15        -2.8060   11.9550    0.9301 H         1 <0>         0.0876
     35 H16        -3.3683   13.9530    0.6178 H         1 <0>         0.1272
     36 H17        -2.8750   16.3475    0.3320 H         1 <0>         0.1317
     37 H18        -1.8077   17.1476   -1.7365 H         1 <0>         0.1321
     38 H19        -1.2239   15.5550   -3.5200 H         1 <0>         0.1370
     39 H20        -1.7063   13.1578   -3.2384 H         1 <0>         0.1330
     40 N1         -2.3608    9.4913    0.0722 N.4       1 <0>        -0.5191
     41 H21        -1.8445    9.7713   -0.7699 H         1 <0>         0.4413
     42 H22        -1.8279    9.7633    0.9066 H         1 <0>         0.4337
@<TRIPOS>BOND
     1    1    6 ar
     2    1    2 ar
     3    1   20 1
     4    2    3 ar
     5    2   21 1
     6    3    4 ar
     7    3   22 1
     8    4    5 ar
     9    4    7 1
    10    5    6 ar
    11    5   23 1
    12    6   24 1
    13    7    8 1
    14    8    9 1
    15    8   25 1
    16    8   26 1
    17    9   10 1
    18    9   27 1
    19    9   28 1
    20   10   29 1
    21   10   30 1
    22   10   40 1
    23   11   12 1
    24   11   31 1
    25   11   32 1
    26   11   40 1
    27   12   13 1
    28   12   33 1
    29   12   34 1
    30   13   14 1
    31   14   19 ar
    32   14   15 ar
    33   15   16 ar
    34   15   35 1
    35   16   17 ar
    36   16   36 1
    37   17   18 ar
    38   17   37 1
    39   18   19 ar
    40   18   38 1
    41   19   39 1
    42   40   41 1
    43   40   42 1
@<TRIPOS>MOLECULE
ZINC22064446
   39    41     0     0     0
SMALL
USER_CHARGES
(4aR,10bR)-4-propyl-2,3,4a,5,6,10b-hexahydronaphtho[8,7-b][1,4]oxazin-9-ol
@<TRIPOS>ATOM
      1 C1          8.4964    3.0602    0.8397 C.3       1 <0>        -0.1538
      2 C2          7.2788    3.8820    0.4118 C.3       1 <0>        -0.1209
      3 C3          5.9995    3.1269    0.7783 C.3       1 <0>         0.0479
      4 N1          4.8305    3.9160    0.3676 N.3       1 <0>        -0.5341
      5 C4          4.7163    5.1466    1.1689 C.3       1 <0>         0.0131
      6 C5          3.5049    5.9590    0.7089 C.3       1 <0>         0.0612
      7 O1          2.3295    5.1403    0.7778 O.3       1 <0>        -0.3779
      8 C6          2.4273    3.9685   -0.0287 C.3       1 <0>         0.1438
      9 H1          2.5729    4.3322   -1.0566 H         1 <0>         0.0801
     10 C7          3.5983    3.1294    0.4842 C.3       1 <0>         0.0613
     11 H2          3.5036    2.8763    1.5505 H         1 <0>         0.0544
     12 C8          3.6672    1.8513   -0.3504 C.3       1 <0>        -0.1136
     13 C9          2.4631    0.9816    0.0104 C.3       1 <0>        -0.0751
     14 C10         1.1857    1.7793    0.0003 C.ar      1 <0>        -0.1117
     15 C11         1.1633    3.1593   -0.0016 C.ar      1 <0>        -0.0372
     16 C12        -0.0491    3.8312    0.0172 C.ar      1 <0>        -0.1388
     17 C13        -1.2423    3.1280    0.0295 C.ar      1 <0>         0.1506
     18 C14        -1.2198    1.7410    0.0173 C.ar      1 <0>        -0.2062
     19 C15        -0.0126    1.0758    0.0080 C.ar      1 <0>        -0.0825
     20 O2         -2.4276    3.7926    0.0484 O.3       1 <0>        -0.5097
     21 H3          9.4161    3.6031    0.5762 H         1 <0>         0.0582
     22 H4          8.4831    2.0890    0.3233 H         1 <0>         0.0557
     23 H5          8.4653    2.8977    1.9272 H         1 <0>         0.0529
     24 H6          7.2921    4.8532    0.9282 H         1 <0>         0.0612
     25 H7          7.3099    4.0445   -0.6757 H         1 <0>         0.0716
     26 H8          5.9862    2.1558    0.2618 H         1 <0>         0.0831
     27 H9          5.9685    2.9643    1.8658 H         1 <0>         0.0348
     28 H10         4.5940    4.8832    2.2299 H         1 <0>         0.0436
     29 H11         5.6266    5.7514    1.0438 H         1 <0>         0.0915
     30 H12         3.3815    6.8352    1.3624 H         1 <0>         0.1034
     31 H13         3.6598    6.2935   -0.3275 H         1 <0>         0.0627
     32 H14         3.6409    2.1096   -1.4193 H         1 <0>         0.0775
     33 H15         4.6016    1.3163   -0.1253 H         1 <0>         0.0780
     34 H16         2.3695    0.1640   -0.7195 H         1 <0>         0.0807
     35 H17         2.6034    0.5604    1.0168 H         1 <0>         0.0759
     36 H18        -0.0634    4.9111    0.0218 H         1 <0>         0.1325
     37 H19        -2.1451    1.1842    0.0189 H         1 <0>         0.1275
     38 H20         0.0021   -0.0041    0.0020 H         1 <0>         0.1254
     39 H21        -3.3732    3.2306    0.0581 H         1 <0>         0.4330
@<TRIPOS>BOND
     1    1    2 1
     2    1   21 1
     3    1   22 1
     4    1   23 1
     5    2    3 1
     6    2   24 1
     7    2   25 1
     8    3    4 1
     9    3   26 1
    10    3   27 1
    11    4   10 1
    12    4    5 1
    13    5    6 1
    14    5   28 1
    15    5   29 1
    16    6    7 1
    17    6   30 1
    18    6   31 1
    19    7    8 1
    20    8    9 1
    21    8   15 1
    22    8   10 1
    23   10   11 1
    24   10   12 1
    25   12   13 1
    26   12   32 1
    27   12   33 1
    28   13   14 1
    29   13   34 1
    30   13   35 1
    31   14   19 ar
    32   14   15 ar
    33   15   16 ar
    34   16   17 ar
    35   16   36 1
    36   17   18 ar
    37   17   20 1
    38   18   19 ar
    39   18   37 1
    40   19   38 1
    41   20   39 1
@<TRIPOS>MOLECULE
ZINC04257980
   52    54     0     0     0
SMALL
USER_CHARGES

@<TRIPOS>ATOM
      1 C1         -0.0167    1.3782    0.0096 C.ar      1 <0>        -0.0781
      2 C2          1.1703    2.0860    0.0021 C.ar      1 <0>        -0.1497
      3 C3          2.3786    1.4101   -0.0131 C.ar      1 <0>         0.1095
      4 C4          2.3962    0.0256   -0.0207 C.ar      1 <0>        -0.1491
      5 C5          1.2079   -0.6800   -0.0132 C.ar      1 <0>        -0.0822
      6 C6          0.0021   -0.0041    0.0020 C.ar      1 <0>        -0.1420
      7 C7         -1.2930   -0.7747    0.0103 C.3       1 <0>         0.1541
      8 H1         -2.0956   -0.1325    0.3729 H         1 <0>         0.1125
      9 C8         -1.6168   -1.2431   -1.4098 C.3       1 <0>        -0.1464
     10 C9         -2.9905   -1.9166   -1.4239 C.3       1 <0>        -0.1470
     11 C10        -3.3143   -2.3850   -2.8440 C.3       1 <0>        -0.0097
     12 N1         -4.6332   -3.0316   -2.8576 N.4       1 <0>        -0.3828
     13 C11        -4.5881   -4.2491   -2.0389 C.3       1 <0>        -0.0084
     14 C12        -5.9797   -4.8829   -1.9834 C.3       1 <0>        -0.1328
     15 C13        -6.4303   -5.2372   -3.4035 C.3       1 <0>         0.1746
     16 C14        -6.4022   -3.9732   -4.2677 C.3       1 <0>        -0.1705
     17 C15        -4.9949   -3.3731   -4.2385 C.3       1 <0>        -0.0021
     18 C16        -7.8317   -5.7900   -3.3644 C.ar      1 <0>        -0.1262
     19 C17        -8.7143   -5.3669   -2.3882 C.ar      1 <0>        -0.1006
     20 C18        -9.9997   -5.8735   -2.3518 C.ar      1 <0>        -0.1039
     21 C19       -10.4031   -6.8042   -3.2927 C.ar      1 <0>        -0.0247
     22 C20        -9.5193   -7.2272   -4.2695 C.ar      1 <0>        -0.1015
     23 C21        -8.2359   -6.7157   -4.3082 C.ar      1 <0>        -0.0934
     24 Cl1       -12.0173   -7.4413   -3.2473 Cl        1 <0>        -0.0499
     25 O1         -5.5451   -6.2135   -3.9560 O.3       1 <0>        -0.5475
     26 O2         -1.1663   -1.9098    0.8690 O.3       1 <0>        -0.5520
     27 F1          3.5396    2.1009   -0.0209 F         1 <0>        -0.1327
     28 H2         -0.9592    1.9052    0.0260 H         1 <0>         0.1347
     29 H3          1.1554    3.1659    0.0077 H         1 <0>         0.1411
     30 H4          3.3381   -0.5027   -0.0329 H         1 <0>         0.1406
     31 H5          1.2213   -1.7599   -0.0195 H         1 <0>         0.1298
     32 H6         -1.6258   -0.3852   -2.0822 H         1 <0>         0.0873
     33 H7         -0.8598   -1.9549   -1.7391 H         1 <0>         0.0804
     34 H8         -2.9815   -2.7744   -0.7516 H         1 <0>         0.0957
     35 H9         -3.7475   -1.2048   -1.0947 H         1 <0>         0.0886
     36 H10        -3.3233   -1.5271   -3.5164 H         1 <0>         0.1308
     37 H11        -2.5573   -3.0968   -3.1733 H         1 <0>         0.1301
     38 H12        -3.8846   -4.9561   -2.4785 H         1 <0>         0.1378
     39 H13        -4.2642   -3.9957   -1.0294 H         1 <0>         0.1360
     40 H14        -5.9437   -5.7876   -1.3766 H         1 <0>         0.1236
     41 H15        -6.6840   -4.1767   -1.5437 H         1 <0>         0.1041
     42 H16        -6.6682   -4.2278   -5.2936 H         1 <0>         0.1172
     43 H17        -7.1153   -3.2482   -3.8753 H         1 <0>         0.1007
     44 H18        -4.9714   -2.4731   -4.8530 H         1 <0>         0.1323
     45 H19        -4.2827   -4.0988   -4.6313 H         1 <0>         0.1348
     46 H20        -8.3992   -4.6406   -1.6536 H         1 <0>         0.1333
     47 H21       -10.6891   -5.5431   -1.5889 H         1 <0>         0.1408
     48 H22        -9.8335   -7.9539   -5.0040 H         1 <0>         0.1414
     49 H23        -7.5474   -7.0422   -5.0736 H         1 <0>         0.1323
     50 H24        -5.7714   -6.4850   -4.8561 H         1 <0>         0.3907
     51 H25        -0.4692   -2.5262    0.6060 H         1 <0>         0.3775
     52 H26        -5.3210   -2.3985   -2.4776 H         1 <0>         0.4206
@<TRIPOS>BOND
     1    1    6 ar
     2    1    2 ar
     3    1   28 1
     4    2    3 ar
     5    2   29 1
     6    3    4 ar
     7    3   27 1
     8    4    5 ar
     9    4   30 1
    10    5    6 ar
    11    5   31 1
    12    6    7 1
    13    7    8 1
    14    7    9 1
    15    7   26 1
    16    9   10 1
    17    9   32 1
    18    9   33 1
    19   10   11 1
    20   10   34 1
    21   10   35 1
    22   11   12 1
    23   11   36 1
    24   11   37 1
    25   12   17 1
    26   12   13 1
    27   12   52 1
    28   13   14 1
    29   13   38 1
    30   13   39 1
    31   14   15 1
    32   14   40 1
    33   14   41 1
    34   15   16 1
    35   15   18 1
    36   15   25 1
    37   16   17 1
    38   16   42 1
    39   16   43 1
    40   17   44 1
    41   17   45 1
    42   18   23 ar
    43   18   19 ar
    44   19   20 ar
    45   19   46 1
    46   20   21 ar
    47   20   47 1
    48   21   22 ar
    49   21   24 1
    50   22   23 ar
    51   22   48 1
    52   23   49 1
    53   25   50 1
    54   26   51 1
@<TRIPOS>MOLECULE
ZINC02516030
   52    54     0     0     0
SMALL
USER_CHARGES

@<TRIPOS>ATOM
      1 C1         -0.0167    1.3782    0.0096 C.ar      1 <0>        -0.0790
      2 C2          1.1703    2.0860    0.0021 C.ar      1 <0>        -0.1495
      3 C3          2.3786    1.4101   -0.0131 C.ar      1 <0>         0.1092
      4 C4          2.3962    0.0256   -0.0207 C.ar      1 <0>        -0.1488
      5 C5          1.2079   -0.6800   -0.0132 C.ar      1 <0>        -0.0820
      6 C6          0.0021   -0.0041    0.0020 C.ar      1 <0>        -0.1420
      7 C7         -1.2930   -0.7747    0.0103 C.3       1 <0>         0.1541
      8 H1         -2.0856   -0.1577   -0.4132 H         1 <0>         0.1128
      9 C8         -1.6532   -1.1512    1.4488 C.3       1 <0>        -0.1462
     10 C9         -3.0274   -1.8235    1.4711 C.3       1 <0>        -0.1467
     11 C10        -3.3877   -2.2001    2.9096 C.3       1 <0>        -0.0097
     12 N1         -4.7071   -2.8456    2.9311 N.4       1 <0>        -0.3828
     13 C11        -5.7288   -1.8814    2.5057 C.3       1 <0>        -0.0083
     14 C12        -7.0937   -2.5708    2.4483 C.3       1 <0>        -0.1330
     15 C13        -7.4457   -3.1104    3.8375 C.3       1 <0>         0.1747
     16 C14        -6.3361   -4.0578    4.3026 C.3       1 <0>        -0.1705
     17 C15        -4.9993   -3.3133    4.2913 C.3       1 <0>        -0.0020
     18 C16        -8.7522   -3.8585    3.7714 C.ar      1 <0>        -0.1263
     19 C17        -9.1187   -4.5073    2.6069 C.ar      1 <0>        -0.1006
     20 C18       -10.3168   -5.1936    2.5456 C.ar      1 <0>        -0.1039
     21 C19       -11.1494   -5.2313    3.6499 C.ar      1 <0>        -0.0247
     22 C20       -10.7821   -4.5818    4.8150 C.ar      1 <0>        -0.1015
     23 C21        -9.5811   -3.9006    4.8769 C.ar      1 <0>        -0.0934
     24 Cl1       -12.6547   -6.0927    3.5735 Cl        1 <0>        -0.0499
     25 O1         -7.5621   -2.0229    4.7572 O.3       1 <0>        -0.5476
     26 O2         -1.1454   -1.9625   -0.7703 O.3       1 <0>        -0.5520
     27 F1          3.5396    2.1009   -0.0209 F         1 <0>        -0.1327
     28 H2         -0.9592    1.9052    0.0260 H         1 <0>         0.1345
     29 H3          1.1554    3.1659    0.0077 H         1 <0>         0.1411
     30 H4          3.3381   -0.5027   -0.0329 H         1 <0>         0.1406
     31 H5          1.2213   -1.7599   -0.0195 H         1 <0>         0.1302
     32 H6         -0.9054   -1.8398    1.8423 H         1 <0>         0.0805
     33 H7         -1.6786   -0.2520    2.0642 H         1 <0>         0.0873
     34 H8         -3.7752   -1.1350    1.0776 H         1 <0>         0.0891
     35 H9         -3.0020   -2.7228    0.8556 H         1 <0>         0.0949
     36 H10        -2.6399   -2.8886    3.3031 H         1 <0>         0.1307
     37 H11        -3.4131   -1.3008    3.5251 H         1 <0>         0.1302
     38 H12        -5.7684   -1.0568    3.2175 H         1 <0>         0.1380
     39 H13        -5.4752   -1.4958    1.5182 H         1 <0>         0.1349
     40 H14        -7.8512   -1.8528    2.1340 H         1 <0>         0.1236
     41 H15        -7.0553   -3.3954    1.7365 H         1 <0>         0.1044
     42 H16        -6.5521   -4.4027    5.3138 H         1 <0>         0.1172
     43 H17        -6.2819   -4.9133    3.6294 H         1 <0>         0.1008
     44 H18        -4.2070   -3.9849    4.6221 H         1 <0>         0.1323
     45 H19        -5.0544   -2.4582    4.9651 H         1 <0>         0.1348
     46 H20        -8.4688   -4.4775    1.7449 H         1 <0>         0.1334
     47 H21       -10.6032   -5.7001    1.6358 H         1 <0>         0.1408
     48 H22       -11.4318   -4.6106    5.6773 H         1 <0>         0.1414
     49 H23        -9.2920   -3.3975    5.7879 H         1 <0>         0.1323
     50 H24        -7.7841   -2.2924    5.6589 H         1 <0>         0.3908
     51 H25        -0.4557   -2.5601   -0.4506 H         1 <0>         0.3775
     52 H26        -4.7059   -3.6321    2.2990 H         1 <0>         0.4210
@<TRIPOS>BOND
     1    1    6 ar
     2    1    2 ar
     3    1   28 1
     4    2    3 ar
     5    2   29 1
     6    3    4 ar
     7    3   27 1
     8    4    5 ar
     9    4   30 1
    10    5    6 ar
    11    5   31 1
    12    6    7 1
    13    7    8 1
    14    7    9 1
    15    7   26 1
    16    9   10 1
    17    9   32 1
    18    9   33 1
    19   10   11 1
    20   10   34 1
    21   10   35 1
    22   11   12 1
    23   11   36 1
    24   11   37 1
    25   12   17 1
    26   12   13 1
    27   12   52 1
    28   13   14 1
    29   13   38 1
    30   13   39 1
    31   14   15 1
    32   14   40 1
    33   14   41 1
    34   15   16 1
    35   15   18 1
    36   15   25 1
    37   16   17 1
    38   16   42 1
    39   16   43 1
    40   17   44 1
    41   17   45 1
    42   18   23 ar
    43   18   19 ar
    44   19   20 ar
    45   19   46 1
    46   20   21 ar
    47   20   47 1
    48   21   22 ar
    49   21   24 1
    50   22   23 ar
    51   22   48 1
    52   23   49 1
    53   25   50 1
    54   26   51 1
@<TRIPOS>MOLECULE
ZINC12355992
   44    45     0     0     0
SMALL
USER_CHARGES
N-(3-phenoxypropyl)-3-phenyl-propan-1-amine
@<TRIPOS>ATOM
      1 C1         -0.0126    1.0758    0.0080 C.ar      1 <0>        -0.1125
      2 C2         -1.2190    1.7506    0.0173 C.ar      1 <0>        -0.1154
      3 C3         -1.2377    3.1328    0.0299 C.ar      1 <0>        -0.1155
      4 C4         -0.0501    3.8402    0.0228 C.ar      1 <0>        -0.1025
      5 C5          1.1563    3.1654    0.0076 C.ar      1 <0>        -0.1155
      6 C6          1.1750    1.7832    0.0004 C.ar      1 <0>        -0.1154
      7 C7         -0.0705    5.3471    0.0311 C.3       1 <0>        -0.0728
      8 C8         -0.0912    5.8648   -1.4085 C.3       1 <0>        -0.1459
      9 C9         -0.1120    7.3946   -1.4000 C.3       1 <0>        -0.0059
     10 C10        -0.1521    9.3603   -2.8132 C.3       1 <0>        -0.0008
     11 C11        -0.1725    9.8394   -4.2661 C.3       1 <0>        -0.1522
     12 C12        -0.1936   11.3689   -4.2985 C.3       1 <0>         0.0624
     13 O1         -0.2126   11.8164   -5.6555 O.3       1 <0>        -0.3144
     14 C13        -0.2328   13.1595   -5.8620 C.ar      1 <0>         0.1180
     15 C14        -0.2401   14.0287   -4.7807 C.ar      1 <0>        -0.2082
     16 C15        -0.2554   15.3936   -4.9934 C.ar      1 <0>        -0.0800
     17 C16        -0.2739   15.8935   -6.2824 C.ar      1 <0>        -0.1478
     18 C17        -0.2725   15.0292   -7.3616 C.ar      1 <0>        -0.0770
     19 C18        -0.2520   13.6636   -7.1544 C.ar      1 <0>        -0.1465
     20 H1          0.0021   -0.0041    0.0020 H         1 <0>         0.1269
     21 H2         -2.1469    1.1980    0.0187 H         1 <0>         0.1265
     22 H3         -2.1802    3.6600    0.0414 H         1 <0>         0.1214
     23 H4          2.0842    3.7181    0.0017 H         1 <0>         0.1215
     24 H5          2.1175    1.2560   -0.0115 H         1 <0>         0.1265
     25 H6         -0.9604    5.6955    0.5554 H         1 <0>         0.0831
     26 H7          0.8193    5.7197    0.5385 H         1 <0>         0.0830
     27 H8          0.7987    5.5164   -1.9327 H         1 <0>         0.0894
     28 H9         -0.9811    5.4922   -1.9158 H         1 <0>         0.0894
     29 H10        -1.0018    7.7430   -0.8757 H         1 <0>         0.1329
     30 H11         0.7779    7.7673   -0.8926 H         1 <0>         0.1329
     31 H12        -1.0423    9.7223   -2.2988 H         1 <0>         0.1352
     32 H13         0.7374    9.7465   -2.3157 H         1 <0>         0.1352
     33 H14         0.7177    9.4774   -4.7806 H         1 <0>         0.0997
     34 H15        -1.0620    9.4531   -4.7637 H         1 <0>         0.0997
     35 H16        -1.0837   11.7310   -3.7840 H         1 <0>         0.0722
     36 H17         0.6960   11.7552   -3.8009 H         1 <0>         0.0722
     37 H18        -0.2298   13.6387   -3.7737 H         1 <0>         0.1246
     38 H19        -0.2573   16.0708   -4.1520 H         1 <0>         0.1286
     39 H20        -0.2900   16.9608   -6.4465 H         1 <0>         0.1295
     40 H21        -0.2870   15.4221   -8.3675 H         1 <0>         0.1349
     41 H22        -0.2512   12.9889   -7.9977 H         1 <0>         0.1324
     42 N1         -0.1319    7.8855   -2.7909 N.4       1 <0>        -0.5184
     43 H23        -0.9700    7.5280   -3.2642 H         1 <0>         0.4344
     44 H24         0.7064    7.5508   -3.2802 H         1 <0>         0.4344
@<TRIPOS>BOND
     1    1    6 ar
     2    1    2 ar
     3    1   20 1
     4    2    3 ar
     5    2   21 1
     6    3    4 ar
     7    3   22 1
     8    4    5 ar
     9    4    7 1
    10    5    6 ar
    11    5   23 1
    12    6   24 1
    13    7    8 1
    14    7   25 1
    15    7   26 1
    16    8    9 1
    17    8   27 1
    18    8   28 1
    19    9   29 1
    20    9   30 1
    21    9   42 1
    22   10   11 1
    23   10   31 1
    24   10   32 1
    25   10   42 1
    26   11   12 1
    27   11   33 1
    28   11   34 1
    29   12   13 1
    30   12   35 1
    31   12   36 1
    32   13   14 1
    33   14   19 ar
    34   14   15 ar
    35   15   16 ar
    36   15   37 1
    37   16   17 ar
    38   16   38 1
    39   17   18 ar
    40   17   39 1
    41   18   19 ar
    42   18   40 1
    43   19   41 1
    44   42   43 1
    45   42   44 1
@<TRIPOS>MOLECULE
ZINC00004028
   48    50     0     0     0
SMALL
USER_CHARGES

@<TRIPOS>ATOM
      1 C1          2.6184    1.2327    1.6979 C.3       1 <0>        -0.1554
      2 C2          2.4485   -0.2812    1.5557 C.3       1 <0>        -0.1529
      3 C3          0.9894   -0.6020    1.2256 C.3       1 <0>        -0.0212
      4 N1          0.8360   -2.0514    1.0424 N.4       1 <0>        -0.3812
      5 C4          1.6121   -2.4819   -0.1282 C.3       1 <0>        -0.0188
      6 C5          1.0259   -1.8464   -1.3906 C.3       1 <0>        -0.0477
      7 C6          1.7319   -2.3952   -2.6036 C.2       1 <0>        -0.1917
      8 C7          1.4198   -3.4790   -3.3554 C.2       1 <0>        -0.1225
      9 C8          2.2198   -3.7976   -4.4367 C.2       1 <0>        -0.1695
     10 C9          3.2928   -3.0169   -4.7132 C.2       1 <0>        -0.1431
     11 S1          3.1920   -1.7820   -3.4279 S.3       1 <0>         0.0577
     12 C10         1.3251   -2.7506    2.2382 C.3       1 <0>         0.0204
     13 H1          2.3765   -2.5120    2.3985 H         1 <0>         0.1452
     14 C11         0.5055   -2.3190    3.4600 C.3       1 <0>        -0.1385
     15 C12         1.1825   -2.8706    4.7131 C.3       1 <0>        -0.0686
     16 C13         1.4456   -4.3464    4.5666 C.ar      1 <0>        -0.1099
     17 C14         1.4438   -4.9820    3.3461 C.ar      1 <0>        -0.0756
     18 C15         1.7023   -6.3452    3.2794 C.ar      1 <0>        -0.1201
     19 C16         1.9552   -7.0706    4.4259 C.ar      1 <0>        -0.0943
     20 C17         1.9532   -6.4380    5.6538 C.ar      1 <0>        -0.1326
     21 C18         1.6995   -5.0785    5.7249 C.ar      1 <0>         0.1136
     22 O1          1.6981   -4.4542    6.9321 O.3       1 <0>        -0.4942
     23 C19         1.1618   -4.2581    2.0553 C.3       1 <0>        -0.0920
     24 H2          1.9760    1.5966    2.4997 H         1 <0>         0.0674
     25 H3          3.6579    1.4612    1.9330 H         1 <0>         0.0772
     26 H4          2.3422    1.7187    0.7621 H         1 <0>         0.0670
     27 H5          3.0909   -0.6452    0.7538 H         1 <0>         0.0859
     28 H6          2.7247   -0.7673    2.4914 H         1 <0>         0.0880
     29 H7          0.3503   -0.2695    2.0436 H         1 <0>         0.1350
     30 H8          0.7028   -0.0875    0.3084 H         1 <0>         0.1340
     31 H9          2.6495   -2.1682   -0.0117 H         1 <0>         0.1360
     32 H10         1.5682   -3.5676   -0.2140 H         1 <0>         0.1367
     33 H11        -0.0374   -2.0776   -1.4535 H         1 <0>         0.1051
     34 H12         1.1609   -0.7656   -1.3495 H         1 <0>         0.1008
     35 H13         0.5591   -4.0847   -3.1131 H         1 <0>         0.1354
     36 H14         1.9935   -4.6560   -5.0518 H         1 <0>         0.1421
     37 H15         4.0181   -3.1143   -5.5075 H         1 <0>         0.1932
     38 H16         0.4685   -1.2308    3.5115 H         1 <0>         0.0948
     39 H17        -0.5059   -2.7180    3.3832 H         1 <0>         0.0927
     40 H18         2.1277   -2.3508    4.8694 H         1 <0>         0.0894
     41 H19         0.5350   -2.7046    5.5741 H         1 <0>         0.0955
     42 H20         1.7050   -6.8425    2.3207 H         1 <0>         0.1286
     43 H21         2.1539   -8.1303    4.3632 H         1 <0>         0.1354
     44 H22         2.1482   -7.0012    6.5544 H         1 <0>         0.1369
     45 H23         0.8341   -4.4392    7.3661 H         1 <0>         0.3954
     46 H24         0.1413   -4.4732    1.7385 H         1 <0>         0.0975
     47 H25         1.8558   -4.6044    1.2895 H         1 <0>         0.0997
     48 H26        -0.1383   -2.2711    0.8992 H         1 <0>         0.4230
@<TRIPOS>BOND
     1    1    2 1
     2    1   24 1
     3    1   25 1
     4    1   26 1
     5    2    3 1
     6    2   27 1
     7    2   28 1
     8    3    4 1
     9    3   29 1
    10    3   30 1
    11    4    5 1
    12    4   12 1
    13    4   48 1
    14    5    6 1
    15    5   31 1
    16    5   32 1
    17    6    7 1
    18    6   33 1
    19    6   34 1
    20    7   11 1
    21    7    8 2
    22    8    9 1
    23    8   35 1
    24    9   10 2
    25    9   36 1
    26   10   11 1
    27   10   37 1
    28   12   13 1
    29   12   23 1
    30   12   14 1
    31   14   15 1
    32   14   38 1
    33   14   39 1
    34   15   16 1
    35   15   40 1
    36   15   41 1
    37   16   21 ar
    38   16   17 ar
    39   17   18 ar
    40   17   23 1
    41   18   19 ar
    42   18   42 1
    43   19   20 ar
    44   19   43 1
    45   20   21 ar
    46   20   44 1
    47   21   22 1
    48   22   45 1
    49   23   46 1
    50   23   47 1
@<TRIPOS>MOLECULE
ZINC13759806
   26    27     0     0     0
SMALL
USER_CHARGES
(3R)-3-aminotetralin-6-ol
@<TRIPOS>ATOM
      1 C1          1.1590    3.1662    0.0083 C.ar      1 <0>        -0.1316
      2 C2         -0.0486    3.8312    0.0267 C.ar      1 <0>        -0.0951
      3 C3         -1.2451    3.1253    0.0356 C.ar      1 <0>        -0.0954
      4 C4         -1.2267    1.7480    0.0174 C.ar      1 <0>        -0.0764
      5 C5         -0.0126    1.0758    0.0080 C.ar      1 <0>        -0.1401
      6 C6          1.1802    1.7792    0.0003 C.ar      1 <0>         0.1183
      7 O1          2.3652    1.1142   -0.0144 O.3       1 <0>        -0.4960
      8 C7         -2.4855    0.9206    0.0161 C.3       1 <0>        -0.0960
      9 C8         -3.6812    1.7583    0.4645 C.3       1 <0>         0.0308
     10 H1         -3.5820    2.0031    1.5221 H         1 <0>         0.1486
     11 C9         -3.7058    3.0482   -0.3639 C.3       1 <0>        -0.1409
     12 C10        -2.5257    3.9183    0.0637 C.3       1 <0>        -0.0773
     13 H2          2.0845    3.7227    0.0006 H         1 <0>         0.1377
     14 H3         -0.0646    4.9110    0.0346 H         1 <0>         0.1340
     15 H4          0.0021   -0.0041    0.0020 H         1 <0>         0.1325
     16 H5          2.6998    0.9264   -0.9020 H         1 <0>         0.3991
     17 H6         -2.3640    0.0758    0.6941 H         1 <0>         0.1008
     18 H7         -2.6656    0.5482   -0.9924 H         1 <0>         0.0979
     19 H8         -4.6392    3.5819   -0.1846 H         1 <0>         0.0948
     20 H9         -3.6189    2.8065   -1.4232 H         1 <0>         0.0933
     21 H10        -2.6984    4.2863    1.0750 H         1 <0>         0.0902
     22 H11        -2.4390    4.7651   -0.6171 H         1 <0>         0.0980
     23 H12        -4.9284    0.1515    0.7822 H         1 <0>         0.4393
     24 H13        -5.7315    1.5714    0.4587 H         1 <0>         0.4402
     25 N1         -4.9216    1.0012    0.2205 N.4       1 <0>        -0.6443
     26 H14        -4.9717    0.7466   -0.7729 H         1 <0>         0.4377
@<TRIPOS>BOND
     1    1    6 ar
     2    1    2 ar
     3    1   13 1
     4    2    3 ar
     5    2   14 1
     6    3   12 1
     7    3    4 ar
     8    4    5 ar
     9    4    8 1
    10    5    6 ar
    11    5   15 1
    12    6    7 1
    13    7   16 1
    14    8    9 1
    15    8   17 1
    16    8   18 1
    17    9   10 1
    18    9   11 1
    19    9   25 1
    20   11   12 1
    21   11   19 1
    22   11   20 1
    23   12   21 1
    24   12   22 1
    25   23   25 1
    26   24   25 1
    27   25   26 1
@<TRIPOS>MOLECULE
ZINC13759807
   26    27     0     0     0
SMALL
USER_CHARGES
(3S)-3-aminotetralin-6-ol
@<TRIPOS>ATOM
      1 C1          1.8648    1.8234    1.1934 C.ar      1 <0>        -0.1316
      2 C2          3.1199    2.3940    1.1734 C.ar      1 <0>        -0.0951
      3 C3          3.7432    2.6905   -0.0321 C.ar      1 <0>        -0.0957
      4 C4          3.1032    2.4122   -1.2198 C.ar      1 <0>        -0.0760
      5 C5          1.8432    1.8305   -1.2029 C.ar      1 <0>        -0.1402
      6 C6          1.2228    1.5324   -0.0014 C.ar      1 <0>         0.1184
      7 O1         -0.0110    0.9628    0.0073 O.3       1 <0>        -0.4960
      8 C7          3.7134    2.7226   -2.5616 C.3       1 <0>        -0.0930
      9 C8          5.2190    2.9428   -2.4293 C.3       1 <0>         0.0309
     10 H1          5.7075    2.0014   -2.1778 H         1 <0>         0.1452
     11 C9          5.4623    3.9651   -1.3128 C.3       1 <0>        -0.1413
     12 C10         5.1148    3.3112    0.0230 C.3       1 <0>        -0.0771
     13 H2          1.3854    1.6003    2.1350 H         1 <0>         0.1378
     14 H3          3.6215    2.6159    2.1037 H         1 <0>         0.1340
     15 H4          1.3430    1.6084   -2.1339 H         1 <0>         0.1326
     16 H5          0.0021   -0.0041    0.0020 H         1 <0>         0.3990
     17 H6          3.5303    1.8901   -3.2409 H         1 <0>         0.1002
     18 H7          3.2526    3.6238   -2.9661 H         1 <0>         0.0984
     19 H8          4.8288    4.8381   -1.4700 H         1 <0>         0.0938
     20 H9          6.5097    4.2668   -1.3125 H         1 <0>         0.0946
     21 H10         5.1365    4.0660    0.8091 H         1 <0>         0.0981
     22 H11         5.8504    2.5384    0.2464 H         1 <0>         0.0897
     23 H12         5.6073    2.7979   -4.4459 H         1 <0>         0.4391
     24 H13         5.3586    4.3559   -3.9199 H         1 <0>         0.4361
     25 N1          5.7815    3.4582   -3.6900 N.4       1 <0>        -0.6445
     26 H14         6.7948    3.5832   -3.5812 H         1 <0>         0.4426
@<TRIPOS>BOND
     1    1    6 ar
     2    1    2 ar
     3    1   13 1
     4    2    3 ar
     5    2   14 1
     6    3   12 1
     7    3    4 ar
     8    4    5 ar
     9    4    8 1
    10    5    6 ar
    11    5   15 1
    12    6    7 1
    13    7   16 1
    14    8    9 1
    15    8   17 1
    16    8   18 1
    17    9   10 1
    18    9   11 1
    19    9   25 1
    20   11   12 1
    21   11   19 1
    22   11   20 1
    23   12   21 1
    24   12   22 1
    25   23   25 1
    26   24   25 1
    27   25   26 1
@<TRIPOS>MOLECULE
ZINC13759785
   35    36     0     0     0
SMALL
USER_CHARGES
(2R)-N-ethyl-5-methoxy-tetralin-2-amine
@<TRIPOS>ATOM
      1 C1         -0.0127    1.0858    0.0080 C.3       1 <0>        -0.1900
      2 C2         -0.7288    1.5792    1.2668 C.3       1 <0>        -0.0070
      3 C3         -1.4302    3.5588    2.4719 C.3       1 <0>         0.0276
      4 H1         -2.2562    2.8977    2.7342 H         1 <0>         0.1439
      5 C4         -1.9638    4.9701    2.1997 C.3       1 <0>        -0.1384
      6 C5         -2.8656    5.3767    3.3635 C.3       1 <0>        -0.0664
      7 C6         -2.1616    5.1648    4.6782 C.ar      1 <0>        -0.1169
      8 C7         -1.0534    4.3586    4.8040 C.ar      1 <0>        -0.0559
      9 C8         -0.4593    4.1943    6.0488 C.ar      1 <0>        -0.1502
     10 C9         -0.9667    4.8347    7.1610 C.ar      1 <0>        -0.0701
     11 C10        -2.0761    5.6487    7.0388 C.ar      1 <0>        -0.1986
     12 C11        -2.6728    5.8142    5.8002 C.ar      1 <0>         0.1364
     13 O1         -3.7637    6.6153    5.6781 O.3       1 <0>        -0.3144
     14 C12        -4.2374    7.2520    6.8665 C.3       1 <0>         0.0237
     15 C13        -0.4419    3.6331    3.6340 C.3       1 <0>        -0.0899
     16 H2          0.0021   -0.0041    0.0020 H         1 <0>         0.1066
     17 H3          1.0099    1.4631    0.0003 H         1 <0>         0.0805
     18 H4         -0.5399    1.4469   -0.8751 H         1 <0>         0.0807
     19 H5         -1.7514    1.2020    1.2746 H         1 <0>         0.1303
     20 H6         -0.2017    1.2182    2.1499 H         1 <0>         0.1293
     21 H7         -1.1307    5.6684    2.1193 H         1 <0>         0.0928
     22 H8         -2.5370    4.9735    1.2726 H         1 <0>         0.0936
     23 H9         -3.7742    4.7751    3.3413 H         1 <0>         0.0862
     24 H10        -3.1297    6.4294    3.2628 H         1 <0>         0.0985
     25 H11         0.4087    3.5593    6.1473 H         1 <0>         0.1274
     26 H12        -0.4975    4.7001    8.1244 H         1 <0>         0.1334
     27 H13        -2.4765    6.1535    7.9056 H         1 <0>         0.1360
     28 H14        -4.5113    6.4941    7.6003 H         1 <0>         0.0603
     29 H15        -3.4520    7.8872    7.2761 H         1 <0>         0.0603
     30 H16        -5.1101    7.8605    6.6295 H         1 <0>         0.1073
     31 H17        -0.1701    2.6228    3.9399 H         1 <0>         0.0995
     32 H18         0.4539    4.1633    3.3107 H         1 <0>         0.0988
     33 N1         -0.7445    3.0543    1.2672 N.4       1 <0>        -0.5181
     34 H19        -1.2388    3.3880    0.4314 H         1 <0>         0.4326
     35 H20         0.2210    3.4033    1.2559 H         1 <0>         0.4301
@<TRIPOS>BOND
     1    1    2 1
     2    1   16 1
     3    1   17 1
     4    1   18 1
     5    2   19 1
     6    2   20 1
     7    2   33 1
     8    3    4 1
     9    3   15 1
    10    3    5 1
    11    3   33 1
    12    5    6 1
    13    5   21 1
    14    5   22 1
    15    6    7 1
    16    6   23 1
    17    6   24 1
    18    7   12 ar
    19    7    8 ar
    20    8    9 ar
    21    8   15 1
    22    9   10 ar
    23    9   25 1
    24   10   11 ar
    25   10   26 1
    26   11   12 ar
    27   11   27 1
    28   12   13 1
    29   13   14 1
    30   14   28 1
    31   14   29 1
    32   14   30 1
    33   15   31 1
    34   15   32 1
    35   33   34 1
    36   33   35 1
@<TRIPOS>MOLECULE
ZINC13759786
   35    36     0     0     0
SMALL
USER_CHARGES
(2S)-N-ethyl-5-methoxy-tetralin-2-amine
@<TRIPOS>ATOM
      1 C1          2.0293    9.8836    1.0446 C.3       1 <0>        -0.1900
      2 C2          1.9729    8.3800    1.3217 C.3       1 <0>        -0.0070
      3 C3          1.2751    6.2465    0.4140 C.3       1 <0>         0.0274
      4 H1          1.1065    6.0511    1.4730 H         1 <0>         0.1434
      5 C4          0.1291    5.6480   -0.4103 C.3       1 <0>        -0.1380
      6 C5         -0.0733    4.1988    0.0273 C.3       1 <0>        -0.0665
      7 C6          1.2339    3.4509    0.0030 C.ar      1 <0>        -0.1169
      8 C7          2.4529    4.0894   -0.0062 C.ar      1 <0>        -0.0557
      9 C8          3.6226    3.3402   -0.0176 C.ar      1 <0>        -0.1501
     10 C9          3.5749    1.9610   -0.0216 C.ar      1 <0>        -0.0701
     11 C10         2.3537    1.3155   -0.0134 C.ar      1 <0>        -0.1985
     12 C11         1.1850    2.0582    0.0018 C.ar      1 <0>         0.1364
     13 O1         -0.0173    1.4248    0.0099 O.3       1 <0>        -0.3144
     14 C12         0.0021   -0.0041    0.0020 C.3       1 <0>         0.0237
     15 C13         2.5813    5.5903   -0.0184 C.3       1 <0>        -0.0901
     16 H2          2.6159   10.0654    0.1441 H         1 <0>         0.0805
     17 H3          1.0182   10.2651    0.9029 H         1 <0>         0.0807
     18 H4          2.4941   10.3916    1.8897 H         1 <0>         0.1066
     19 H5          1.3864    8.1982    2.2222 H         1 <0>         0.1303
     20 H6          2.9841    7.9985    1.4635 H         1 <0>         0.1293
     21 H7          0.3835    5.6795   -1.4697 H         1 <0>         0.0927
     22 H8         -0.7847    6.2156   -0.2346 H         1 <0>         0.0938
     23 H9         -0.7774    3.7141   -0.6490 H         1 <0>         0.0986
     24 H10        -0.4782    4.1820    1.0392 H         1 <0>         0.0862
     25 H11         4.5788    3.8421   -0.0238 H         1 <0>         0.1274
     26 H12         4.4902    1.3878   -0.0307 H         1 <0>         0.1334
     27 H13         2.3106    0.2364   -0.0183 H         1 <0>         0.1360
     28 H14         0.5293   -0.3651    0.8851 H         1 <0>         0.0603
     29 H15        -1.0205   -0.3814    0.0098 H         1 <0>         0.1073
     30 H16         0.5123   -0.3556   -0.8948 H         1 <0>         0.0603
     31 H17         3.3827    5.8878    0.6578 H         1 <0>         0.1004
     32 H18         2.8223    5.9221   -1.0283 H         1 <0>         0.0975
     33 N1          1.3429    7.7003    0.1740 N.4       1 <0>        -0.5180
     34 H19         1.8978    7.8785   -0.6714 H         1 <0>         0.4301
     35 H20         0.3927    8.0667    0.0433 H         1 <0>         0.4327
@<TRIPOS>BOND
     1    1    2 1
     2    1   16 1
     3    1   17 1
     4    1   18 1
     5    2   19 1
     6    2   20 1
     7    2   33 1
     8    3    4 1
     9    3   15 1
    10    3    5 1
    11    3   33 1
    12    5    6 1
    13    5   21 1
    14    5   22 1
    15    6    7 1
    16    6   23 1
    17    6   24 1
    18    7   12 ar
    19    7    8 ar
    20    8    9 ar
    21    8   15 1
    22    9   10 ar
    23    9   25 1
    24   10   11 ar
    25   10   26 1
    26   11   12 ar
    27   11   27 1
    28   12   13 1
    29   13   14 1
    30   14   28 1
    31   14   29 1
    32   14   30 1
    33   15   31 1
    34   15   32 1
    35   33   34 1
    36   33   35 1
@<TRIPOS>MOLECULE
ZINC13759783
   32    33     0     0     0
SMALL
USER_CHARGES
(2R)-5-methoxy-N-methyl-tetralin-2-amine
@<TRIPOS>ATOM
      1 C1         -0.0127    1.0858    0.0080 C.3       1 <0>        -0.0444
      2 C2         -2.0844    1.0695    1.2612 C.3       1 <0>         0.0259
      3 H1         -2.4951    1.0375    0.2520 H         1 <0>         0.1442
      4 C3         -2.9336    1.9994    2.1358 C.3       1 <0>        -0.1387
      5 C4         -4.4008    1.6083    1.9711 C.3       1 <0>        -0.0666
      6 C5         -4.5822    0.1288    2.1875 C.ar      1 <0>        -0.1171
      7 C6         -3.5344   -0.7618    2.1356 C.ar      1 <0>        -0.0563
      8 C7         -3.7719   -2.1165    2.3303 C.ar      1 <0>        -0.1502
      9 C8         -5.0481   -2.5787    2.5795 C.ar      1 <0>        -0.0700
     10 C9         -6.1024   -1.6881    2.6373 C.ar      1 <0>        -0.1985
     11 C10        -5.8708   -0.3368    2.4421 C.ar      1 <0>         0.1364
     12 O1         -6.9067    0.5409    2.4995 O.3       1 <0>        -0.3144
     13 C11        -8.2022   -0.0009    2.7644 C.3       1 <0>         0.0236
     14 C12        -2.1154   -0.3293    1.8737 C.3       1 <0>        -0.0901
     15 H2          0.0021   -0.0041    0.0020 H         1 <0>         0.1220
     16 H3          1.0099    1.4631    0.0003 H         1 <0>         0.1261
     17 H4         -0.5399    1.4469   -0.8751 H         1 <0>         0.1231
     18 H5         -2.6396    1.8911    3.1798 H         1 <0>         0.0927
     19 H6         -2.7912    3.0326    1.8191 H         1 <0>         0.0938
     20 H7         -4.7312    1.8676    0.9652 H         1 <0>         0.0862
     21 H8         -5.0016    2.1543    2.6985 H         1 <0>         0.0985
     22 H9         -2.9494   -2.8151    2.2867 H         1 <0>         0.1275
     23 H10        -5.2221   -3.6340    2.7293 H         1 <0>         0.1335
     24 H11        -7.1030   -2.0441    2.8335 H         1 <0>         0.1361
     25 H12        -8.1937   -0.5075    3.7295 H         1 <0>         0.0603
     26 H13        -8.9361    0.8047    2.7834 H         1 <0>         0.1074
     27 H14        -8.4649   -0.7134    1.9825 H         1 <0>         0.0603
     28 H15        -1.6462   -1.0331    1.1862 H         1 <0>         0.0998
     29 H16        -1.5631   -0.3225    2.8134 H         1 <0>         0.0989
     30 N1         -0.6958    1.5658    1.2241 N.4       1 <0>        -0.5179
     31 H17        -0.7030    2.5925    1.2256 H         1 <0>         0.4352
     32 H18        -0.1924    1.2258    2.0519 H         1 <0>         0.4326
@<TRIPOS>BOND
     1    1   15 1
     2    1   16 1
     3    1   17 1
     4    1   30 1
     5    2    3 1
     6    2   14 1
     7    2    4 1
     8    2   30 1
     9    4    5 1
    10    4   18 1
    11    4   19 1
    12    5    6 1
    13    5   20 1
    14    5   21 1
    15    6   11 ar
    16    6    7 ar
    17    7    8 ar
    18    7   14 1
    19    8    9 ar
    20    8   22 1
    21    9   10 ar
    22    9   23 1
    23   10   11 ar
    24   10   24 1
    25   11   12 1
    26   12   13 1
    27   13   25 1
    28   13   26 1
    29   13   27 1
    30   14   28 1
    31   14   29 1
    32   30   31 1
    33   30   32 1
@<TRIPOS>MOLECULE
ZINC13759784
   32    33     0     0     0
SMALL
USER_CHARGES
(2S)-5-methoxy-N-methyl-tetralin-2-amine
@<TRIPOS>ATOM
      1 C1          1.9729    8.3800    1.3217 C.3       1 <0>        -0.0444
      2 C2          1.2751    6.2465    0.4140 C.3       1 <0>         0.0258
      3 H1          1.1065    6.0511    1.4730 H         1 <0>         0.1436
      4 C3          0.1291    5.6480   -0.4103 C.3       1 <0>        -0.1383
      5 C4         -0.0733    4.1988    0.0273 C.3       1 <0>        -0.0666
      6 C5          1.2339    3.4509    0.0030 C.ar      1 <0>        -0.1171
      7 C6          2.4529    4.0894   -0.0053 C.ar      1 <0>        -0.0561
      8 C7          3.6226    3.3402   -0.0176 C.ar      1 <0>        -0.1501
      9 C8          3.5749    1.9610   -0.0216 C.ar      1 <0>        -0.0700
     10 C9          2.3537    1.3155   -0.0134 C.ar      1 <0>        -0.1985
     11 C10         1.1850    2.0582    0.0018 C.ar      1 <0>         0.1364
     12 O1         -0.0173    1.4248    0.0099 O.3       1 <0>        -0.3144
     13 C11         0.0021   -0.0041    0.0020 C.3       1 <0>         0.0236
     14 C12         2.5814    5.5903   -0.0165 C.3       1 <0>        -0.0903
     15 H2          2.0131    9.4512    1.1243 H         1 <0>         0.1261
     16 H3          1.3864    8.1982    2.2222 H         1 <0>         0.1231
     17 H4          2.9841    7.9985    1.4635 H         1 <0>         0.1220
     18 H5          0.3835    5.6795   -1.4697 H         1 <0>         0.0927
     19 H6         -0.7847    6.2156   -0.2346 H         1 <0>         0.0940
     20 H7         -0.7774    3.7141   -0.6490 H         1 <0>         0.0986
     21 H8         -0.4782    4.1820    1.0392 H         1 <0>         0.0862
     22 H9          4.5788    3.8421   -0.0238 H         1 <0>         0.1275
     23 H10         4.4902    1.3878   -0.0307 H         1 <0>         0.1335
     24 H11         2.3106    0.2364   -0.0191 H         1 <0>         0.1361
     25 H12        -1.0205   -0.3814    0.0098 H         1 <0>         0.1074
     26 H13         0.5123   -0.3556   -0.8948 H         1 <0>         0.0603
     27 H14         0.5293   -0.3651    0.8851 H         1 <0>         0.0603
     28 H15         3.3830    5.8874    0.6596 H         1 <0>         0.1008
     29 H16         2.8220    5.9228   -1.0263 H         1 <0>         0.0974
     30 N1          1.3429    7.7003    0.1740 N.4       1 <0>        -0.5178
     31 H17         1.8978    7.8785   -0.6714 H         1 <0>         0.4326
     32 H18         0.3927    8.0667    0.0433 H         1 <0>         0.4353
@<TRIPOS>BOND
     1    1   15 1
     2    1   16 1
     3    1   17 1
     4    1   30 1
     5    2    3 1
     6    2   14 1
     7    2    4 1
     8    2   30 1
     9    4    5 1
    10    4   18 1
    11    4   19 1
    12    5    6 1
    13    5   20 1
    14    5   21 1
    15    6   11 ar
    16    6    7 ar
    17    7    8 ar
    18    7   14 1
    19    8    9 ar
    20    8   22 1
    21    9   10 ar
    22    9   23 1
    23   10   11 ar
    24   10   24 1
    25   11   12 1
    26   12   13 1
    27   13   25 1
    28   13   26 1
    29   13   27 1
    30   14   28 1
    31   14   29 1
    32   30   31 1
    33   30   32 1
@<TRIPOS>MOLECULE
ZINC13759787
   38    39     0     0     0
SMALL
USER_CHARGES
(2R)-5-methoxy-N-propyl-tetralin-2-amine
@<TRIPOS>ATOM
      1 C1         -4.3057   -1.1970   -2.0529 C.3       1 <0>        -0.1571
      2 C2         -3.5165   -1.1260   -0.7441 C.3       1 <0>        -0.1513
      3 C3         -2.1122   -0.5868   -1.0240 C.3       1 <0>        -0.0078
      4 C4          0.0021   -0.0041    0.0020 C.3       1 <0>         0.0277
      5 H1          0.3723   -0.3610   -0.9591 H         1 <0>         0.1440
      6 C5          0.9328   -0.4808    1.1234 C.3       1 <0>        -0.1383
      7 C6          2.3697   -0.1383    0.7348 C.3       1 <0>        -0.0663
      8 C7          2.4799    1.3101    0.3364 C.ar      1 <0>        -0.1168
      9 C8          1.3843    2.0718   -0.0000 C.ar      1 <0>        -0.0557
     10 C9          1.5556    3.4010   -0.3656 C.ar      1 <0>        -0.1502
     11 C10         2.8139    3.9671   -0.3918 C.ar      1 <0>        -0.0700
     12 C11         3.9163    3.2077   -0.0509 C.ar      1 <0>        -0.1986
     13 C12         3.7505    1.8819    0.3126 C.ar      1 <0>         0.1364
     14 O1          4.8341    1.1333    0.6480 O.3       1 <0>        -0.3144
     15 C13         6.1079    1.7793    0.6032 C.3       1 <0>         0.0237
     16 C14        -0.0186    1.5231    0.0104 C.3       1 <0>        -0.0899
     17 H2         -5.3061   -1.5811   -1.8535 H         1 <0>         0.0775
     18 H3         -4.3793   -0.2000   -2.4874 H         1 <0>         0.0670
     19 H4         -3.7941   -1.8604   -2.7502 H         1 <0>         0.0671
     20 H5         -3.4429   -2.1229   -0.3097 H         1 <0>         0.0862
     21 H6         -4.0281   -0.4626   -0.0468 H         1 <0>         0.0861
     22 H7         -2.1858    0.4102   -1.4585 H         1 <0>         0.1300
     23 H8         -1.6006   -1.2502   -1.7213 H         1 <0>         0.1309
     24 H9          0.6742    0.0234    2.0545 H         1 <0>         0.0928
     25 H10         0.8332   -1.5589    1.2497 H         1 <0>         0.0936
     26 H11         3.0266   -0.3286    1.5836 H         1 <0>         0.0986
     27 H12         2.6748   -0.7657   -0.1027 H         1 <0>         0.0862
     28 H13         0.6955    3.9972   -0.6323 H         1 <0>         0.1274
     29 H14         2.9364    5.0013   -0.6778 H         1 <0>         0.1334
     30 H15         4.9032    3.6461   -0.0681 H         1 <0>         0.1360
     31 H16         6.1112    2.6242    1.2919 H         1 <0>         0.0603
     32 H17         6.8846    1.0715    0.8929 H         1 <0>         0.1073
     33 H18         6.2996    2.1349   -0.4091 H         1 <0>         0.0603
     34 H19        -0.5508    1.8802   -0.8712 H         1 <0>         0.0995
     35 H20        -0.5339    1.8707    0.9059 H         1 <0>         0.0989
     36 N1         -1.3583   -0.5215    0.2422 N.4       1 <0>        -0.5177
     37 H21        -1.2959   -1.4625    0.6482 H         1 <0>         0.4328
     38 H22        -1.8471    0.1016    0.8957 H         1 <0>         0.4303
@<TRIPOS>BOND
     1    1    2 1
     2    1   17 1
     3    1   18 1
     4    1   19 1
     5    2    3 1
     6    2   20 1
     7    2   21 1
     8    3   22 1
     9    3   23 1
    10    3   36 1
    11    4    5 1
    12    4   16 1
    13    4    6 1
    14    4   36 1
    15    6    7 1
    16    6   24 1
    17    6   25 1
    18    7    8 1
    19    7   26 1
    20    7   27 1
    21    8   13 ar
    22    8    9 ar
    23    9   10 ar
    24    9   16 1
    25   10   11 ar
    26   10   28 1
    27   11   12 ar
    28   11   29 1
    29   12   13 ar
    30   12   30 1
    31   13   14 1
    32   14   15 1
    33   15   31 1
    34   15   32 1
    35   15   33 1
    36   16   34 1
    37   16   35 1
    38   36   37 1
    39   36   38 1
@<TRIPOS>MOLECULE
ZINC13759788
   38    39     0     0     0
SMALL
USER_CHARGES
(2S)-5-methoxy-N-propyl-tetralin-2-amine
@<TRIPOS>ATOM
      1 C1         -0.0366    1.0992   -2.4903 C.3       1 <0>        -0.1571
      2 C2         -0.7527    1.5927   -1.2315 C.3       1 <0>        -0.1513
      3 C3         -0.0127    1.0858    0.0080 C.3       1 <0>        -0.0076
      4 C4         -0.0162    1.0911    2.4293 C.3       1 <0>         0.0278
      5 H1          1.0591    1.0571    2.2542 H         1 <0>         0.1439
      6 C5         -0.3202    2.0415    3.5935 C.3       1 <0>        -0.1383
      7 C6          0.5854    1.6717    4.7664 C.3       1 <0>        -0.0664
      8 C7          0.4976    0.1968    5.0594 C.ar      1 <0>        -0.1168
      9 C8         -0.0038   -0.7101    4.1540 C.ar      1 <0>        -0.0557
     10 C9         -0.0494   -2.0588    4.4835 C.ar      1 <0>        -0.1501
     11 C10         0.3991   -2.4986    5.7123 C.ar      1 <0>        -0.0701
     12 C11         0.8987   -1.5915    6.6264 C.ar      1 <0>        -0.1986
     13 C12         0.9483   -0.2463    6.3014 C.ar      1 <0>         0.1364
     14 O1          1.4405    0.6474    7.1992 O.3       1 <0>        -0.3144
     15 C13         1.8860    0.1282    8.4538 C.3       1 <0>         0.0237
     16 C14        -0.5222   -0.3015    2.7999 C.3       1 <0>        -0.0899
     17 H2         -0.0218    0.0093   -2.4963 H         1 <0>         0.0670
     18 H3         -0.5637    1.4603   -3.3734 H         1 <0>         0.0775
     19 H4          0.9860    1.4765   -2.4981 H         1 <0>         0.0671
     20 H5         -1.7753    1.2154   -1.2238 H         1 <0>         0.0861
     21 H6         -0.7675    2.6825   -1.2255 H         1 <0>         0.0863
     22 H7          0.0021   -0.0041    0.0020 H         1 <0>         0.1300
     23 H8          1.0099    1.4631    0.0003 H         1 <0>         0.1309
     24 H9         -0.1247    3.0696    3.2887 H         1 <0>         0.0937
     25 H10        -1.3642    1.9379    3.8889 H         1 <0>         0.0928
     26 H11         1.6157    1.9284    4.5199 H         1 <0>         0.0862
     27 H12         0.2774    2.2324    5.6490 H         1 <0>         0.0986
     28 H13        -0.4394   -2.7704    3.7708 H         1 <0>         0.1274
     29 H14         0.3598   -3.5495    5.9585 H         1 <0>         0.1334
     30 H15         1.2488   -1.9298    7.5904 H         1 <0>         0.1360
     31 H16         2.6883   -0.5901    8.2855 H         1 <0>         0.0603
     32 H17         2.2538    0.9449    9.0750 H         1 <0>         0.1073
     33 H18         1.0556   -0.3661    8.9579 H         1 <0>         0.0603
     34 H19        -1.6120   -0.2947    2.8192 H         1 <0>         0.0990
     35 H20        -0.1810   -1.0185    2.0531 H         1 <0>         0.0995
     36 N1         -0.7091    1.5657    1.2166 N.4       1 <0>        -0.5178
     37 H21        -1.6724    1.2103    1.2160 H         1 <0>         0.4303
     38 H22        -0.7230    2.5923    1.2143 H         1 <0>         0.4327
@<TRIPOS>BOND
     1    1    2 1
     2    1   17 1
     3    1   18 1
     4    1   19 1
     5    2    3 1
     6    2   20 1
     7    2   21 1
     8    3   22 1
     9    3   23 1
    10    3   36 1
    11    4    5 1
    12    4   16 1
    13    4    6 1
    14    4   36 1
    15    6    7 1
    16    6   24 1
    17    6   25 1
    18    7    8 1
    19    7   26 1
    20    7   27 1
    21    8   13 ar
    22    8    9 ar
    23    9   10 ar
    24    9   16 1
    25   10   11 ar
    26   10   28 1
    27   11   12 ar
    28   11   29 1
    29   12   13 ar
    30   12   30 1
    31   13   14 1
    32   14   15 1
    33   15   31 1
    34   15   32 1
    35   15   33 1
    36   16   34 1
    37   16   35 1
    38   36   37 1
    39   36   38 1
@<TRIPOS>MOLECULE
ZINC04214717
   59    61     0     0     0
SMALL
USER_CHARGES
N-[[1-[4-(4-fluorophenyl)-4-oxo-butyl]-4-phenyl-4-piperidyl]methyl]acetamide
@<TRIPOS>ATOM
      1 C1          9.5402    2.6401   -4.0515 C.3       1 <0>        -0.1769
      2 C2          8.3386    1.7534   -3.8489 C.2       1 <0>         0.5137
      3 O1          7.4511    1.7365   -4.6754 O.2       1 <0>        -0.5393
      4 N1          8.2501    0.9793   -2.7492 N.am      1 <0>        -0.7331
      5 C3          7.0820    0.1173   -2.5522 C.3       1 <0>         0.1226
      6 C4          7.1720   -0.5585   -1.1825 C.3       1 <0>        -0.0327
      7 C5          7.1438    0.5071   -0.0833 C.3       1 <0>        -0.1417
      8 C6          5.8129    1.2602   -0.1437 C.3       1 <0>        -0.0050
      9 C7          4.6833   -0.6909   -1.0321 C.3       1 <0>        -0.0177
     10 C8          5.9804   -1.5023   -0.9983 C.3       1 <0>        -0.1306
     11 C9          3.4191    1.0192    0.1245 C.3       1 <0>        -0.0058
     12 C10         2.2757    0.0044    0.0627 C.3       1 <0>        -0.1470
     13 C11         0.9366    0.7389    0.1524 C.3       1 <0>        -0.1551
     14 C12        -0.1897   -0.2606    0.0915 C.2       1 <0>         0.4033
     15 O2          0.0547   -1.4438   -0.0133 O.2       1 <0>        -0.4476
     16 C13        -1.5847    0.1993    0.1530 C.ar      1 <0>        -0.1970
     17 C14        -1.8700    1.5634    0.2797 C.ar      1 <0>        -0.0431
     18 C15        -3.1794    1.9882    0.3300 C.ar      1 <0>        -0.1668
     19 C16        -4.2138    1.0659    0.2684 C.ar      1 <0>         0.1442
     20 C17        -3.9378   -0.2883    0.1490 C.ar      1 <0>        -0.1650
     21 C18        -2.6329   -0.7258    0.0909 C.ar      1 <0>        -0.0256
     22 F1         -5.4958    1.4885    0.3244 F         1 <0>        -0.1257
     23 C19         8.4558   -1.3424   -1.0911 C.ar      1 <0>        -0.0948
     24 C20         9.3582   -1.0754   -0.0785 C.ar      1 <0>        -0.1226
     25 C21        10.5336   -1.7977    0.0081 C.ar      1 <0>        -0.1118
     26 C22        10.8115   -2.7800   -0.9240 C.ar      1 <0>        -0.1071
     27 C23         9.9115   -3.0434   -1.9397 C.ar      1 <0>        -0.1097
     28 C24         8.7337   -2.3246   -2.0233 C.ar      1 <0>        -0.1056
     29 H1         10.3079    2.0923   -4.5980 H         1 <0>         0.0989
     30 H2          9.2486    3.5226   -4.6209 H         1 <0>         0.0984
     31 H3          9.9331    2.9467   -3.0821 H         1 <0>         0.0807
     32 H4          8.9598    0.9928   -2.0881 H         1 <0>         0.4039
     33 H5          7.0565   -0.6439   -3.3320 H         1 <0>         0.0793
     34 H6          6.1742    0.7187   -2.6017 H         1 <0>         0.0690
     35 H7          7.9654    1.2073   -0.2341 H         1 <0>         0.1148
     36 H8          7.2474    0.0288    0.8907 H         1 <0>         0.0999
     37 H9          5.7166    1.7502   -1.1126 H         1 <0>         0.1324
     38 H10         5.7839    2.0100    0.6469 H         1 <0>         0.1339
     39 H11         3.8337   -1.3581   -0.8869 H         1 <0>         0.1408
     40 H12         4.5922   -0.1918   -1.9969 H         1 <0>         0.1339
     41 H13         5.9708   -2.2376   -1.8028 H         1 <0>         0.1178
     42 H14         6.0658   -2.0132   -0.0392 H         1 <0>         0.0991
     43 H15         3.3310    1.7170   -0.7081 H         1 <0>         0.1327
     44 H16         3.3677    1.5675    1.0652 H         1 <0>         0.1323
     45 H17         2.3638   -0.6934    0.8954 H         1 <0>         0.0959
     46 H18         2.3271   -0.5440   -0.8779 H         1 <0>         0.0979
     47 H19         0.8558    1.3791   -0.6115 H         1 <0>         0.1002
     48 H20         0.8852    1.2873    1.0930 H         1 <0>         0.1124
     49 H21        -1.0655    2.2820    0.3326 H         1 <0>         0.1409
     50 H22        -3.4011    3.0411    0.4226 H         1 <0>         0.1470
     51 H23        -4.7477   -1.0011    0.1012 H         1 <0>         0.1479
     52 H24        -2.4193   -1.7803   -0.0028 H         1 <0>         0.1461
     53 H25         9.1431   -0.3049    0.6471 H         1 <0>         0.1250
     54 H26        11.2368   -1.5917    0.8014 H         1 <0>         0.1277
     55 H27        11.7318   -3.3413   -0.8589 H         1 <0>         0.1280
     56 H28        10.1288   -3.8106   -2.6682 H         1 <0>         0.1279
     57 H29         8.0308   -2.5302   -2.8170 H         1 <0>         0.1218
     58 N2          4.7083    0.2998    0.0647 N.4       1 <0>        -0.3917
     59 H30         4.8574   -0.1915    0.9539 H         1 <0>         0.4283
@<TRIPOS>BOND
     1    1    2 1
     2    1   29 1
     3    1   30 1
     4    1   31 1
     5    2    3 2
     6    2    4 am
     7    4    5 1
     8    4   32 1
     9    5    6 1
    10    5   33 1
    11    5   34 1
    12    6   10 1
    13    6    7 1
    14    6   23 1
    15    7    8 1
    16    7   35 1
    17    7   36 1
    18    8   37 1
    19    8   38 1
    20    8   58 1
    21    9   10 1
    22    9   39 1
    23    9   40 1
    24    9   58 1
    25   10   41 1
    26   10   42 1
    27   11   12 1
    28   11   43 1
    29   11   44 1
    30   11   58 1
    31   12   13 1
    32   12   45 1
    33   12   46 1
    34   13   14 1
    35   13   47 1
    36   13   48 1
    37   14   15 2
    38   14   16 1
    39   16   21 ar
    40   16   17 ar
    41   17   18 ar
    42   17   49 1
    43   18   19 ar
    44   18   50 1
    45   19   20 ar
    46   19   22 1
    47   20   21 ar
    48   20   51 1
    49   21   52 1
    50   23   28 ar
    51   23   24 ar
    52   24   25 ar
    53   24   53 1
    54   25   26 ar
    55   25   54 1
    56   26   27 ar
    57   26   55 1
    58   27   28 ar
    59   27   56 1
    60   28   57 1
    61   58   59 1
@<TRIPOS>MOLECULE
ZINC53204530
   39    40     0     0     0
SMALL
USER_CHARGES

@<TRIPOS>ATOM
      1 C1          0.5128    1.4816    0.0537 C.3       1 <0>        -0.1515
      2 C2          0.4060   -0.0441    0.0133 C.3       1 <0>        -0.1214
      3 C3         -1.0685   -0.4525    0.0208 C.3       1 <0>         0.0574
      4 N1         -1.1716   -1.9161   -0.0498 N.3       1 <0>        -0.5541
      5 C4         -2.5213   -2.3670    0.3148 C.3       1 <0>         0.0522
      6 C5         -2.7825   -2.0544    1.7896 C.3       1 <0>        -0.1201
      7 C6         -4.1883   -2.5240    2.1692 C.3       1 <0>        -0.1516
      8 C7         -0.7945   -2.4068   -1.3821 C.3       1 <0>         0.2766
      9 N2         -0.3606   -3.8026   -1.2837 N.am      1 <0>        -0.5686
     10 C8          0.8810   -4.1914   -0.9418 C.2       1 <0>         0.5800
     11 O1          1.8058   -3.4524   -0.6706 O.2       1 <0>        -0.4521
     12 C9          0.9313   -5.6687   -0.9514 C.ar      1 <0>        -0.1388
     13 C10         1.9186   -6.6050   -0.6897 C.ar      1 <0>        -0.0452
     14 C11         1.6286   -7.9565   -0.7927 C.ar      1 <0>        -0.0941
     15 C12         0.3621   -8.3758   -1.1545 C.ar      1 <0>        -0.0961
     16 C13        -0.6355   -7.4506   -1.4194 C.ar      1 <0>        -0.0442
     17 C14        -0.3601   -6.0962   -1.3204 C.ar      1 <0>        -0.1426
     18 C15        -1.1529   -4.8643   -1.5176 C.2       1 <0>         0.5761
     19 O2         -2.3232   -4.8184   -1.8390 O.2       1 <0>        -0.4644
     20 H1          1.5632    1.7726    0.0484 H         1 <0>         0.0583
     21 H2          0.0143    1.9040   -0.8187 H         1 <0>         0.0528
     22 H3          0.0369    1.8553    0.9604 H         1 <0>         0.0550
     23 H4          0.8818   -0.4177   -0.8934 H         1 <0>         0.0620
     24 H5          0.9044   -0.4665    0.8858 H         1 <0>         0.0726
     25 H6         -1.5388   -0.0989    0.9384 H         1 <0>         0.0860
     26 H7         -1.5722   -0.0109   -0.8390 H         1 <0>         0.0401
     27 H8         -3.2562   -1.8496   -0.3020 H         1 <0>         0.0406
     28 H9         -2.6019   -3.4417    0.1513 H         1 <0>         0.0740
     29 H10        -2.0477   -2.5718    2.4063 H         1 <0>         0.0690
     30 H11        -2.7019   -0.9798    1.9530 H         1 <0>         0.0643
     31 H12        -4.9231   -2.0066    1.5525 H         1 <0>         0.0540
     32 H13        -4.2689   -3.5987    2.0058 H         1 <0>         0.0545
     33 H14        -4.3744   -2.3013    3.2199 H         1 <0>         0.0583
     34 H15        -1.6530   -2.3394   -2.0504 H         1 <0>         0.0791
     35 H16         0.0208   -1.7997   -1.7755 H         1 <0>         0.1099
     36 H17         2.9100   -6.2832   -0.4069 H         1 <0>         0.1430
     37 H18         2.3976   -8.6871   -0.5892 H         1 <0>         0.1435
     38 H19         0.1485   -9.4316   -1.2318 H         1 <0>         0.1433
     39 H20        -1.6231   -7.7839   -1.7020 H         1 <0>         0.1423
@<TRIPOS>BOND
     1    1    2 1
     2    1   20 1
     3    1   21 1
     4    1   22 1
     5    2    3 1
     6    2   23 1
     7    2   24 1
     8    3    4 1
     9    3   25 1
    10    3   26 1
    11    4    5 1
    12    4    8 1
    13    5    6 1
    14    5   27 1
    15    5   28 1
    16    6    7 1
    17    6   29 1
    18    6   30 1
    19    7   31 1
    20    7   32 1
    21    7   33 1
    22    8    9 1
    23    8   34 1
    24    8   35 1
    25    9   18 am
    26    9   10 am
    27   10   11 2
    28   10   12 1
    29   12   17 ar
    30   12   13 ar
    31   13   14 ar
    32   13   36 1
    33   14   15 ar
    34   14   37 1
    35   15   16 ar
    36   15   38 1
    37   16   17 ar
    38   16   39 1
    39   17   18 1
    40   18   19 2
@<TRIPOS>MOLECULE
ZINC01608877
   53    56     0     0     0
SMALL
USER_CHARGES
3-(dimethylBLAHyl)-N,N-dimethyl-propan-1-amine
@<TRIPOS>ATOM
      1 C1         -1.2735   -1.8900   -2.0033 C.3       1 <0>        -0.1183
      2 C2          0.2112   -1.6715   -1.8393 C.ar      1 <0>        -0.1056
      3 C3          1.0476   -2.4410   -2.6404 C.ar      1 <0>        -0.0900
      4 C4          2.4114   -2.2446   -2.6265 C.ar      1 <0>        -0.1164
      5 C5          2.9464   -1.2582   -1.8178 C.ar      1 <0>        -0.0388
      6 C6          2.1207   -0.5064   -1.0028 C.ar      1 <0>        -0.1513
      7 C7          0.7374   -0.7603   -0.9480 C.ar      1 <0>         0.1849
      8 N1         -0.0082   -0.0467   -0.0189 N.pl3     1 <0>        -0.5802
      9 C8          0.1522    1.3167    0.2415 C.ar      1 <0>         0.1805
     10 C9         -0.9557    2.1415    0.4429 C.ar      1 <0>        -0.1361
     11 C10        -0.8048    3.4641    0.7350 C.ar      1 <0>        -0.0682
     12 C11         0.4791    4.0217    0.8416 C.ar      1 <0>        -0.0609
     13 C12         0.6595    5.3750    1.1762 C.ar      1 <0>        -0.0971
     14 C13         1.9178    5.8855    1.2632 C.ar      1 <0>        -0.1148
     15 C14         3.0341    5.0865    1.0212 C.ar      1 <0>        -0.0947
     16 C15         2.8983    3.7715    0.6968 C.ar      1 <0>        -0.1162
     17 C16         1.6158    3.2054    0.6073 C.ar      1 <0>        -0.0026
     18 C17         1.4318    1.8500    0.2853 C.ar      1 <0>        -0.1467
     19 S1          2.8090    0.8056   -0.0482 S.3       1 <0>         0.0362
     20 C18        -0.9518   -0.7588    0.8490 C.3       1 <0>         0.1202
     21 C19        -0.2470   -1.1631    2.1454 C.3       1 <0>        -0.1753
     22 C20        -1.2146   -1.9564    3.0259 C.3       1 <0>        -0.0020
     23 C21        -1.4938   -2.8979    5.2391 C.3       1 <0>        -0.0424
     24 C22         0.5507   -3.2943    4.0039 C.3       1 <0>        -0.0469
     25 C23         4.4344   -1.0146   -1.8158 C.3       1 <0>        -0.1210
     26 H1         -1.6360   -1.3039   -2.8478 H         1 <0>         0.0762
     27 H2         -1.4673   -2.9472   -2.1848 H         1 <0>         0.0718
     28 H3         -1.7893   -1.5768   -1.0956 H         1 <0>         0.0657
     29 H4          0.6142   -3.1834   -3.2943 H         1 <0>         0.1323
     30 H5          3.0574   -2.8499   -3.2440 H         1 <0>         0.1352
     31 H6         -1.9559    1.7435    0.3581 H         1 <0>         0.1296
     32 H7         -1.6767    4.0819    0.8897 H         1 <0>         0.1371
     33 H8         -0.1970    6.0057    1.3644 H         1 <0>         0.1327
     34 H9          2.0536    6.9251    1.5223 H         1 <0>         0.1298
     35 H10         4.0218    5.5176    1.0910 H         1 <0>         0.1299
     36 H11         3.7741    3.1681    0.5086 H         1 <0>         0.1303
     37 H12        -1.7943   -0.1075    1.0814 H         1 <0>         0.0889
     38 H13        -1.3128   -1.6515    0.3380 H         1 <0>         0.0986
     39 H14         0.6199   -1.7807    1.9103 H         1 <0>         0.0914
     40 H15         0.0776   -0.2685    2.6767 H         1 <0>         0.0903
     41 H16        -2.0814   -1.3389    3.2610 H         1 <0>         0.1310
     42 H17        -1.5392   -2.8511    2.4946 H         1 <0>         0.1324
     43 H18        -1.9740   -3.7788    4.8130 H         1 <0>         0.1232
     44 H19        -0.9664   -3.1771    6.1513 H         1 <0>         0.1230
     45 H20        -2.2503   -2.1485    5.4717 H         1 <0>         0.1217
     46 H21         1.2805   -2.8330    3.3386 H         1 <0>         0.1214
     47 H22         1.0347   -3.5651    4.9423 H         1 <0>         0.1234
     48 H23         0.1446   -4.1896    3.5331 H         1 <0>         0.1236
     49 H24         4.6821   -0.2729   -2.5751 H         1 <0>         0.0832
     50 H25         4.7412   -0.6482   -0.8362 H         1 <0>         0.0688
     51 H26         4.9554   -1.9467   -2.0347 H         1 <0>         0.0782
     52 N2         -0.5263   -2.3209    4.2821 N.4       1 <0>        -0.3976
     53 H27        -0.1137   -1.4756    4.6937 H         1 <0>         0.4316
@<TRIPOS>BOND
     1    1    2 1
     2    1   26 1
     3    1   27 1
     4    1   28 1
     5    2    7 ar
     6    2    3 ar
     7    3    4 ar
     8    3   29 1
     9    4    5 ar
    10    4   30 1
    11    5    6 ar
    12    5   25 1
    13    6   19 1
    14    6    7 ar
    15    7    8 1
    16    8    9 1
    17    8   20 1
    18    9   18 ar
    19    9   10 ar
    20   10   11 ar
    21   10   31 1
    22   11   12 ar
    23   11   32 1
    24   12   17 ar
    25   12   13 ar
    26   13   14 ar
    27   13   33 1
    28   14   15 ar
    29   14   34 1
    30   15   16 ar
    31   15   35 1
    32   16   17 ar
    33   16   36 1
    34   17   18 ar
    35   18   19 1
    36   20   21 1
    37   20   37 1
    38   20   38 1
    39   21   22 1
    40   21   39 1
    41   21   40 1
    42   22   41 1
    43   22   42 1
    44   22   52 1
    45   23   43 1
    46   23   44 1
    47   23   45 1
    48   23   52 1
    49   24   46 1
    50   24   47 1
    51   24   48 1
    52   24   52 1
    53   25   49 1
    54   25   50 1
    55   25   51 1
    56   52   53 1
@<TRIPOS>MOLECULE
ZINC19632896
   63    67     0     0     0
SMALL
USER_CHARGES

@<TRIPOS>ATOM
      1 C1         -0.0167    1.3781    0.0096 C.ar      1 <0>        -0.1095
      2 C2          1.1709    2.0855    0.0021 C.ar      1 <0>        -0.1150
      3 C3          2.3773    1.4107   -0.0130 C.ar      1 <0>        -0.1095
      4 C4          2.3960    0.0285   -0.0201 C.ar      1 <0>        -0.0937
      5 C5          1.2084   -0.6789   -0.0117 C.ar      1 <0>        -0.0969
      6 C6          0.0021   -0.0041    0.0020 C.ar      1 <0>        -0.1213
      7 C7          3.7112   -0.7071   -0.0376 C.3       1 <0>         0.1793
      8 C8          4.0438   -1.1746    1.3559 C.ar      1 <0>        -0.0936
      9 C9          3.4555   -2.3197    1.8597 C.ar      1 <0>        -0.0951
     10 C10         3.7605   -2.7485    3.1379 C.ar      1 <0>        -0.1214
     11 C11         4.6543   -2.0326    3.9122 C.ar      1 <0>        -0.1095
     12 C12         5.2433   -0.8881    3.4082 C.ar      1 <0>        -0.1155
     13 C13         4.9415   -0.4616    2.1284 C.ar      1 <0>        -0.1100
     14 N1          3.6112   -1.8677   -0.9326 N.3       1 <0>        -0.5295
     15 C14         3.2015   -1.4575   -2.2832 C.3       1 <0>         0.0228
     16 C15         3.0515   -2.6981   -3.1664 C.3       1 <0>        -0.0002
     17 N2          4.3309   -3.4176   -3.2216 N.4       1 <0>        -0.3855
     18 C16         4.7147   -3.8421   -1.8688 C.3       1 <0>        -0.0055
     19 C17         4.8785   -2.6110   -0.9748 C.3       1 <0>         0.0255
     20 C18         4.1915   -4.5985   -4.0840 C.3       1 <0>        -0.0040
     21 C19         5.5531   -5.2782   -4.2422 C.3       1 <0>        -0.1722
     22 C20         5.4078   -6.5082   -5.1404 C.3       1 <0>         0.1396
     23 N3          6.7115   -7.1590   -5.2919 N.am      1 <0>        -0.5413
     24 C21         7.6521   -6.8796   -6.2805 C.ar      1 <0>         0.0793
     25 C22         7.6792   -5.9901   -7.3439 C.ar      1 <0>        -0.1064
     26 C23         8.7826   -5.9437   -8.1733 C.ar      1 <0>        -0.1051
     27 C24         9.8612   -6.7817   -7.9477 C.ar      1 <0>        -0.1009
     28 C25         9.8431   -7.6712   -6.8914 C.ar      1 <0>        -0.1004
     29 C26         8.7402   -7.7244   -6.0527 C.ar      1 <0>         0.0920
     30 N4          8.4270   -8.4910   -4.9327 N.am      1 <0>        -0.6410
     31 H1          8.9931   -9.1699   -4.5331 H         1 <0>         0.4394
     32 C27         7.2072   -8.1251   -4.4958 C.2       1 <0>         0.6831
     33 O1          6.6377   -8.5981   -3.5300 O.2       1 <0>        -0.5511
     34 H2         -0.9591    1.9053    0.0259 H         1 <0>         0.1257
     35 H3          1.1563    3.1654    0.0076 H         1 <0>         0.1264
     36 H4          3.3051    1.9634   -0.0196 H         1 <0>         0.1205
     37 H5          1.2231   -1.7588   -0.0179 H         1 <0>         0.1275
     38 H6         -0.9258   -0.5567    0.0082 H         1 <0>         0.1248
     39 H7          4.4960   -0.0399   -0.3940 H         1 <0>         0.0670
     40 H8          2.7572   -2.8790    1.2547 H         1 <0>         0.1273
     41 H9          3.3004   -3.6427    3.5317 H         1 <0>         0.1246
     42 H10         4.8921   -2.3673    4.9112 H         1 <0>         0.1255
     43 H11         5.9413   -0.3286    4.0133 H         1 <0>         0.1262
     44 H12         5.4045    0.4305    1.7332 H         1 <0>         0.1203
     45 H13         2.2482   -0.9315   -2.2300 H         1 <0>         0.1289
     46 H14         3.9580   -0.7978   -2.7081 H         1 <0>         0.0614
     47 H15         2.2853   -3.3511   -2.7485 H         1 <0>         0.1391
     48 H16         2.7614   -2.3950   -4.1724 H         1 <0>         0.1367
     49 H17         3.9399   -4.4892   -1.4576 H         1 <0>         0.1401
     50 H18         5.6576   -4.3871   -1.9128 H         1 <0>         0.1352
     51 H19         5.6626   -1.9703   -1.3782 H         1 <0>         0.0612
     52 H20         5.1487   -2.9266    0.0329 H         1 <0>         0.1273
     53 H21         3.4870   -5.2970   -3.6324 H         1 <0>         0.1362
     54 H22         3.8224   -4.2921   -5.0628 H         1 <0>         0.1360
     55 H23         6.2575   -4.5797   -4.6938 H         1 <0>         0.0932
     56 H24         5.9221   -5.5846   -3.2634 H         1 <0>         0.0955
     57 H25         4.7033   -7.2067   -4.6889 H         1 <0>         0.1051
     58 H26         5.0387   -6.2018   -6.1192 H         1 <0>         0.1010
     59 H27         6.8393   -5.3354   -7.5234 H         1 <0>         0.1275
     60 H28         8.8038   -5.2510   -9.0016 H         1 <0>         0.1372
     61 H29        10.7204   -6.7399   -8.6007 H         1 <0>         0.1391
     62 H30        10.6862   -8.3238   -6.7189 H         1 <0>         0.1363
     63 H31         5.0427   -2.8092   -3.5975 H         1 <0>         0.4204
@<TRIPOS>BOND
     1    1    6 ar
     2    1    2 ar
     3    1   34 1
     4    2    3 ar
     5    2   35 1
     6    3    4 ar
     7    3   36 1
     8    4    5 ar
     9    4    7 1
    10    5    6 ar
    11    5   37 1
    12    6   38 1
    13    7    8 1
    14    7   14 1
    15    7   39 1
    16    8   13 ar
    17    8    9 ar
    18    9   10 ar
    19    9   40 1
    20   10   11 ar
    21   10   41 1
    22   11   12 ar
    23   11   42 1
    24   12   13 ar
    25   12   43 1
    26   13   44 1
    27   14   19 1
    28   14   15 1
    29   15   16 1
    30   15   45 1
    31   15   46 1
    32   16   17 1
    33   16   47 1
    34   16   48 1
    35   17   18 1
    36   17   20 1
    37   17   63 1
    38   18   19 1
    39   18   49 1
    40   18   50 1
    41   19   51 1
    42   19   52 1
    43   20   21 1
    44   20   53 1
    45   20   54 1
    46   21   22 1
    47   21   55 1
    48   21   56 1
    49   22   23 1
    50   22   57 1
    51   22   58 1
    52   23   32 am
    53   23   24 1
    54   24   29 ar
    55   24   25 ar
    56   25   26 ar
    57   25   59 1
    58   26   27 ar
    59   26   60 1
    60   27   28 ar
    61   27   61 1
    62   28   29 ar
    63   28   62 1
    64   29   30 1
    65   30   31 1
    66   30   32 am
    67   32   33 2
@<TRIPOS>MOLECULE
ZINC06380162
   59    61     0     0     0
SMALL
USER_CHARGES
3-dipropylamino-1-(1,2,3,4-tetrahydrophenanthren-9-yl)propan-1-ol
@<TRIPOS>ATOM
      1 C1         -8.1530   -0.1537    2.1200 C.3       1 <0>        -0.1560
      2 C2         -6.7637    0.4599    2.3049 C.3       1 <0>        -0.1506
      3 C3         -5.7385   -0.6549    2.5217 C.3       1 <0>        -0.0101
      4 C4         -3.5464   -1.0371    3.4762 C.3       1 <0>        -0.0138
      5 C5         -4.0252   -1.2683    4.9108 C.3       1 <0>        -0.1505
      6 C6         -3.1197   -2.2971    5.5911 C.3       1 <0>        -0.1560
      7 C7         -3.8032    0.4699    1.5985 C.3       1 <0>        -0.0053
      8 C8         -2.5687    1.2916    1.9749 C.3       1 <0>        -0.1815
      9 C9         -1.9193    1.8469    0.7057 C.3       1 <0>         0.1621
     10 H1         -1.7036    1.0277    0.0198 H         1 <0>         0.1185
     11 C10        -0.6369    2.5522    1.0649 C.ar      1 <0>        -0.1307
     12 C11        -0.6259    3.8954    1.2610 C.ar      1 <0>        -0.0890
     13 C12         0.5482    4.5819    1.6016 C.ar      1 <0>        -0.0767
     14 C13         1.7174    3.9104    1.7454 C.ar      1 <0>        -0.0463
     15 C14         1.7460    2.5136    1.5407 C.ar      1 <0>        -0.0490
     16 C15         0.5587    1.8265    1.1946 C.ar      1 <0>        -0.0385
     17 C16         0.5970    0.4361    0.9937 C.ar      1 <0>        -0.1261
     18 C17         1.7755   -0.2304    1.1349 C.ar      1 <0>        -0.1029
     19 C18         2.9458    0.4459    1.4752 C.ar      1 <0>        -0.1165
     20 C19         2.9450    1.7918    1.6772 C.ar      1 <0>        -0.0988
     21 C20         3.0083    4.5865    2.1257 C.3       1 <0>        -0.0889
     22 C21         2.9191    6.0931    1.8935 C.3       1 <0>        -0.1226
     23 C22         1.6421    6.6074    2.5694 C.3       1 <0>        -0.1222
     24 C23         0.4414    6.0739    1.7917 C.3       1 <0>        -0.0831
     25 O1         -2.8116    2.7705    0.0790 O.3       1 <0>        -0.5484
     26 H2         -8.8834    0.6405    1.9655 H         1 <0>         0.0773
     27 H3         -8.1459   -0.8144    1.2531 H         1 <0>         0.0674
     28 H4         -8.4195   -0.7244    3.0096 H         1 <0>         0.0663
     29 H5         -6.7708    1.1206    3.1718 H         1 <0>         0.0838
     30 H6         -6.4973    1.0306    1.4153 H         1 <0>         0.0869
     31 H7         -5.6678   -1.2638    1.6203 H         1 <0>         0.1317
     32 H8         -6.0522   -1.2793    3.3582 H         1 <0>         0.1301
     33 H9         -3.5719   -1.9790    2.9283 H         1 <0>         0.1319
     34 H10        -2.5264   -0.6530    3.4911 H         1 <0>         0.1299
     35 H11        -3.9866   -0.3291    5.4626 H         1 <0>         0.0849
     36 H12        -5.0500   -1.6394    4.8965 H         1 <0>         0.0851
     37 H13        -3.1583   -3.2363    5.0393 H         1 <0>         0.0671
     38 H14        -2.0950   -1.9259    5.6055 H         1 <0>         0.0669
     39 H15        -3.4609   -2.4618    6.6132 H         1 <0>         0.0773
     40 H16        -4.5165    1.1054    1.0736 H         1 <0>         0.1375
     41 H17        -3.5068   -0.3554    0.9512 H         1 <0>         0.1324
     42 H18        -1.8555    0.6562    2.4999 H         1 <0>         0.0997
     43 H19        -2.8652    2.1169    2.6223 H         1 <0>         0.0927
     44 H20        -1.5468    4.4495    1.1555 H         1 <0>         0.1207
     45 H21        -0.3024   -0.1000    0.7288 H         1 <0>         0.1204
     46 H22         1.8042   -1.2989    0.9807 H         1 <0>         0.1253
     47 H23         3.8676   -0.1068    1.5804 H         1 <0>         0.1278
     48 H24         3.8596    2.3024    1.9405 H         1 <0>         0.1332
     49 H25         3.2157    4.3974    3.1790 H         1 <0>         0.0819
     50 H26         3.8188    4.1778    1.5222 H         1 <0>         0.0805
     51 H27         3.7891    6.5845    2.3291 H         1 <0>         0.0740
     52 H28         2.8780    6.2985    0.8238 H         1 <0>         0.0684
     53 H29         1.6015    6.2504    3.5985 H         1 <0>         0.0662
     54 H30         1.6334    7.6973    2.5578 H         1 <0>         0.0731
     55 H31        -0.4719    6.3011    2.3415 H         1 <0>         0.0748
     56 H32         0.4020    6.5580    0.8160 H         1 <0>         0.0802
     57 H33        -3.0476    3.5270    0.6332 H         1 <0>         0.3793
     58 N1         -4.4309   -0.0413    2.8352 N.4       1 <0>        -0.3965
     59 H34        -4.5766    0.7415    3.4834 H         1 <0>         0.4247
@<TRIPOS>BOND
     1    1    2 1
     2    1   26 1
     3    1   27 1
     4    1   28 1
     5    2    3 1
     6    2   29 1
     7    2   30 1
     8    3   31 1
     9    3   32 1
    10    3   58 1
    11    4    5 1
    12    4   33 1
    13    4   34 1
    14    4   58 1
    15    5    6 1
    16    5   35 1
    17    5   36 1
    18    6   37 1
    19    6   38 1
    20    6   39 1
    21    7    8 1
    22    7   40 1
    23    7   41 1
    24    7   58 1
    25    8    9 1
    26    8   42 1
    27    8   43 1
    28    9   10 1
    29    9   11 1
    30    9   25 1
    31   11   16 ar
    32   11   12 ar
    33   12   13 ar
    34   12   44 1
    35   13   24 1
    36   13   14 ar
    37   14   15 ar
    38   14   21 1
    39   15   20 ar
    40   15   16 ar
    41   16   17 ar
    42   17   18 ar
    43   17   45 1
    44   18   19 ar
    45   18   46 1
    46   19   20 ar
    47   19   47 1
    48   20   48 1
    49   21   22 1
    50   21   49 1
    51   21   50 1
    52   22   23 1
    53   22   51 1
    54   22   52 1
    55   23   24 1
    56   23   53 1
    57   23   54 1
    58   24   55 1
    59   24   56 1
    60   25   57 1
    61   58   59 1
@<TRIPOS>MOLECULE
ZINC08699656
   25    26     0     0     0
SMALL
USER_CHARGES
(2R)-5-fluorotetralin-2-amine
@<TRIPOS>ATOM
      1 C1         -1.2203    1.7432    0.0173 C.ar      1 <0>        -0.0812
      2 C2         -0.0126    1.0758    0.0080 C.ar      1 <0>        -0.1210
      3 C3          1.1843    1.7803    0.0003 C.ar      1 <0>        -0.0672
      4 C4          1.1654    3.1569    0.0017 C.ar      1 <0>        -0.1193
      5 C5         -0.0522    3.8288    0.0198 C.ar      1 <0>         0.1062
      6 C6         -1.2414    3.1248    0.0310 C.ar      1 <0>        -0.1398
      7 F1         -0.0726    5.1796    0.0268 F         1 <0>        -0.1302
      8 C7          2.4234    3.9849   -0.0228 C.3       1 <0>        -0.0785
      9 C8          3.6277    3.1443    0.3967 C.3       1 <0>        -0.1389
     10 C9          3.6375    1.8609   -0.4421 C.3       1 <0>         0.0298
     11 H1          3.5323    2.1115   -1.4976 H         1 <0>         0.1493
     12 C10         2.4650    0.9873   -0.0008 C.3       1 <0>        -0.0955
     13 H2         -2.1462    1.1873    0.0189 H         1 <0>         0.1425
     14 H3          0.0021   -0.0041    0.0020 H         1 <0>         0.1343
     15 H4         -2.1836    3.6524    0.0456 H         1 <0>         0.1449
     16 H5          2.5841    4.3647   -1.0318 H         1 <0>         0.0927
     17 H6          2.3145    4.8246    0.6636 H         1 <0>         0.1002
     18 H7          4.5458    3.7049    0.2207 H         1 <0>         0.0971
     19 H8          3.5487    2.8919    1.4541 H         1 <0>         0.0947
     20 H9          2.6555    0.6109    1.0042 H         1 <0>         0.1013
     21 H10         2.3660    0.1457   -0.6864 H         1 <0>         0.1043
     22 H11         4.9271    0.2904   -0.7719 H         1 <0>         0.4396
     23 H12         5.6920    1.7286   -0.4367 H         1 <0>         0.4406
     24 N1          4.8975    1.1352   -0.2035 N.4       1 <0>        -0.6440
     25 H13         4.9541    0.8740    0.7879 H         1 <0>         0.4382
@<TRIPOS>BOND
     1    1    6 ar
     2    1    2 ar
     3    1   13 1
     4    2    3 ar
     5    2   14 1
     6    3   12 1
     7    3    4 ar
     8    4    5 ar
     9    4    8 1
    10    5    6 ar
    11    5    7 1
    12    6   15 1
    13    8    9 1
    14    8   16 1
    15    8   17 1
    16    9   10 1
    17    9   18 1
    18    9   19 1
    19   10   11 1
    20   10   12 1
    21   10   24 1
    22   12   20 1
    23   12   21 1
    24   22   24 1
    25   23   24 1
    26   24   25 1
@<TRIPOS>MOLECULE
ZINC04429621
   55    57     0     0     0
SMALL
USER_CHARGES
N-(4-ethoxyphenyl)-1-phenethyl-piperidine-3-carboxamide
@<TRIPOS>ATOM
      1 C1          1.1147  -10.6604    6.1162 C.3       1 <0>        -0.1551
      2 C2          1.0877   -9.1385    6.2712 C.3       1 <0>         0.0532
      3 O1          1.2791   -8.5263    4.9943 O.3       1 <0>        -0.3128
      4 C3          1.2818   -7.1671    4.9556 C.ar      1 <0>         0.1331
      5 C4          1.4626   -6.5083    3.7483 C.ar      1 <0>        -0.1365
      6 C5          1.4654   -5.1280    3.7083 C.ar      1 <0>        -0.0738
      7 C6          1.2877   -4.3995    4.8769 C.ar      1 <0>         0.0836
      8 C7          1.1126   -5.0596    6.0858 C.ar      1 <0>        -0.0933
      9 C8          1.1042   -6.4399    6.1235 C.ar      1 <0>        -0.1917
     10 N1          1.2910   -2.9990    4.8371 N.am      1 <0>        -0.6560
     11 C9          0.7715   -2.3539    3.7738 C.2       1 <0>         0.5218
     12 O2          0.3776   -2.9840    2.8152 O.2       1 <0>        -0.5129
     13 C10         0.6801   -0.8496    3.7761 C.3       1 <0>        -0.1299
     14 H1          0.0578   -0.5241    4.6096 H         1 <0>         0.1237
     15 C11         2.0826   -0.2525    3.9215 C.3       1 <0>        -0.1329
     16 C12         1.9872    1.2746    3.8625 C.3       1 <0>        -0.1427
     17 C13         1.3313    1.6893    2.5434 C.3       1 <0>        -0.0097
     18 C14         0.0622   -0.3734    2.4595 C.3       1 <0>         0.0109
     19 C15        -0.7213    1.5808    1.2645 C.3       1 <0>         0.0000
     20 C16        -0.0138    1.0803    0.0036 C.3       1 <0>        -0.0987
     21 C17        -0.7458    1.5803   -1.2151 C.ar      1 <0>        -0.1083
     22 C18        -1.7609    0.8238   -1.7704 C.ar      1 <0>        -0.1093
     23 C19        -2.4355    1.2847   -2.8854 C.ar      1 <0>        -0.1137
     24 C20        -2.0882    2.4971   -3.4514 C.ar      1 <0>        -0.1044
     25 C21        -1.0696    3.2511   -2.8991 C.ar      1 <0>        -0.1145
     26 C22        -0.3984    2.7927   -1.7810 C.ar      1 <0>        -0.1104
     27 H2          0.3172  -10.9711    5.4412 H         1 <0>         0.0682
     28 H3          2.0773  -10.9670    5.7069 H         1 <0>         0.0684
     29 H4          0.9687  -11.1275    7.0902 H         1 <0>         0.0819
     30 H5          1.8852   -8.8279    6.9463 H         1 <0>         0.0643
     31 H6          0.1251   -8.8320    6.6805 H         1 <0>         0.0638
     32 H7          1.6008   -7.0750    2.8394 H         1 <0>         0.1380
     33 H8          1.6061   -4.6152    2.7683 H         1 <0>         0.1437
     34 H9          0.9784   -4.4936    6.9957 H         1 <0>         0.1298
     35 H10         0.9632   -6.9535    7.0631 H         1 <0>         0.1361
     36 H11         1.6671   -2.4937    5.5747 H         1 <0>         0.4121
     37 H12         2.7164   -0.6095    3.1097 H         1 <0>         0.0913
     38 H13         2.5096   -0.5541    4.8779 H         1 <0>         0.0995
     39 H14         2.9871    1.7042    3.9226 H         1 <0>         0.1187
     40 H15         1.3852    1.6341    4.6970 H         1 <0>         0.0921
     41 H16         1.9410    1.3414    1.7095 H         1 <0>         0.1326
     42 H17         1.2489    2.7755    2.5045 H         1 <0>         0.1331
     43 H18        -0.9420   -0.7853    2.3597 H         1 <0>         0.1387
     44 H19         0.6778   -0.7116    1.6260 H         1 <0>         0.1420
     45 H20        -0.7302    2.6708    1.2678 H         1 <0>         0.1330
     46 H21        -1.7458    1.2090    1.2781 H         1 <0>         0.1316
     47 H22        -0.0049   -0.0097    0.0004 H         1 <0>         0.0961
     48 H23         1.0107    1.4520   -0.0100 H         1 <0>         0.0932
     49 H24        -2.0293   -0.1255   -1.3309 H         1 <0>         0.1245
     50 H25        -3.2311    0.6955   -3.3171 H         1 <0>         0.1294
     51 H26        -2.6123    2.8551   -4.3251 H         1 <0>         0.1295
     52 H27        -0.7980    4.1982   -3.3415 H         1 <0>         0.1291
     53 H28         0.3976    3.3816   -1.3498 H         1 <0>         0.1232
     54 N2         -0.0239    1.1025    2.4761 N.4       1 <0>        -0.3928
     55 H29        -0.5552    1.3958    3.3043 H         1 <0>         0.4292
@<TRIPOS>BOND
     1    1    2 1
     2    1   27 1
     3    1   28 1
     4    1   29 1
     5    2    3 1
     6    2   30 1
     7    2   31 1
     8    3    4 1
     9    4    9 ar
    10    4    5 ar
    11    5    6 ar
    12    5   32 1
    13    6    7 ar
    14    6   33 1
    15    7    8 ar
    16    7   10 1
    17    8    9 ar
    18    8   34 1
    19    9   35 1
    20   10   11 am
    21   10   36 1
    22   11   12 2
    23   11   13 1
    24   13   14 1
    25   13   18 1
    26   13   15 1
    27   15   16 1
    28   15   37 1
    29   15   38 1
    30   16   17 1
    31   16   39 1
    32   16   40 1
    33   17   41 1
    34   17   42 1
    35   17   54 1
    36   18   43 1
    37   18   44 1
    38   18   54 1
    39   19   20 1
    40   19   45 1
    41   19   46 1
    42   19   54 1
    43   20   21 1
    44   20   47 1
    45   20   48 1
    46   21   26 ar
    47   21   22 ar
    48   22   23 ar
    49   22   49 1
    50   23   24 ar
    51   23   50 1
    52   24   25 ar
    53   24   51 1
    54   25   26 ar
    55   25   52 1
    56   26   53 1
    57   54   55 1
@<TRIPOS>MOLECULE
ZINC06398231
   39    39     0     0     0
SMALL
USER_CHARGES
4-ethynyl-N,N-dipropyl-cyclohex-3-en-1-amine
@<TRIPOS>ATOM
      1 C1          2.7641    4.0146    0.5920 C.3       1 <0>        -0.1562
      2 C2          1.3396    3.4686    0.4755 C.3       1 <0>        -0.1485
      3 C3          1.3860    2.0287   -0.0398 C.3       1 <0>        -0.0173
      4 C4         -0.8044    2.0689   -1.0709 C.3       1 <0>        -0.0133
      5 C5         -0.3159    1.6117   -2.4468 C.3       1 <0>        -0.1481
      6 C6         -1.0957    2.3504   -3.5363 C.3       1 <0>        -0.1559
      7 C7          0.0724   -0.0010   -0.1713 C.3       1 <0>         0.0221
      8 H1          0.5123   -0.2620   -1.1338 H         1 <0>         0.1450
      9 C8         -1.3502   -0.5674   -0.0843 C.3       1 <0>        -0.1398
     10 C9         -1.3014   -2.0576   -0.4280 C.3       1 <0>        -0.0785
     11 C10        -0.2275   -2.7372    0.3706 C.2       1 <0>         0.0029
     12 C11         0.7468   -2.0982    0.9786 C.2       1 <0>        -0.1415
     13 C12         0.9060   -0.6059    0.9604 C.3       1 <0>        -0.1006
     14 C13        -0.2671   -4.1647    0.4765 C.1       1 <0>        -0.1931
     15 C14        -0.2996   -5.3351    0.5634 C.1       1 <0>        -0.1369
     16 H2          2.7311    5.0404    0.9591 H         1 <0>         0.0772
     17 H3          3.3338    3.3981    1.2873 H         1 <0>         0.0669
     18 H4          3.2423    3.9944   -0.3873 H         1 <0>         0.0669
     19 H5          0.7700    4.0851   -0.2198 H         1 <0>         0.0855
     20 H6          0.8615    3.4888    1.4548 H         1 <0>         0.0846
     21 H7          2.0356    1.4338    0.6022 H         1 <0>         0.1316
     22 H8          1.7745    2.0196   -1.0582 H         1 <0>         0.1325
     23 H9         -1.8406    1.7603   -0.9322 H         1 <0>         0.1300
     24 H10        -0.7365    3.1547   -1.0035 H         1 <0>         0.1311
     25 H11         0.7467    1.8330   -2.5470 H         1 <0>         0.0838
     26 H12        -0.4748    0.5383   -2.5506 H         1 <0>         0.0864
     27 H13        -0.7476    2.0247   -4.5165 H         1 <0>         0.0769
     28 H14        -2.1583    2.1291   -3.4360 H         1 <0>         0.0673
     29 H15        -0.9367    3.4238   -3.4325 H         1 <0>         0.0665
     30 H16        -1.7349   -0.4373    0.9272 H         1 <0>         0.0934
     31 H17        -1.9956   -0.0464   -0.7914 H         1 <0>         0.0960
     32 H18        -2.2649   -2.5130   -0.1990 H         1 <0>         0.0994
     33 H19        -1.0913   -2.1766   -1.4910 H         1 <0>         0.0925
     34 H20         1.4752   -2.6808    1.5230 H         1 <0>         0.1294
     35 H21         1.9561   -0.3563    0.8088 H         1 <0>         0.1018
     36 H22         0.5730   -0.1953    1.9136 H         1 <0>         0.0993
     37 H23        -0.3286   -6.3818    0.6410 H         1 <0>         0.2274
     38 N1          0.0196    1.4664   -0.0019 N.4       1 <0>        -0.3926
     39 H24        -0.4046    1.6820    0.9079 H         1 <0>         0.4262
@<TRIPOS>BOND
     1    1    2 1
     2    1   16 1
     3    1   17 1
     4    1   18 1
     5    2    3 1
     6    2   19 1
     7    2   20 1
     8    3   21 1
     9    3   22 1
    10    3   38 1
    11    4    5 1
    12    4   23 1
    13    4   24 1
    14    4   38 1
    15    5    6 1
    16    5   25 1
    17    5   26 1
    18    6   27 1
    19    6   28 1
    20    6   29 1
    21    7    8 1
    22    7   13 1
    23    7    9 1
    24    7   38 1
    25    9   10 1
    26    9   30 1
    27    9   31 1
    28   10   11 1
    29   10   32 1
    30   10   33 1
    31   11   12 2
    32   11   14 1
    33   12   13 1
    34   12   34 1
    35   13   35 1
    36   13   36 1
    37   14   15 3
    38   15   37 1
    39   38   39 1
@<TRIPOS>MOLECULE
ZINC06398232
   39    39     0     0     0
SMALL
USER_CHARGES
4-ethynyl-N,N-dipropyl-cyclohex-3-en-1-amine
@<TRIPOS>ATOM
      1 C1         -0.6060    1.7396   -2.7128 C.3       1 <0>        -0.1563
      2 C2         -1.2120    1.9751   -1.3278 C.3       1 <0>        -0.1502
      3 C3         -0.2327    1.4958   -0.2544 C.3       1 <0>        -0.0143
      4 C4         -1.9995    0.8785    1.2818 C.3       1 <0>        -0.0135
      5 C5         -2.7781    1.3821    2.4987 C.3       1 <0>        -0.1500
      6 C6         -4.0772    0.5860    2.6382 C.3       1 <0>        -0.1560
      7 C7          0.1819    1.4971    2.1311 C.3       1 <0>         0.0218
      8 H1         -0.3107    1.4865    3.1033 H         1 <0>         0.1422
      9 C8          0.8877    0.1559    1.8964 C.3       1 <0>        -0.1334
     10 C9          1.7797   -0.1418    3.1026 C.3       1 <0>        -0.0796
     11 C10         2.6291    1.0520    3.4286 C.2       1 <0>         0.0030
     12 C11         2.3837    2.2660    2.9889 C.2       1 <0>        -0.1410
     13 C12         1.2278    2.6135    2.0969 C.3       1 <0>        -0.1024
     14 C13         3.7736    0.8568    4.2668 C.1       1 <0>        -0.1930
     15 C14         4.7118    0.6967    4.9541 C.1       1 <0>        -0.1368
     16 H2         -0.4109    0.6758   -2.8480 H         1 <0>         0.0668
     17 H3         -1.3037    2.0811   -3.4775 H         1 <0>         0.0774
     18 H4          0.3283    2.2943   -2.7997 H         1 <0>         0.0670
     19 H5         -2.1463    1.4204   -1.2409 H         1 <0>         0.0856
     20 H6         -1.4071    3.0389   -1.1926 H         1 <0>         0.0855
     21 H7         -0.0376    0.4319   -0.3896 H         1 <0>         0.1326
     22 H8          0.7016    2.0504   -0.3413 H         1 <0>         0.1299
     23 H9         -2.6364    0.9244    0.3984 H         1 <0>         0.1323
     24 H10        -1.6871   -0.1519    1.4513 H         1 <0>         0.1313
     25 H11        -2.1738    1.2514    3.3963 H         1 <0>         0.0850
     26 H12        -3.0118    2.4388    2.3687 H         1 <0>         0.0849
     27 H13        -4.6320    0.9448    3.5051 H         1 <0>         0.0772
     28 H14        -4.6816    0.7167    1.7405 H         1 <0>         0.0669
     29 H15        -3.8436   -0.4707    2.7682 H         1 <0>         0.0670
     30 H16         0.1450   -0.6339    1.7832 H         1 <0>         0.0930
     31 H17         1.5012    0.2172    0.9975 H         1 <0>         0.0934
     32 H18         2.4231   -0.9920    2.8762 H         1 <0>         0.0994
     33 H19         1.1526   -0.3842    3.9606 H         1 <0>         0.0924
     34 H20         3.0530    3.0597    3.2866 H         1 <0>         0.1295
     35 H21         1.5856    2.7422    1.0754 H         1 <0>         0.0991
     36 H22         0.7744    3.5439    2.4388 H         1 <0>         0.1023
     37 H23         5.5510    0.5536    5.5687 H         1 <0>         0.2275
     38 N1         -0.8228    1.7492    1.0768 N.4       1 <0>        -0.3930
     39 H24        -1.1211    2.7304    1.1280 H         1 <0>         0.4264
@<TRIPOS>BOND
     1    1    2 1
     2    1   16 1
     3    1   17 1
     4    1   18 1
     5    2    3 1
     6    2   19 1
     7    2   20 1
     8    3   21 1
     9    3   22 1
    10    3   38 1
    11    4    5 1
    12    4   23 1
    13    4   24 1
    14    4   38 1
    15    5    6 1
    16    5   25 1
    17    5   26 1
    18    6   27 1
    19    6   28 1
    20    6   29 1
    21    7    8 1
    22    7   13 1
    23    7    9 1
    24    7   38 1
    25    9   10 1
    26    9   30 1
    27    9   31 1
    28   10   11 1
    29   10   32 1
    30   10   33 1
    31   11   12 2
    32   11   14 1
    33   12   13 1
    34   12   34 1
    35   13   35 1
    36   13   36 1
    37   14   15 3
    38   15   37 1
    39   38   39 1
@<TRIPOS>MOLECULE
ZINC34451922
   61    65     0     0     0
SMALL
USER_CHARGES

@<TRIPOS>ATOM
      1 C1         -0.0312    1.4376    0.0625 C.3       1 <0>        -0.1149
      2 C2         -0.0229   -0.0693    0.0447 C.ar      1 <0>         0.1665
      3 C3         -0.0155   -0.7327   -1.1794 C.ar      1 <0>        -0.1630
      4 C4         -0.0074   -2.0992   -1.2143 C.ar      1 <0>        -0.0625
      5 C5         -0.0068   -2.7940    0.0070 C.ar      1 <0>        -0.1089
      6 C6         -0.0145   -2.0581    1.2176 C.ar      1 <0>         0.1381
      7 N1         -0.0173   -0.7211    1.1825 N.ar      1 <0>        -0.4673
      8 C7         -0.0139   -2.7495    2.4406 C.ar      1 <0>        -0.0799
      9 C8         -0.0055   -4.1115    2.4546 C.ar      1 <0>        -0.0967
     10 C9          0.0026   -4.8435    1.2722 C.ar      1 <0>        -0.1038
     11 C10         0.0018   -4.2041    0.0495 C.ar      1 <0>         0.1607
     12 N2          0.0100   -4.9428   -1.1301 N.pl3     1 <0>        -0.6732
     13 C11         1.2761   -5.3417   -1.7641 C.3       1 <0>         0.1189
     14 C12         1.2238   -4.9473   -3.2438 C.3       1 <0>        -0.0255
     15 N3          0.0263   -5.5297   -3.8626 N.4       1 <0>        -0.3804
     16 C13        -1.1805   -4.9526   -3.2570 C.3       1 <0>        -0.0322
     17 C14        -1.2473   -5.3521   -1.7749 C.3       1 <0>         0.1198
     18 C15         0.0336   -5.2439   -5.3035 C.3       1 <0>        -0.0072
     19 C16        -1.1461   -5.9543   -5.9703 C.3       1 <0>        -0.0971
     20 C17        -1.1386   -5.6610   -7.4485 C.ar      1 <0>        -0.0776
     21 C18        -1.8170   -4.5596   -7.9377 C.ar      1 <0>        -0.1386
     22 C19        -1.8126   -4.2871   -9.2931 C.ar      1 <0>        -0.0804
     23 C20        -1.1300   -5.1148  -10.1632 C.ar      1 <0>        -0.1434
     24 C21        -0.4479   -6.2214   -9.6753 C.ar      1 <0>         0.2020
     25 C22        -0.4497   -6.4892   -8.3125 C.ar      1 <0>        -0.1555
     26 N4          0.2445   -7.0619  -10.5542 N.am      1 <0>        -0.5742
     27 C23         1.0949   -8.1943  -10.1579 C.3       1 <0>         0.0857
     28 C24         1.6017   -8.7621  -11.4979 C.3       1 <0>         0.0889
     29 N5          0.9830   -7.8894  -12.5069 N.am      1 <0>        -0.7318
     30 C25         0.2334   -6.9663  -11.8902 C.2       1 <0>         0.6994
     31 O1         -0.3969   -6.1161  -12.4888 O.2       1 <0>        -0.5594
     32 H1          0.9944    1.8066    0.0650 H         1 <0>         0.0861
     33 H2         -0.5487    1.8085   -0.8223 H         1 <0>         0.0802
     34 H3         -0.5455    1.7876    0.9576 H         1 <0>         0.0841
     35 H4         -0.0165   -0.1684   -2.1002 H         1 <0>         0.1388
     36 H5         -0.0019   -2.6302   -2.1547 H         1 <0>         0.1232
     37 H6         -0.0198   -2.2006    3.3707 H         1 <0>         0.1418
     38 H7         -0.0048   -4.6322    3.4007 H         1 <0>         0.1381
     39 H8          0.0096   -5.9228    1.3114 H         1 <0>         0.1308
     40 H9          2.1065   -4.8299   -1.2777 H         1 <0>         0.1163
     41 H10         1.4054   -6.4205   -1.6769 H         1 <0>         0.0826
     42 H11         1.1855   -3.8614   -3.3293 H         1 <0>         0.1284
     43 H12         2.1133   -5.3208   -3.7511 H         1 <0>         0.1390
     44 H13        -1.1461   -3.8665   -3.3421 H         1 <0>         0.1294
     45 H14        -2.0627   -5.3301   -3.7741 H         1 <0>         0.1406
     46 H15        -1.3685   -6.4320   -1.6889 H         1 <0>         0.0832
     47 H16        -2.0861   -4.8472   -1.2958 H         1 <0>         0.1162
     48 H17        -0.0535   -4.1688   -5.4611 H         1 <0>         0.1311
     49 H18         0.9665   -5.6007   -5.7400 H         1 <0>         0.1329
     50 H19        -1.0590   -7.0293   -5.8127 H         1 <0>         0.0951
     51 H20        -2.0789   -5.5974   -5.5338 H         1 <0>         0.0966
     52 H21        -2.3517   -3.9111   -7.2594 H         1 <0>         0.1244
     53 H22        -2.3436   -3.4264   -9.6721 H         1 <0>         0.1341
     54 H23        -1.1272   -4.9017  -11.2220 H         1 <0>         0.1632
     55 H24         0.0839   -7.3464   -7.9293 H         1 <0>         0.1261
     56 H25         1.9301   -7.8505   -9.5478 H         1 <0>         0.0916
     57 H26         0.5107   -8.9423   -9.6219 H         1 <0>         0.0922
     58 H27         2.6885   -8.7002  -11.5531 H         1 <0>         0.0930
     59 H28         1.2691   -9.7921  -11.6273 H         1 <0>         0.0930
     60 H29         1.0964   -7.9716  -13.4667 H         1 <0>         0.4388
     61 H30         0.0277   -6.5286   -3.7203 H         1 <0>         0.4226
@<TRIPOS>BOND
     1    1    2 1
     2    1   32 1
     3    1   33 1
     4    1   34 1
     5    2    7 ar
     6    2    3 ar
     7    3    4 ar
     8    3   35 1
     9    4    5 ar
    10    4   36 1
    11    5   11 ar
    12    5    6 ar
    13    6    7 ar
    14    6    8 ar
    15    8    9 ar
    16    8   37 1
    17    9   10 ar
    18    9   38 1
    19   10   11 ar
    20   10   39 1
    21   11   12 1
    22   12   17 1
    23   12   13 1
    24   13   14 1
    25   13   40 1
    26   13   41 1
    27   14   15 1
    28   14   42 1
    29   14   43 1
    30   15   16 1
    31   15   18 1
    32   15   61 1
    33   16   17 1
    34   16   44 1
    35   16   45 1
    36   17   46 1
    37   17   47 1
    38   18   19 1
    39   18   48 1
    40   18   49 1
    41   19   20 1
    42   19   50 1
    43   19   51 1
    44   20   25 ar
    45   20   21 ar
    46   21   22 ar
    47   21   52 1
    48   22   23 ar
    49   22   53 1
    50   23   24 ar
    51   23   54 1
    52   24   25 ar
    53   24   26 1
    54   25   55 1
    55   26   30 am
    56   26   27 1
    57   27   28 1
    58   27   56 1
    59   27   57 1
    60   28   29 1
    61   28   58 1
    62   28   59 1
    63   29   30 am
    64   29   60 1
    65   30   31 2
@<TRIPOS>MOLECULE
ZINC34451922
   60    64     0     0     0
SMALL
USER_CHARGES

@<TRIPOS>ATOM
      1 C1         -0.0321    1.4340    0.0669 C.3       1 <0>        -0.1087
      2 C2         -0.0231   -0.0728    0.0484 C.ar      1 <0>         0.1614
      3 C3         -0.0155   -0.7357   -1.1761 C.ar      1 <0>        -0.1790
      4 C4         -0.0069   -2.1021   -1.2116 C.ar      1 <0>        -0.0439
      5 C5         -0.0060   -2.7975    0.0093 C.ar      1 <0>        -0.1162
      6 C6         -0.0140   -2.0623    1.2203 C.ar      1 <0>         0.1383
      7 N1         -0.0173   -0.7252    1.1858 N.ar      1 <0>        -0.4780
      8 C7         -0.0131   -2.7542    2.4430 C.ar      1 <0>        -0.1017
      9 C8         -0.0042   -4.1162    2.4563 C.ar      1 <0>        -0.0895
     10 C9          0.0042   -4.8477    1.2736 C.ar      1 <0>        -0.1280
     11 C10         0.0032   -4.2076    0.0512 C.ar      1 <0>         0.1972
     12 N2          0.0115   -4.9458   -1.1288 N.pl3     1 <0>        -0.6786
     13 C11         1.2784   -5.3431   -1.7618 C.3       1 <0>         0.1496
     14 C12         1.2359   -4.9304   -3.2369 C.3       1 <0>         0.0396
     15 N3          0.0281   -5.4851   -3.8627 N.3       1 <0>        -0.5337
     16 C13        -1.1893   -4.9364   -3.2504 C.3       1 <0>         0.0347
     17 C14        -1.2462   -5.3545   -1.7725 C.3       1 <0>         0.1493
     18 C15         0.0356   -5.2584   -5.3140 C.3       1 <0>         0.0625
     19 C16        -1.0979   -6.0570   -5.9608 C.3       1 <0>        -0.0749
     20 C17        -1.0902   -5.8244   -7.4498 C.ar      1 <0>        -0.0542
     21 C18        -1.8204   -4.7814   -7.9898 C.ar      1 <0>        -0.1431
     22 C19        -1.8159   -4.5647   -9.3553 C.ar      1 <0>        -0.0866
     23 C20        -1.0816   -5.3899  -10.1846 C.ar      1 <0>        -0.1581
     24 C21        -0.3474   -6.4379   -9.6456 C.ar      1 <0>         0.1910
     25 C22        -0.3495   -6.6495   -8.2729 C.ar      1 <0>        -0.1551
     26 N4          0.3976   -7.2758  -10.4831 N.am      1 <0>        -0.5709
     27 C23         1.3021   -8.3444  -10.0332 C.3       1 <0>         0.0845
     28 C24         1.8522   -8.9388  -11.3442 C.3       1 <0>         0.0912
     29 N5          1.1993   -8.1420  -12.3936 N.am      1 <0>        -0.7361
     30 C25         0.3956   -7.2356  -11.8220 C.2       1 <0>         0.6995
     31 O1         -0.2721   -6.4452  -12.4605 O.2       1 <0>        -0.5652
     32 H1          0.9934    1.8035    0.0696 H         1 <0>         0.0813
     33 H2         -0.5496    1.8052   -0.8177 H         1 <0>         0.0768
     34 H3         -0.5465    1.7834    0.9621 H         1 <0>         0.0795
     35 H4         -0.0168   -0.1709   -2.0966 H         1 <0>         0.1342
     36 H5         -0.0012   -2.6326   -2.1523 H         1 <0>         0.1348
     37 H6         -0.0192   -2.2057    3.3733 H         1 <0>         0.1347
     38 H7         -0.0032   -4.6373    3.4022 H         1 <0>         0.1312
     39 H8          0.0116   -5.9269    1.3122 H         1 <0>         0.1282
     40 H9          2.1089   -4.8415   -1.2650 H         1 <0>         0.0717
     41 H10         1.4019   -6.4235   -1.6872 H         1 <0>         0.0627
     42 H11         1.2167   -3.8430   -3.3100 H         1 <0>         0.0346
     43 H12         2.1191   -5.3142   -3.7476 H         1 <0>         0.0822
     44 H13        -1.1747   -3.8489   -3.3233 H         1 <0>         0.0351
     45 H14        -2.0649   -5.3244   -3.7708 H         1 <0>         0.0854
     46 H15        -1.3606   -6.4360   -1.6990 H         1 <0>         0.0631
     47 H16        -2.0854   -4.8605   -1.2829 H         1 <0>         0.0716
     48 H17        -0.1062   -4.1968   -5.5167 H         1 <0>         0.0355
     49 H18         0.9905   -5.5828   -5.7275 H         1 <0>         0.0763
     50 H19        -0.9561   -7.1185   -5.7582 H         1 <0>         0.0819
     51 H20        -2.0528   -5.7326   -5.5474 H         1 <0>         0.0744
     52 H21        -2.3957   -4.1350   -7.3435 H         1 <0>         0.1206
     53 H22        -2.3875   -3.7496   -9.7740 H         1 <0>         0.1267
     54 H23        -1.0788   -5.2204  -11.2512 H         1 <0>         0.1568
     55 H24         0.2243   -7.4609   -7.8501 H         1 <0>         0.1245
     56 H25         2.1115   -7.9321   -9.4307 H         1 <0>         0.0924
     57 H26         0.7524   -9.0998   -9.4716 H         1 <0>         0.0923
     58 H27         2.9348   -8.8217  -11.3927 H         1 <0>         0.0897
     59 H28         1.5757   -9.9893  -11.4336 H         1 <0>         0.0895
     60 H29         1.3270   -8.2573  -13.3482 H         1 <0>         0.4348
@<TRIPOS>BOND
     1    1    2 1
     2    1   32 1
     3    1   33 1
     4    1   34 1
     5    2    7 ar
     6    2    3 ar
     7    3    4 ar
     8    3   35 1
     9    4    5 ar
    10    4   36 1
    11    5   11 ar
    12    5    6 ar
    13    6    7 ar
    14    6    8 ar
    15    8    9 ar
    16    8   37 1
    17    9   10 ar
    18    9   38 1
    19   10   11 ar
    20   10   39 1
    21   11   12 1
    22   12   17 1
    23   12   13 1
    24   13   14 1
    25   13   40 1
    26   13   41 1
    27   14   15 1
    28   14   42 1
    29   14   43 1
    30   15   16 1
    31   15   18 1
    32   16   17 1
    33   16   44 1
    34   16   45 1
    35   17   46 1
    36   17   47 1
    37   18   19 1
    38   18   48 1
    39   18   49 1
    40   19   20 1
    41   19   50 1
    42   19   51 1
    43   20   25 ar
    44   20   21 ar
    45   21   22 ar
    46   21   52 1
    47   22   23 ar
    48   22   53 1
    49   23   24 ar
    50   23   54 1
    51   24   25 ar
    52   24   26 1
    53   25   55 1
    54   26   30 am
    55   26   27 1
    56   27   28 1
    57   27   56 1
    58   27   57 1
    59   28   29 1
    60   28   58 1
    61   28   59 1
    62   29   30 am
    63   29   60 1
    64   30   31 2
@<TRIPOS>MOLECULE
ZINC34451922
   62    66     0     0     0
SMALL
USER_CHARGES

@<TRIPOS>ATOM
      1 C1         -0.0312    1.4376    0.0625 C.3       1 <0>        -0.1610
      2 C2         -0.0229   -0.0693    0.0447 C.ar      1 <0>         0.2542
      3 C3         -0.0155   -0.7327   -1.1794 C.ar      1 <0>        -0.1670
      4 C4         -0.0074   -2.0992   -1.2143 C.ar      1 <0>         0.0386
      5 C5         -0.0068   -2.7940    0.0070 C.ar      1 <0>        -0.0964
      6 C6         -0.0145   -2.0581    1.2176 C.ar      1 <0>         0.1451
      7 N1         -0.0173   -0.7211    1.1825 N.ar      1 <0>        -0.4584
      8 C7         -0.0139   -2.7495    2.4406 C.ar      1 <0>        -0.1305
      9 C8         -0.0055   -4.1115    2.4546 C.ar      1 <0>        -0.0263
     10 C9          0.0026   -4.8435    1.2722 C.ar      1 <0>        -0.0895
     11 C10         0.0018   -4.2041    0.0495 C.ar      1 <0>         0.2051
     12 N2          0.0100   -4.9428   -1.1301 N.pl3     1 <0>        -0.6830
     13 C11         1.2761   -5.3417   -1.7641 C.3       1 <0>         0.1133
     14 C12         1.2238   -4.9473   -3.2438 C.3       1 <0>        -0.0251
     15 N3          0.0263   -5.5297   -3.8626 N.4       1 <0>        -0.3836
     16 C13        -1.1805   -4.9526   -3.2570 C.3       1 <0>        -0.0322
     17 C14        -1.2473   -5.3521   -1.7749 C.3       1 <0>         0.1142
     18 C15         0.0336   -5.2439   -5.3035 C.3       1 <0>        -0.0083
     19 C16        -1.1461   -5.9543   -5.9703 C.3       1 <0>        -0.0958
     20 C17        -1.1386   -5.6610   -7.4485 C.ar      1 <0>        -0.0824
     21 C18        -1.8170   -4.5596   -7.9377 C.ar      1 <0>        -0.1409
     22 C19        -1.8126   -4.2871   -9.2931 C.ar      1 <0>        -0.0796
     23 C20        -1.1300   -5.1148  -10.1632 C.ar      1 <0>        -0.1415
     24 C21        -0.4479   -6.2214   -9.6753 C.ar      1 <0>         0.2063
     25 C22        -0.4497   -6.4892   -8.3125 C.ar      1 <0>        -0.1564
     26 N4          0.2445   -7.0619  -10.5542 N.am      1 <0>        -0.5752
     27 C23         1.0949   -8.1943  -10.1579 C.3       1 <0>         0.0862
     28 C24         1.6017   -8.7621  -11.4979 C.3       1 <0>         0.0880
     29 N5          0.9830   -7.8894  -12.5069 N.am      1 <0>        -0.7302
     30 C25         0.2334   -6.9663  -11.8902 C.2       1 <0>         0.6992
     31 O1         -0.3969   -6.1161  -12.4888 O.2       1 <0>        -0.5578
     32 H1          0.9944    1.8066    0.0650 H         1 <0>         0.1292
     33 H2         -0.5487    1.8085   -0.8223 H         1 <0>         0.1262
     34 H3         -0.5455    1.7876    0.9576 H         1 <0>         0.1073
     35 H4         -0.0165   -0.1684   -2.1002 H         1 <0>         0.1869
     36 H5         -0.0019   -2.6302   -2.1547 H         1 <0>         0.1595
     37 H6         -0.0198   -2.2006    3.3707 H         1 <0>         0.1627
     38 H7         -0.0048   -4.6322    3.4007 H         1 <0>         0.1641
     39 H8          0.0096   -5.9228    1.3114 H         1 <0>         0.1565
     40 H9          2.1065   -4.8299   -1.2777 H         1 <0>         0.1196
     41 H10         1.4054   -6.4205   -1.6769 H         1 <0>         0.0952
     42 H11         1.1855   -3.8614   -3.3293 H         1 <0>         0.1261
     43 H12         2.1133   -5.3208   -3.7511 H         1 <0>         0.1471
     44 H13        -1.1461   -3.8665   -3.3421 H         1 <0>         0.1272
     45 H14        -2.0627   -5.3301   -3.7741 H         1 <0>         0.1488
     46 H15        -1.3685   -6.4320   -1.6889 H         1 <0>         0.0958
     47 H16        -2.0861   -4.8472   -1.2958 H         1 <0>         0.1195
     48 H17        -0.0535   -4.1688   -5.4611 H         1 <0>         0.1321
     49 H18         0.9665   -5.6007   -5.7400 H         1 <0>         0.1368
     50 H19        -1.0590   -7.0293   -5.8127 H         1 <0>         0.0966
     51 H20        -2.0789   -5.5974   -5.5338 H         1 <0>         0.0955
     52 H21        -2.3517   -3.9111   -7.2594 H         1 <0>         0.1224
     53 H22        -2.3436   -3.4264   -9.6721 H         1 <0>         0.1347
     54 H23        -1.1272   -4.9017  -11.2220 H         1 <0>         0.1647
     55 H24         0.0839   -7.3464   -7.9293 H         1 <0>         0.1263
     56 H25         1.9301   -7.8505   -9.5478 H         1 <0>         0.0912
     57 H26         0.5107   -8.9423   -9.6219 H         1 <0>         0.0923
     58 H27         2.6885   -8.7002  -11.5531 H         1 <0>         0.0940
     59 H28         1.2691   -9.7921  -11.6273 H         1 <0>         0.0943
     60 H29         1.0964   -7.9716  -13.4667 H         1 <0>         0.4403
     61 H30         0.0277   -6.5286   -3.7203 H         1 <0>         0.4274
     62 H31        -0.0190   -0.2237    2.0152 H         1 <0>         0.4506
@<TRIPOS>BOND
     1    1    2 1
     2    1   32 1
     3    1   33 1
     4    1   34 1
     5    2    7 ar
     6    2    3 ar
     7    3    4 ar
     8    3   35 1
     9    4    5 ar
    10    4   36 1
    11    5   11 ar
    12    5    6 ar
    13    6    7 ar
    14    6    8 ar
    15    7   62 1
    16    8    9 ar
    17    8   37 1
    18    9   10 ar
    19    9   38 1
    20   10   11 ar
    21   10   39 1
    22   11   12 1
    23   12   17 1
    24   12   13 1
    25   13   14 1
    26   13   40 1
    27   13   41 1
    28   14   15 1
    29   14   42 1
    30   14   43 1
    31   15   16 1
    32   15   18 1
    33   15   61 1
    34   16   17 1
    35   16   44 1
    36   16   45 1
    37   17   46 1
    38   17   47 1
    39   18   19 1
    40   18   48 1
    41   18   49 1
    42   19   20 1
    43   19   50 1
    44   19   51 1
    45   20   25 ar
    46   20   21 ar
    47   21   22 ar
    48   21   52 1
    49   22   23 ar
    50   22   53 1
    51   23   24 ar
    52   23   54 1
    53   24   25 ar
    54   24   26 1
    55   25   55 1
    56   26   30 am
    57   26   27 1
    58   27   28 1
    59   27   56 1
    60   27   57 1
    61   28   29 1
    62   28   58 1
    63   28   59 1
    64   29   30 am
    65   29   60 1
    66   30   31 2
@<TRIPOS>MOLECULE
ZINC52619107
   59    62     0     0     0
SMALL
USER_CHARGES

@<TRIPOS>ATOM
      1 C1         -0.0167    1.3800    0.0096 C.ar      1 <0>        -0.0718
      2 C2          1.1935    2.0589    0.0017 C.ar      1 <0>        -0.1708
      3 C3          2.3747    1.3394   -0.0134 C.ar      1 <0>         0.1057
      4 N1          2.3643    0.0223   -0.0208 N.ar      1 <0>        -0.4761
      5 C4          1.2291   -0.6644   -0.0137 C.ar      1 <0>         0.1591
      6 C5          0.0021   -0.0041    0.0020 C.ar      1 <0>        -0.1591
      7 C6          1.2664   -2.1468   -0.0230 C.ar      1 <0>        -0.0227
      8 C7          0.0760   -2.8740   -0.0213 C.ar      1 <0>        -0.1086
      9 C8          0.1095   -4.2506   -0.0295 C.ar      1 <0>        -0.0602
     10 C9          1.3360   -4.9187   -0.0400 C.ar      1 <0>        -0.1263
     11 C10         2.5274   -4.1897   -0.0421 C.ar      1 <0>        -0.0900
     12 C11         2.4917   -2.8132   -0.0392 C.ar      1 <0>        -0.0872
     13 C12         1.3732   -6.3961   -0.0483 C.2       1 <0>         0.5581
     14 O1          0.3360   -7.0302   -0.0460 O.2       1 <0>        -0.5332
     15 N2          2.5569   -7.0404   -0.0583 N.am      1 <0>        -0.7231
     16 C13         2.5937   -8.5049   -0.0666 C.3       1 <0>         0.1519
     17 C14         4.0267   -8.9713   -0.0771 C.2       1 <0>        -0.1829
     18 C15         4.4532   -9.7979    0.8454 C.2       1 <0>        -0.1138
     19 C16         5.8862  -10.2643    0.8349 C.3       1 <0>         0.0804
     20 N3          6.5056   -9.9726    2.1346 N.3       1 <0>        -0.5294
     21 C17         6.6037   -8.5239    2.3577 C.3       1 <0>         0.0395
     22 C18         7.0840   -8.2623    3.7892 C.3       1 <0>         0.1519
     23 N4          8.3309   -9.0111    4.0078 N.pl3     1 <0>        -0.6750
     24 C19         8.3497  -10.4437    3.6756 C.3       1 <0>         0.1521
     25 C20         7.8196  -10.6195    2.2486 C.3       1 <0>         0.0385
     26 C21         9.4675   -8.3781    4.5182 C.ar      1 <0>         0.1934
     27 C22         9.6818   -8.3321    5.8897 C.ar      1 <0>        -0.1091
     28 C23        10.8059   -7.7060    6.3917 C.ar      1 <0>        -0.0961
     29 C24        11.7187   -7.1246    5.5309 C.ar      1 <0>        -0.1045
     30 C25        11.5093   -7.1675    4.1636 C.ar      1 <0>        -0.0286
     31 C26        10.3887   -7.7984    3.6542 C.ar      1 <0>        -0.0428
     32 Cl1        10.1296   -7.8592    1.9388 Cl        1 <0>        -0.0438
     33 Cl2        12.6577   -6.4358    3.0868 Cl        1 <0>        -0.0489
     34 H1         -0.9522    1.9194    0.0259 H         1 <0>         0.1389
     35 H2          1.2130    3.1387    0.0070 H         1 <0>         0.1383
     36 H3          3.3183    1.8647   -0.0196 H         1 <0>         0.1604
     37 H4         -0.9212   -0.5643    0.0082 H         1 <0>         0.1395
     38 H5         -0.8722   -2.3571   -0.0132 H         1 <0>         0.1352
     39 H6         -0.8122   -4.8134   -0.0275 H         1 <0>         0.1417
     40 H7          3.4763   -4.7055   -0.0502 H         1 <0>         0.1287
     41 H8          3.4128   -2.2492   -0.0453 H         1 <0>         0.1423
     42 H9          3.3845   -6.5344   -0.0601 H         1 <0>         0.4011
     43 H10         2.0941   -8.8859    0.8241 H         1 <0>         0.0749
     44 H11         2.0843   -8.8762   -0.9558 H         1 <0>         0.0778
     45 H12         4.7020   -8.6241   -0.8451 H         1 <0>         0.1143
     46 H13         3.7779  -10.1451    1.6134 H         1 <0>         0.1204
     47 H14         5.9174  -11.3381    0.6504 H         1 <0>         0.0869
     48 H15         6.4318   -9.7443    0.0475 H         1 <0>         0.0387
     49 H16         7.3142   -8.0945    1.6514 H         1 <0>         0.0400
     50 H17         5.6249   -8.0666    2.2131 H         1 <0>         0.0812
     51 H18         7.2683   -7.1966    3.9245 H         1 <0>         0.0710
     52 H19         6.3261   -8.5984    4.4968 H         1 <0>         0.0626
     53 H20         9.3708  -10.8202    3.7358 H         1 <0>         0.0720
     54 H21         7.7135  -10.9895    4.3723 H         1 <0>         0.0634
     55 H22         7.7226  -11.6819    2.0249 H         1 <0>         0.0813
     56 H23         8.5132  -10.1608    1.5439 H         1 <0>         0.0409
     57 H24         8.9696   -8.7854    6.5633 H         1 <0>         0.1388
     58 H25        10.9721   -7.6701    7.4582 H         1 <0>         0.1404
     59 H26        12.5967   -6.6358    5.9265 H         1 <0>         0.1425
@<TRIPOS>BOND
     1    1    6 ar
     2    1    2 ar
     3    1   34 1
     4    2    3 ar
     5    2   35 1
     6    3    4 ar
     7    3   36 1
     8    4    5 ar
     9    5    6 ar
    10    5    7 1
    11    6   37 1
    12    7   12 ar
    13    7    8 ar
    14    8    9 ar
    15    8   38 1
    16    9   10 ar
    17    9   39 1
    18   10   11 ar
    19   10   13 1
    20   11   12 ar
    21   11   40 1
    22   12   41 1
    23   13   14 2
    24   13   15 am
    25   15   16 1
    26   15   42 1
    27   16   17 1
    28   16   43 1
    29   16   44 1
    30   17   18 2
    31   17   45 1
    32   18   19 1
    33   18   46 1
    34   19   20 1
    35   19   47 1
    36   19   48 1
    37   20   25 1
    38   20   21 1
    39   21   22 1
    40   21   49 1
    41   21   50 1
    42   22   23 1
    43   22   51 1
    44   22   52 1
    45   23   24 1
    46   23   26 1
    47   24   25 1
    48   24   53 1
    49   24   54 1
    50   25   55 1
    51   25   56 1
    52   26   31 ar
    53   26   27 ar
    54   27   28 ar
    55   27   57 1
    56   28   29 ar
    57   28   58 1
    58   29   30 ar
    59   29   59 1
    60   30   31 ar
    61   30   33 1
    62   31   32 1
@<TRIPOS>MOLECULE
ZINC03825965
   61    64     0     0     0
SMALL
USER_CHARGES
2-[4-[4-(7-methoxy-1-naphthyl)piperazin-1-yl]butyl]-4-methyl-1,2,4-triazine-3,5-dione
@<TRIPOS>ATOM
      1 C1         -2.0231    1.8137    0.6582 C.3       1 <0>         0.0742
      2 N1         -0.7874    2.5524    0.3867 N.am      1 <0>        -0.5564
      3 C2         -0.8326    3.8813    0.1583 C.2       1 <0>         0.5084
      4 O1         -1.8956    4.4738    0.1762 O.2       1 <0>        -0.4669
      5 C3          0.4140    4.6017   -0.1163 C.2       1 <0>         0.0634
      6 N2          1.5380    3.9407   -0.1287 N.2       1 <0>        -0.1777
      7 N3          1.5393    2.5628    0.1185 N.am      1 <0>        -0.4527
      8 C4          0.3932    1.9057    0.3704 C.2       1 <0>         0.6789
      9 O2          0.4233    0.7087    0.5818 O.2       1 <0>        -0.5327
     10 C5          2.8060    1.8269    0.1029 C.3       1 <0>         0.1443
     11 C6          3.0823    1.3171   -1.3129 C.3       1 <0>        -0.1367
     12 C7          4.4051    0.5485   -1.3292 C.3       1 <0>        -0.1456
     13 C8          4.6814    0.0387   -2.7450 C.3       1 <0>        -0.0029
     14 C9          7.0843    0.1963   -2.4877 C.3       1 <0>        -0.0008
     15 C10         8.3766   -0.6219   -2.4340 C.3       1 <0>         0.0217
     16 N4          8.5611   -1.3257   -3.7108 N.pl3     1 <0>        -0.4829
     17 C11         7.4284   -2.2213   -3.9837 C.3       1 <0>         0.0173
     18 C12         6.1361   -1.4030   -4.0374 C.3       1 <0>         0.0026
     19 C13         9.7664   -2.0260   -3.7256 C.ar      1 <0>         0.0812
     20 C14        10.4947   -2.1813   -2.5657 C.ar      1 <0>        -0.1408
     21 C15        11.6964   -2.8835   -2.5687 C.ar      1 <0>        -0.1158
     22 C16        12.1912   -3.4252   -3.7158 C.ar      1 <0>        -0.0881
     23 C17        11.4824   -3.2847   -4.9213 C.ar      1 <0>        -0.0708
     24 C18        10.2549   -2.5774   -4.9297 C.ar      1 <0>        -0.0049
     25 C19         9.5469   -2.4379   -6.1332 C.ar      1 <0>        -0.1649
     26 C20        10.0499   -2.9838   -7.2801 C.ar      1 <0>         0.1412
     27 C21        11.2610   -3.6818   -7.2702 C.ar      1 <0>        -0.1852
     28 C22        11.9704   -3.8345   -6.1198 C.ar      1 <0>        -0.0583
     29 O3          9.3633   -2.8476   -8.4452 O.3       1 <0>        -0.3171
     30 C23         9.9390   -3.4413   -9.6106 C.3       1 <0>         0.0231
     31 H1         -2.2167    1.8112    1.7308 H         1 <0>         0.0809
     32 H2         -2.8540    2.2926    0.1401 H         1 <0>         0.0986
     33 H3         -1.9180    0.7877    0.3055 H         1 <0>         0.0965
     34 H4          0.4017    5.6648   -0.3060 H         1 <0>         0.2278
     35 H5          3.6143    2.4882    0.4152 H         1 <0>         0.1043
     36 H6          2.7433    0.9812    0.7878 H         1 <0>         0.1061
     37 H7          2.2740    0.6558   -1.6252 H         1 <0>         0.0811
     38 H8          3.1449    2.1627   -1.9978 H         1 <0>         0.0840
     39 H9          5.2134    1.2098   -1.0169 H         1 <0>         0.0927
     40 H10         4.3425   -0.2971   -0.6443 H         1 <0>         0.0923
     41 H11         3.8731   -0.6226   -3.0573 H         1 <0>         0.1313
     42 H12         4.7441    0.8843   -3.4299 H         1 <0>         0.1342
     43 H13         7.1581    0.9411   -3.2801 H         1 <0>         0.1413
     44 H14         6.9304    0.6962   -1.5314 H         1 <0>         0.1384
     45 H15         8.3135   -1.3486   -1.6240 H         1 <0>         0.0709
     46 H16         9.2218    0.0441   -2.2604 H         1 <0>         0.1291
     47 H17         7.3545   -2.9661   -3.1914 H         1 <0>         0.0693
     48 H18         7.5822   -2.7212   -4.9400 H         1 <0>         0.1333
     49 H19         5.2909   -2.0691   -4.2110 H         1 <0>         0.1378
     50 H20         6.1987   -0.6764   -4.8475 H         1 <0>         0.1413
     51 H21        10.1265   -1.7571   -1.6432 H         1 <0>         0.1270
     52 H22        12.2479   -2.9965   -1.6471 H         1 <0>         0.1296
     53 H23        13.1276   -3.9630   -3.6992 H         1 <0>         0.1330
     54 H24         8.6099   -1.9012   -6.1528 H         1 <0>         0.1365
     55 H25        11.6388   -4.1055   -8.1890 H         1 <0>         0.1364
     56 H26        12.9046   -4.3763   -6.1269 H         1 <0>         0.1387
     57 H27         9.2919   -3.2592  -10.4686 H         1 <0>         0.1058
     58 H28        10.9195   -3.0024   -9.7954 H         1 <0>         0.0600
     59 H29        10.0448   -4.5152   -9.4568 H         1 <0>         0.0595
     60 N5          5.9513   -0.7185   -2.7404 N.4       1 <0>        -0.3980
     61 H30         5.9174   -1.4221   -1.9934 H         1 <0>         0.4253
@<TRIPOS>BOND
     1    1    2 1
     2    1   31 1
     3    1   32 1
     4    1   33 1
     5    2    8 am
     6    2    3 am
     7    3    4 2
     8    3    5 1
     9    5    6 2
    10    5   34 1
    11    6    7 1
    12    7    8 am
    13    7   10 1
    14    8    9 2
    15   10   11 1
    16   10   35 1
    17   10   36 1
    18   11   12 1
    19   11   37 1
    20   11   38 1
    21   12   13 1
    22   12   39 1
    23   12   40 1
    24   13   41 1
    25   13   42 1
    26   13   60 1
    27   14   15 1
    28   14   43 1
    29   14   44 1
    30   14   60 1
    31   15   16 1
    32   15   45 1
    33   15   46 1
    34   16   17 1
    35   16   19 1
    36   17   18 1
    37   17   47 1
    38   17   48 1
    39   18   49 1
    40   18   50 1
    41   18   60 1
    42   19   24 ar
    43   19   20 ar
    44   20   21 ar
    45   20   51 1
    46   21   22 ar
    47   21   52 1
    48   22   23 ar
    49   22   53 1
    50   23   28 ar
    51   23   24 ar
    52   24   25 ar
    53   25   26 ar
    54   25   54 1
    55   26   27 ar
    56   26   29 1
    57   27   28 ar
    58   27   55 1
    59   28   56 1
    60   29   30 1
    61   30   57 1
    62   30   58 1
    63   30   59 1
    64   60   61 1
@<TRIPOS>MOLECULE
ZINC53274795
   44    47     0     0     0
SMALL
USER_CHARGES

@<TRIPOS>ATOM
      1 C1         -0.0167    1.3786    0.0096 C.ar      1 <0>        -0.1290
      2 C2          1.1697    2.0890    0.0021 C.ar      1 <0>        -0.0943
      3 C3          2.3773    1.4190   -0.0134 C.ar      1 <0>        -0.1196
      4 C4          2.3994    0.0308   -0.0211 C.ar      1 <0>         0.1595
      5 C5          1.2066   -0.6797   -0.0130 C.ar      1 <0>        -0.1428
      6 C6          0.0021   -0.0041    0.0020 C.ar      1 <0>        -0.0919
      7 N1          3.6236   -0.6521   -0.0373 N.pl3     1 <0>        -0.3207
      8 C7          3.7859   -1.9945   -0.0516 C.2       1 <0>         0.0580
      9 C8          5.1150   -2.2483   -0.0650 C.2       1 <0>        -0.2165
     10 C9          5.7880   -1.0216   -0.0587 C.2       1 <0>         0.0790
     11 N2          4.8953   -0.0646   -0.0477 N.2       1 <0>        -0.2886
     12 C10         5.7570   -3.6116   -0.0829 C.3       1 <0>         0.1331
     13 N3          5.9541   -4.0418   -1.4737 N.3       1 <0>        -0.5337
     14 C11         4.6657   -4.2453   -2.1494 C.3       1 <0>         0.0411
     15 C12         4.9104   -4.5148   -3.6379 C.3       1 <0>         0.1332
     16 N4          5.8603   -5.6310   -3.7607 N.pl3     1 <0>        -0.5844
     17 C13         7.1180   -5.5611   -3.0014 C.3       1 <0>         0.1320
     18 C14         6.7864   -5.2505   -1.5379 C.3       1 <0>         0.0417
     19 C15         5.5783   -6.7180   -4.5697 C.ar      1 <0>         0.5659
     20 N5          4.4379   -6.7440   -5.2437 N.ar      1 <0>        -0.5735
     21 C16         4.1380   -7.7677   -6.0260 C.ar      1 <0>         0.1937
     22 C17         5.0333   -8.8201   -6.1352 C.ar      1 <0>        -0.2969
     23 C18         6.2168   -8.7606   -5.4164 C.ar      1 <0>         0.1940
     24 N6          6.4576   -7.7053   -4.6561 N.ar      1 <0>        -0.5728
     25 H1         -0.9597    1.9047    0.0260 H         1 <0>         0.1298
     26 H2          1.1519    3.1688    0.0080 H         1 <0>         0.1331
     27 H3          3.3036    1.9744   -0.0200 H         1 <0>         0.1380
     28 H4          1.2207   -1.7596   -0.0193 H         1 <0>         0.1282
     29 H5         -0.9261   -0.5562    0.0082 H         1 <0>         0.1334
     30 H6          2.9966   -2.7316   -0.0518 H         1 <0>         0.1729
     31 H7          6.8596   -0.8875   -0.0659 H         1 <0>         0.1902
     32 H8          6.7212   -3.5659    0.4233 H         1 <0>         0.0886
     33 H9          5.1109   -4.3243    0.4297 H         1 <0>         0.0416
     34 H10         4.1527   -5.0982   -1.7049 H         1 <0>         0.0365
     35 H11         4.0512   -3.3520   -2.0376 H         1 <0>         0.0873
     36 H12         3.9700   -4.7794   -4.1215 H         1 <0>         0.0999
     37 H13         5.3289   -3.6245   -4.1072 H         1 <0>         0.0721
     38 H14         7.6371   -6.5175   -3.0642 H         1 <0>         0.1018
     39 H15         7.7487   -4.7714   -3.4096 H         1 <0>         0.0738
     40 H16         7.7099   -5.0862   -0.9828 H         1 <0>         0.0914
     41 H17         6.2438   -6.0893   -1.1020 H         1 <0>         0.0382
     42 H18         3.2067   -7.7834   -6.5726 H         1 <0>         0.1663
     43 H19         4.8132   -9.6683   -6.7665 H         1 <0>         0.1435
     44 H20         6.9355   -9.5643   -5.4793 H         1 <0>         0.1667
@<TRIPOS>BOND
     1    1    6 ar
     2    1    2 ar
     3    1   25 1
     4    2    3 ar
     5    2   26 1
     6    3    4 ar
     7    3   27 1
     8    4    5 ar
     9    4    7 1
    10    5    6 ar
    11    5   28 1
    12    6   29 1
    13    7   11 1
    14    7    8 1
    15    8    9 2
    16    8   30 1
    17    9   10 1
    18    9   12 1
    19   10   11 2
    20   10   31 1
    21   12   13 1
    22   12   32 1
    23   12   33 1
    24   13   18 1
    25   13   14 1
    26   14   15 1
    27   14   34 1
    28   14   35 1
    29   15   16 1
    30   15   36 1
    31   15   37 1
    32   16   17 1
    33   16   19 1
    34   17   18 1
    35   17   38 1
    36   17   39 1
    37   18   40 1
    38   18   41 1
    39   19   24 ar
    40   19   20 ar
    41   20   21 ar
    42   21   22 ar
    43   21   42 1
    44   22   23 ar
    45   22   43 1
    46   23   24 ar
    47   23   44 1
