@<TRIPOS>MOLECULE
ZINC29135065
   25    27     0     0     0
SMALL
USER_CHARGES
4-(6-bromo-1H-pyrrolo[2,3-b]pyridin-3-yl)pyrimidin-2-amine
@<TRIPOS>ATOM
      1 C1          3.9019   -2.6656   -0.0489 C.ar      1 <0>        -0.0068
      2 C2          4.7889   -3.7264   -0.0625 C.ar      1 <0>        -0.1687
      3 C3          4.2976   -5.0234   -0.0642 C.ar      1 <0>         0.1610
      4 N1          3.0039   -5.2697   -0.0528 N.ar      1 <0>        -0.4735
      5 C4          2.1085   -4.2907   -0.0400 C.ar      1 <0>         0.2815
      6 C5          2.5372   -2.9515   -0.0375 C.ar      1 <0>        -0.1089
      7 C6          1.3158   -2.1310   -0.0215 C.2       1 <0>        -0.1479
      8 C7          0.2700   -2.9968   -0.0097 C.2       1 <0>         0.1376
      9 N2          0.7328   -4.2781   -0.0266 N.pl3     1 <0>        -0.5798
     10 H1          0.1740   -5.2256   -0.0304 H         1 <0>         0.4590
     11 C8          1.2420   -0.6541   -0.0133 C.ar      1 <0>         0.3054
     12 C9          0.0021   -0.0041    0.0020 C.ar      1 <0>        -0.2980
     13 C10        -0.0167    1.3771    0.0096 C.ar      1 <0>         0.1995
     14 N3          1.1296    2.0415    0.0022 N.ar      1 <0>        -0.5867
     15 C11         2.2897    1.4014   -0.0123 C.ar      1 <0>         0.5785
     16 N4          2.3547    0.0793   -0.0200 N.ar      1 <0>        -0.5766
     17 N5          3.4640    2.1342   -0.0191 N.pl3     1 <0>        -0.8460
     18 Br1         5.5134   -6.4716   -0.0828 Br        1 <0>        -0.0023
     19 H2          4.2558   -1.6452   -0.0476 H         1 <0>         0.1538
     20 H3          5.8538   -3.5466   -0.0712 H         1 <0>         0.1490
     21 H4         -0.7718   -2.7126    0.0080 H         1 <0>         0.1904
     22 H5         -0.9182   -0.5693    0.0081 H         1 <0>         0.1408
     23 H6         -0.9560    1.9100    0.0170 H         1 <0>         0.1666
     24 H7          4.4349    1.6172   -0.0311 H         1 <0>         0.4350
     25 H8          3.4263    3.2335   -0.0125 H         1 <0>         0.4372
@<TRIPOS>BOND
     1    1    6 ar
     2    1    2 ar
     3    1   19 1
     4    2    3 ar
     5    2   20 1
     6    3    4 ar
     7    3   18 1
     8    4    5 ar
     9    5    9 1
    10    5    6 ar
    11    6    7 1
    12    7    8 2
    13    7   11 1
    14    8    9 1
    15    8   21 1
    16    9   10 1
    17   11   16 ar
    18   11   12 ar
    19   12   13 ar
    20   12   22 1
    21   13   14 ar
    22   13   23 1
    23   14   15 ar
    24   15   16 ar
    25   15   17 1
    26   17   24 1
    27   17   25 1
@<TRIPOS>MOLECULE
ZINC29135071
   25    27     0     0     0
SMALL
USER_CHARGES
4-(4-chloro-1H-pyrrolo[2,3-b]pyridin-3-yl)pyrimidin-2-amine
@<TRIPOS>ATOM
      1 C1          4.6688    5.2304   -0.0133 C.ar      1 <0>        -0.1988
      2 C2          4.1415    6.5117   -0.0012 C.ar      1 <0>         0.1517
      3 N1          2.8423    6.7220    0.0117 N.ar      1 <0>        -0.4946
      4 C3          1.9731    5.7190    0.0139 C.ar      1 <0>         0.2866
      5 C4          2.4375    4.3925    0.0078 C.ar      1 <0>        -0.1240
      6 C5          3.8108    4.1438   -0.0116 C.ar      1 <0>         0.0624
      7 Cl1         4.4249    2.5202   -0.0258 Cl        1 <0>        -0.0158
      8 C6          1.2389    3.5391    0.0088 C.2       1 <0>        -0.1391
      9 C7          0.1699    4.3761    0.0234 C.2       1 <0>         0.1291
     10 N2          0.5983    5.6695    0.0266 N.pl3     1 <0>        -0.5797
     11 H1          0.0145    6.6017    0.0373 H         1 <0>         0.4590
     12 C8          1.2052    2.0607    0.0016 C.ar      1 <0>         0.2968
     13 C9         -0.0167    1.3772    0.0096 C.ar      1 <0>        -0.2957
     14 C10         0.0021   -0.0041    0.0020 C.ar      1 <0>         0.1967
     15 N3          1.1659   -0.6370   -0.0125 N.ar      1 <0>        -0.5865
     16 C11         2.3082    0.0345   -0.0198 C.ar      1 <0>         0.5726
     17 N4          2.3373    1.3579   -0.0130 N.ar      1 <0>        -0.5499
     18 N5          3.5019   -0.6660   -0.0345 N.pl3     1 <0>        -0.8460
     19 H2          5.7383    5.0808   -0.0234 H         1 <0>         0.1479
     20 H3          4.8125    7.3579   -0.0029 H         1 <0>         0.1714
     21 H4         -0.8640    4.0638    0.0314 H         1 <0>         0.1898
     22 H5         -0.9519    1.9171    0.0170 H         1 <0>         0.1390
     23 H6         -0.9225   -0.5623    0.0082 H         1 <0>         0.1652
     24 H7          4.4584   -0.1227   -0.0407 H         1 <0>         0.4252
     25 H8          3.4941   -1.7660   -0.0400 H         1 <0>         0.4366
@<TRIPOS>BOND
     1    1    6 ar
     2    1    2 ar
     3    1   19 1
     4    2    3 ar
     5    2   20 1
     6    3    4 ar
     7    4   10 1
     8    4    5 ar
     9    5    6 ar
    10    5    8 1
    11    6    7 1
    12    8    9 2
    13    8   12 1
    14    9   10 1
    15    9   21 1
    16   10   11 1
    17   12   17 ar
    18   12   13 ar
    19   13   14 ar
    20   13   22 1
    21   14   15 ar
    22   14   23 1
    23   15   16 ar
    24   16   17 ar
    25   16   18 1
    26   18   24 1
    27   18   25 1
@<TRIPOS>MOLECULE
ZINC29135178
   25    27     0     0     0
SMALL
USER_CHARGES
4-(1H-pyrrolo[2,3-b]pyridin-3-yl)pyrimidin-2-amine
@<TRIPOS>ATOM
      1 C1          4.7883   -3.7278   -0.0631 C.ar      1 <0>        -0.2023
      2 C2          3.9016   -2.6660   -0.0490 C.ar      1 <0>        -0.0151
      3 C3          2.5371   -2.9514   -0.0434 C.ar      1 <0>        -0.1205
      4 C4          1.3158   -2.1310   -0.0215 C.2       1 <0>        -0.1497
      5 C5          0.2698   -2.9968   -0.0161 C.2       1 <0>         0.1117
      6 N1          0.7325   -4.2781   -0.0274 N.pl3     1 <0>        -0.5825
      7 H1          0.0233   -5.1190   -0.0251 H         1 <0>         0.4533
      8 C6          2.1082   -4.2909   -0.0406 C.ar      1 <0>         0.2883
      9 N2          3.0037   -5.2695   -0.0543 N.ar      1 <0>        -0.4996
     10 C7          4.2967   -5.0233   -0.0653 C.ar      1 <0>         0.1374
     11 C8          1.2420   -0.6541   -0.0133 C.ar      1 <0>         0.3061
     12 C9          0.0021   -0.0041    0.0020 C.ar      1 <0>        -0.2990
     13 C10        -0.0167    1.3771    0.0096 C.ar      1 <0>         0.1981
     14 N3          1.1296    2.0415    0.0022 N.ar      1 <0>        -0.5882
     15 C11         2.2897    1.4014   -0.0123 C.ar      1 <0>         0.5773
     16 N4          2.3546    0.0793   -0.0200 N.ar      1 <0>        -0.5763
     17 N5          3.4640    2.1342   -0.0196 N.pl3     1 <0>        -0.8466
     18 H2          5.8533   -3.5486   -0.0727 H         1 <0>         0.1386
     19 H3          4.2561   -1.6459   -0.0469 H         1 <0>         0.1435
     20 H4         -0.7720   -2.7125   -0.0043 H         1 <0>         0.1869
     21 H5          4.9908   -5.8507   -0.0760 H         1 <0>         0.1618
     22 H6         -0.9182   -0.5693    0.0081 H         1 <0>         0.1401
     23 H7         -0.9560    1.9100    0.0170 H         1 <0>         0.1658
     24 H8          4.4349    1.6172   -0.0316 H         1 <0>         0.4345
     25 H9          3.4263    3.2335   -0.0134 H         1 <0>         0.4365
@<TRIPOS>BOND
     1    1   10 ar
     2    1    2 ar
     3    1   18 1
     4    2    3 ar
     5    2   19 1
     6    3    8 ar
     7    3    4 1
     8    4    5 2
     9    4   11 1
    10    5    6 1
    11    5   20 1
    12    6    7 1
    13    6    8 1
    14    8    9 ar
    15    9   10 ar
    16   10   21 1
    17   11   16 ar
    18   11   12 ar
    19   12   13 ar
    20   12   22 1
    21   13   14 ar
    22   13   23 1
    23   14   15 ar
    24   15   16 ar
    25   15   17 1
    26   17   24 1
    27   17   25 1
@<TRIPOS>MOLECULE
ZINC01864765
   26    28     0     0     0
SMALL
USER_CHARGES
4-(1H-indol-3-yl)pyrimidin-2-amine
@<TRIPOS>ATOM
      1 C1          4.6951    5.1764   -0.0155 C.ar      1 <0>        -0.1444
      2 C2          4.2402    6.4874   -0.0041 C.ar      1 <0>        -0.0977
      3 C3          2.8903    6.7621    0.0102 C.ar      1 <0>        -0.1288
      4 C4          1.9721    5.7165    0.0134 C.ar      1 <0>         0.0842
      5 C5          2.4394    4.3916    0.0078 C.ar      1 <0>        -0.0732
      6 C6          3.8092    4.1351   -0.0126 C.ar      1 <0>        -0.0593
      7 C7          1.2390    3.5389    0.0087 C.2       1 <0>        -0.1538
      8 C8          0.1688    4.3749    0.0234 C.2       1 <0>         0.1061
      9 N1          0.5946    5.6679    0.0263 N.pl3     1 <0>        -0.5823
     10 H1          0.0123    6.4436    0.0363 H         1 <0>         0.4215
     11 C9          1.2052    2.0606    0.0016 C.ar      1 <0>         0.3072
     12 C10        -0.0167    1.3771    0.0096 C.ar      1 <0>        -0.2941
     13 C11         0.0021   -0.0041    0.0020 C.ar      1 <0>         0.1967
     14 N2          1.1659   -0.6370   -0.0125 N.ar      1 <0>        -0.5843
     15 C12         2.3083    0.0344   -0.0198 C.ar      1 <0>         0.5725
     16 N3          2.3374    1.3578   -0.0130 N.ar      1 <0>        -0.5696
     17 N4          3.5019   -0.6661   -0.0345 N.pl3     1 <0>        -0.8229
     18 H2          5.7565    4.9772   -0.0263 H         1 <0>         0.1237
     19 H3          4.9514    7.3003   -0.0062 H         1 <0>         0.1265
     20 H4          2.5457    7.7857    0.0186 H         1 <0>         0.1216
     21 H5          4.1696    3.1171   -0.0218 H         1 <0>         0.1331
     22 H6         -0.8645    4.0612    0.0320 H         1 <0>         0.1807
     23 H7         -0.9519    1.9171    0.0170 H         1 <0>         0.1411
     24 H8         -0.9225   -0.5623    0.0082 H         1 <0>         0.1674
     25 H9          3.4950   -1.6361   -0.0393 H         1 <0>         0.4145
     26 H10         4.3454   -0.1871   -0.0400 H         1 <0>         0.4135
@<TRIPOS>BOND
     1    1    6 ar
     2    1    2 ar
     3    1   18 1
     4    2    3 ar
     5    2   19 1
     6    3    4 ar
     7    3   20 1
     8    4    9 1
     9    4    5 ar
    10    5    6 ar
    11    5    7 1
    12    6   21 1
    13    7    8 2
    14    7   11 1
    15    8    9 1
    16    8   22 1
    17    9   10 1
    18   11   16 ar
    19   11   12 ar
    20   12   13 ar
    21   12   23 1
    22   13   14 ar
    23   13   24 1
    24   14   15 ar
    25   15   16 ar
    26   15   17 1
    27   17   25 1
    28   17   26 1
