@<TRIPOS>MOLECULE
ZINC00598852
   51    53     0     0     0
SMALL
USER_CHARGES

@<TRIPOS>ATOM
      1 C1          0.5429    1.5070    0.0182 C.3       1 <0>        -0.1671
      2 C2          0.5454    0.0000    0.0096 C.ar      1 <0>         0.0307
      3 C3          0.6980   -0.6802   -1.1634 C.ar      1 <0>        -0.1172
      4 C4          0.7027   -2.0714   -1.1869 C.ar      1 <0>         0.0047
      5 C5          0.5547   -2.7939   -0.0399 C.ar      1 <0>        -0.1547
      6 C6          0.3958   -2.1272    1.1822 C.ar      1 <0>         0.2100
      7 C7          0.3970   -0.7113    1.2046 C.ar      1 <0>        -0.1916
      8 C8          0.2398   -0.0587    2.4533 C.ar      1 <0>         0.5718
      9 N1          0.1047   -0.8049    3.5395 N.ar      1 <0>        -0.5815
     10 C9          0.1146   -2.1336    3.4740 C.ar      1 <0>         0.6862
     11 N2          0.2462   -2.7915    2.3381 N.ar      1 <0>        -0.5785
     12 N3         -0.0306   -2.8556    4.6447 N.pl3     1 <0>        -0.7851
     13 N4          0.2283    1.3172    2.5352 N.pl3     1 <0>        -0.8075
     14 C10         0.8631    0.0856   -2.4507 C.3       1 <0>         0.1601
     15 N5          2.2497    0.5425   -2.5728 N.pl3     1 <0>        -0.7426
     16 C11         2.6471    1.2801   -3.6932 C.ar      1 <0>         0.2787
     17 C12         1.7259    1.5838   -4.6864 C.ar      1 <0>        -0.3075
     18 C13         2.1190    2.3146   -5.7968 C.ar      1 <0>         0.1942
     19 C14         3.4355    2.7433   -5.9156 C.ar      1 <0>        -0.0188
     20 C15         4.3571    2.4389   -4.9210 C.ar      1 <0>         0.1949
     21 C16         3.9612    1.7128   -3.8085 C.ar      1 <0>        -0.3034
     22 O1          5.6456    2.8580   -5.0364 O.3       1 <0>        -0.2978
     23 C17         6.5387    2.5092   -3.9768 C.3       1 <0>         0.0256
     24 O2          3.8225    3.4609   -7.0064 O.3       1 <0>        -0.3094
     25 C18         3.7098    4.8829   -6.9209 C.3       1 <0>         0.0337
     26 O3          1.2165    2.6116   -6.7698 O.3       1 <0>        -0.2977
     27 C19        -0.1189    2.1387   -6.5823 C.3       1 <0>         0.0256
     28 H1          1.5373    1.8705    0.2774 H         1 <0>         0.0979
     29 H2          0.2676    1.8755   -0.9700 H         1 <0>         0.0999
     30 H3         -0.1779    1.8650    0.7533 H         1 <0>         0.1021
     31 H4          0.8251   -2.5869   -2.1281 H         1 <0>         0.1583
     32 H5          0.5597   -3.8734   -0.0733 H         1 <0>         0.1603
     33 H6         -0.1367   -2.3923    5.4903 H         1 <0>         0.4460
     34 H7         -0.0263   -3.8253    4.6202 H         1 <0>         0.4316
     35 H8         -0.4142    1.7635    3.1087 H         1 <0>         0.4288
     36 H9          0.8626    1.8391    2.0193 H         1 <0>         0.4358
     37 H10         0.6185   -0.5620   -3.2927 H         1 <0>         0.0808
     38 H11         0.1955    0.9472   -2.4491 H         1 <0>         0.0823
     39 H12         2.8922    0.3335   -1.8768 H         1 <0>         0.4012
     40 H13         0.7028    1.2503   -4.5941 H         1 <0>         0.1330
     41 H14         4.6763    1.4800   -3.0333 H         1 <0>         0.1322
     42 H15         7.5314    2.9038   -4.1935 H         1 <0>         0.1049
     43 H16         6.1753    2.9338   -3.0409 H         1 <0>         0.0557
     44 H17         6.5905    1.4241   -3.8876 H         1 <0>         0.0576
     45 H18         4.3243    5.2472   -6.0976 H         1 <0>         0.0423
     46 H19         4.0502    5.3312   -7.8543 H         1 <0>         0.0924
     47 H20         2.6690    5.1550   -6.7455 H         1 <0>         0.0423
     48 H21        -0.5282    2.5607   -5.6645 H         1 <0>         0.0553
     49 H22        -0.7344    2.4437   -7.4286 H         1 <0>         0.1049
     50 H23        -0.1125    1.0511   -6.5109 H         1 <0>         0.0571
     51 H24         0.2468   -3.7615    2.3402 H         1 <0>         0.4417
@<TRIPOS>BOND
     1    1    2 1
     2    1   28 1
     3    1   29 1
     4    1   30 1
     5    2    7 ar
     6    2    3 ar
     7    3    4 ar
     8    3   14 1
     9    4    5 ar
    10    4   31 1
    11    5    6 ar
    12    5   32 1
    13    6   11 ar
    14    6    7 ar
    15    7    8 ar
    16    8    9 ar
    17    8   13 1
    18    9   10 ar
    19   10   11 ar
    20   10   12 1
    21   11   51 1
    22   12   33 1
    23   12   34 1
    24   13   35 1
    25   13   36 1
    26   14   15 1
    27   14   37 1
    28   14   38 1
    29   15   16 1
    30   15   39 1
    31   16   21 ar
    32   16   17 ar
    33   17   18 ar
    34   17   40 1
    35   18   19 ar
    36   18   26 1
    37   19   20 ar
    38   19   24 1
    39   20   21 ar
    40   20   22 1
    41   21   41 1
    42   22   23 1
    43   23   42 1
    44   23   43 1
    45   23   44 1
    46   24   25 1
    47   25   45 1
    48   25   46 1
    49   25   47 1
    50   26   27 1
    51   27   48 1
    52   27   49 1
    53   27   50 1
@<TRIPOS>MOLECULE
ZINC06627681
   39    40     0     0     0
SMALL
USER_CHARGES

@<TRIPOS>ATOM
      1 C1         -0.0173    1.4248    0.0099 C.3       1 <0>         0.0239
      2 O1          0.0021   -0.0041    0.0020 O.3       1 <0>        -0.3021
      3 C2         -1.2011   -0.6379    0.0101 C.ar      1 <0>         0.1549
      4 C3         -2.3748    0.1005    0.0195 C.ar      1 <0>        -0.2271
      5 C4         -3.5982   -0.5428    0.0277 C.ar      1 <0>        -0.0020
      6 C5         -3.6572   -1.9238    0.0266 C.ar      1 <0>        -0.2327
      7 C6         -2.4882   -2.6696    0.0172 C.ar      1 <0>         0.1543
      8 C7         -1.2561   -2.0266    0.0032 C.ar      1 <0>         0.0227
      9 O2         -0.1065   -2.7549   -0.0117 O.3       1 <0>        -0.3126
     10 C8          0.4536   -3.1089    1.2544 C.3       1 <0>         0.0351
     11 O3         -2.5472   -4.0282    0.0166 O.3       1 <0>        -0.3013
     12 C9         -3.8474   -4.6211    0.0259 C.3       1 <0>         0.0236
     13 C10        -4.8712    0.2637    0.0384 C.3       1 <0>        -0.0163
     14 C11        -5.3062    0.5346   -1.3789 C.ar      1 <0>        -0.3083
     15 C12        -4.9545    1.7101   -2.0132 C.ar      1 <0>         0.2250
     16 N1         -5.3522    1.9181   -3.2597 N.ar      1 <0>        -0.6043
     17 C13        -6.0798    1.0161   -3.9019 C.ar      1 <0>         0.6032
     18 N2         -6.4382   -0.1231   -3.3293 N.ar      1 <0>        -0.6263
     19 C14        -6.0690   -0.3996   -2.0826 C.ar      1 <0>         0.4894
     20 N3         -6.4404   -1.5946   -1.4883 N.pl3     1 <0>        -0.8360
     21 N4         -6.4756    1.2708   -5.2034 N.pl3     1 <0>        -0.8207
     22 H1          1.0053    1.8021    0.0021 H         1 <0>         0.1035
     23 H2         -0.5445    1.7859   -0.8732 H         1 <0>         0.0589
     24 H3         -0.5275    1.7763    0.9067 H         1 <0>         0.0581
     25 H4         -2.3329    1.1797    0.0207 H         1 <0>         0.1363
     26 H5         -4.6151   -2.4227    0.0334 H         1 <0>         0.1280
     27 H6         -0.2648   -3.7070    1.8151 H         1 <0>         0.0438
     28 H7          1.3650   -3.6864    1.0998 H         1 <0>         0.0924
     29 H8          0.6878   -2.2033    1.8141 H         1 <0>         0.0441
     30 H9         -4.3845   -4.3050    0.9202 H         1 <0>         0.0570
     31 H10        -4.3978   -4.3036   -0.8597 H         1 <0>         0.0568
     32 H11        -3.7517   -5.7069    0.0243 H         1 <0>         0.1041
     33 H12        -5.6506   -0.2944    0.5572 H         1 <0>         0.0773
     34 H13        -4.6980    1.2092    0.5523 H         1 <0>         0.0904
     35 H14        -4.3619    2.4519   -1.4984 H         1 <0>         0.1633
     36 H15        -6.1706   -1.7873   -0.5767 H         1 <0>         0.4079
     37 H16        -6.2200    2.1014   -5.6342 H         1 <0>         0.4156
     38 H17        -7.0085    0.6187   -5.6847 H         1 <0>         0.4133
     39 H18        -6.9704   -2.2385   -1.9837 H         1 <0>         0.4067
@<TRIPOS>BOND
     1    1    2 1
     2    1   22 1
     3    1   23 1
     4    1   24 1
     5    2    3 1
     6    3    8 ar
     7    3    4 ar
     8    4    5 ar
     9    4   25 1
    10    5    6 ar
    11    5   13 1
    12    6    7 ar
    13    6   26 1
    14    7    8 ar
    15    7   11 1
    16    8    9 1
    17    9   10 1
    18   10   27 1
    19   10   28 1
    20   10   29 1
    21   11   12 1
    22   12   30 1
    23   12   31 1
    24   12   32 1
    25   13   14 1
    26   13   33 1
    27   13   34 1
    28   14   19 ar
    29   14   15 ar
    30   15   16 ar
    31   15   35 1
    32   16   17 ar
    33   17   18 ar
    34   17   21 1
    35   18   19 ar
    36   19   20 1
    37   20   36 1
    38   20   39 1
    39   21   37 1
    40   21   38 1
@<TRIPOS>MOLECULE
ZINC06627681
   40    41     0     0     0
SMALL
USER_CHARGES

@<TRIPOS>ATOM
      1 C1         -0.0173    1.4248    0.0099 C.3       1 <0>         0.0236
      2 O1          0.0021   -0.0041    0.0020 O.3       1 <0>        -0.2966
      3 C2          0.6062   -0.6075   -1.0565 C.ar      1 <0>         0.1590
      4 C3          1.1731    0.1601   -2.0626 C.ar      1 <0>        -0.2276
      5 C4          1.7874   -0.4523   -3.1388 C.ar      1 <0>        -0.0278
      6 C5          1.8393   -1.8314   -3.2169 C.ar      1 <0>        -0.2351
      7 C6          1.2749   -2.6062   -2.2150 C.ar      1 <0>         0.1601
      8 C7          0.6613   -1.9944   -1.1284 C.ar      1 <0>         0.0371
      9 O2          0.1111   -2.7512   -0.1402 O.3       1 <0>        -0.3127
     10 C8         -1.2598   -3.1236   -0.2953 C.3       1 <0>         0.0346
     11 O3          1.3261   -3.9630   -2.2930 O.3       1 <0>        -0.2955
     12 C9          1.9770   -4.5231   -3.4352 C.3       1 <0>         0.0221
     13 C10         2.4017    0.3858   -4.2302 C.3       1 <0>        -0.0295
     14 C11         3.8422    0.6725   -3.8928 C.ar      1 <0>        -0.2227
     15 C12         4.1975    1.8410   -3.2477 C.ar      1 <0>         0.2105
     16 N1          5.4726    2.0633   -2.9647 N.ar      1 <0>        -0.5697
     17 C13         6.4065    1.1822   -3.2920 C.ar      1 <0>         0.6625
     18 N2          6.1075    0.0504   -3.9114 N.ar      1 <0>        -0.5720
     19 C14         4.8475   -0.2398   -4.2201 C.ar      1 <0>         0.5372
     20 N3          4.5370   -1.4272   -4.8628 N.pl3     1 <0>        -0.7792
     21 N4          7.7275    1.4516   -2.9793 N.pl3     1 <0>        -0.7906
     22 H1          1.0053    1.8021    0.0021 H         1 <0>         0.0555
     23 H2         -0.5445    1.7859   -0.8732 H         1 <0>         0.0607
     24 H3         -0.5275    1.7763    0.9067 H         1 <0>         0.1087
     25 H4          1.1343    1.2379   -2.0054 H         1 <0>         0.1378
     26 H5          2.3199   -2.3061   -4.0596 H         1 <0>         0.1268
     27 H6         -1.3771   -3.7054   -1.2095 H         1 <0>         0.0473
     28 H7         -1.5724   -3.7233    0.5596 H         1 <0>         0.0987
     29 H8         -1.8756   -2.2262   -0.3542 H         1 <0>         0.0474
     30 H9          1.4660   -4.1967   -4.3410 H         1 <0>         0.0599
     31 H10         3.0141   -4.1888   -3.4626 H         1 <0>         0.0544
     32 H11         1.9474   -5.6109   -3.3732 H         1 <0>         0.1103
     33 H12         2.3506   -0.1544   -5.1756 H         1 <0>         0.0994
     34 H13         1.8554    1.3249   -4.3183 H         1 <0>         0.1128
     35 H14         3.4440    2.5659   -2.9772 H         1 <0>         0.2147
     36 H15         3.6157   -1.6298   -5.0887 H         1 <0>         0.4275
     37 H16         7.9600    2.2771   -2.5260 H         1 <0>         0.4311
     38 H17         8.4208    0.8149   -3.2134 H         1 <0>         0.4453
     39 H18         5.2409   -2.0558   -5.0868 H         1 <0>         0.4288
     40 H19         5.7260    2.8827   -2.5117 H         1 <0>         0.4452
@<TRIPOS>BOND
     1    1    2 1
     2    1   22 1
     3    1   23 1
     4    1   24 1
     5    2    3 1
     6    3    8 ar
     7    3    4 ar
     8    4    5 ar
     9    4   25 1
    10    5    6 ar
    11    5   13 1
    12    6    7 ar
    13    6   26 1
    14    7    8 ar
    15    7   11 1
    16    8    9 1
    17    9   10 1
    18   10   27 1
    19   10   28 1
    20   10   29 1
    21   11   12 1
    22   12   30 1
    23   12   31 1
    24   12   32 1
    25   13   14 1
    26   13   33 1
    27   13   34 1
    28   14   19 ar
    29   14   15 ar
    30   15   16 ar
    31   15   35 1
    32   16   17 ar
    33   16   40 1
    34   17   18 ar
    35   17   21 1
    36   18   19 ar
    37   19   20 1
    38   20   36 1
    39   20   39 1
    40   21   37 1
    41   21   38 1
@<TRIPOS>MOLECULE
ZINC01540998
   50    52     0     0     0
SMALL
USER_CHARGES

@<TRIPOS>ATOM
      1 C1         -0.0167    1.3794    0.0096 C.ar      1 <0>        -0.1237
      2 C2          1.1667    2.0884    0.0021 C.ar      1 <0>        -0.0650
      3 C3          2.3848    1.4070   -0.0132 C.ar      1 <0>        -0.1108
      4 C4          2.3966    0.0113   -0.0208 C.ar      1 <0>        -0.0853
      5 C5          1.2061   -0.6856   -0.0132 C.ar      1 <0>        -0.1248
      6 C6          0.0021   -0.0041    0.0020 C.ar      1 <0>        -0.0756
      7 C7         -1.2946   -0.7719    0.0103 C.3       1 <0>        -0.0645
      8 C8         -1.7472   -1.0241   -1.4293 C.3       1 <0>        -0.0478
      9 C9         -3.0439   -1.7919   -1.4210 C.2       1 <0>        -0.0685
     10 C10        -3.1874   -3.1243   -1.5149 C.2       1 <0>        -0.0065
     11 N1         -4.5200   -3.4490   -1.4711 N.pl3     1 <0>        -0.5467
     12 H1         -4.8743   -4.3505   -1.5209 H         1 <0>         0.4184
     13 C11        -5.2735   -2.3187   -1.3465 C.2       1 <0>         0.3387
     14 C12        -4.3891   -1.2318   -1.3029 C.2       1 <0>        -0.3095
     15 C13        -4.9114    0.0734   -1.1699 C.2       1 <0>         0.5795
     16 O1         -4.1726    1.0423   -1.1322 O.2       1 <0>        -0.5172
     17 N2         -6.2532    0.2199   -1.0861 N.am      1 <0>        -0.6639
     18 H2         -6.6382    1.1055   -0.9942 H         1 <0>         0.4126
     19 C14        -7.0663   -0.8737   -1.1307 C.2       1 <0>         0.6511
     20 N3         -6.5926   -2.0916   -1.2621 N.2       1 <0>        -0.5927
     21 N4         -8.4242   -0.6953   -1.0434 N.pl3     1 <0>        -0.8265
     22 C15         3.6569    2.1603   -0.0218 C.2       1 <0>         0.5510
     23 O2          3.6435    3.3757   -0.0155 O.2       1 <0>        -0.5556
     24 N5          4.8314    1.4994   -0.0366 N.am      1 <0>        -0.6767
     25 C16         6.0919    2.2459   -0.0451 C.3       1 <0>         0.0726
     26 H3          5.9814    3.1523    0.5501 H         1 <0>         0.0776
     27 C17         7.2027    1.3778    0.5494 C.3       1 <0>        -0.0801
     28 C18         6.9032    1.1060    2.0250 C.3       1 <0>        -0.1779
     29 C19         7.9973    0.2510    2.6105 C.2       1 <0>         0.4911
     30 O3          8.9302   -0.1078    1.9123 O.co2     1 <0>        -0.6973
     31 O4          7.9496   -0.0820    3.7824 O.co2     1 <0>        -0.7205
     32 C20         6.4472    2.6155   -1.4622 C.2       1 <0>         0.4957
     33 O5          5.7154    2.2860   -2.3799 O.co2     1 <0>        -0.6965
     34 O6          7.4666    3.2441   -1.6909 O.co2     1 <0>        -0.7009
     35 H4         -0.9598    1.9054    0.0260 H         1 <0>         0.1238
     36 H5          1.1508    3.1682    0.0077 H         1 <0>         0.1319
     37 H6          3.3358   -0.5219   -0.0330 H         1 <0>         0.1274
     38 H7          1.2138   -1.7656   -0.0191 H         1 <0>         0.1227
     39 H8         -1.1489   -1.7256    0.5176 H         1 <0>         0.0683
     40 H9         -2.0557   -0.1941    0.5345 H         1 <0>         0.0708
     41 H10        -1.8929   -0.0704   -1.9367 H         1 <0>         0.0817
     42 H11        -0.9861   -1.6019   -1.9536 H         1 <0>         0.0745
     43 H12        -2.3774   -3.8322   -1.6109 H         1 <0>         0.1800
     44 H13        -8.7912    0.1979   -0.9515 H         1 <0>         0.4143
     45 H14        -9.0171   -1.4624   -1.0735 H         1 <0>         0.4255
     46 H15         4.8421    0.5294   -0.0416 H         1 <0>         0.3891
     47 H16         7.2537    0.4325    0.0090 H         1 <0>         0.0548
     48 H17         8.1565    1.8981    0.4621 H         1 <0>         0.0788
     49 H18         6.8522    2.0513    2.5654 H         1 <0>         0.0521
     50 H19         5.9494    0.5857    2.1123 H         1 <0>         0.0504
@<TRIPOS>BOND
     1    1    6 ar
     2    1    2 ar
     3    1   35 1
     4    2    3 ar
     5    2   36 1
     6    3    4 ar
     7    3   22 1
     8    4    5 ar
     9    4   37 1
    10    5    6 ar
    11    5   38 1
    12    6    7 1
    13    7    8 1
    14    7   39 1
    15    7   40 1
    16    8    9 1
    17    8   41 1
    18    8   42 1
    19    9   14 1
    20    9   10 2
    21   10   11 1
    22   10   43 1
    23   11   12 1
    24   11   13 1
    25   13   20 1
    26   13   14 2
    27   14   15 1
    28   15   16 2
    29   15   17 am
    30   17   18 1
    31   17   19 1
    32   19   20 2
    33   19   21 1
    34   21   44 1
    35   21   45 1
    36   22   23 2
    37   22   24 am
    38   24   25 1
    39   24   46 1
    40   25   26 1
    41   25   27 1
    42   25   32 1
    43   27   28 1
    44   27   47 1
    45   27   48 1
    46   28   29 1
    47   28   49 1
    48   28   50 1
    49   29   30 2
    50   29   31 1
    51   32   33 2
    52   32   34 1
@<TRIPOS>MOLECULE
ZINC00598590
   49    51     0     0     0
SMALL
USER_CHARGES
5-[(3,5-diethoxy-4-pyrrol-1-yl-phenyl)methyl]pyrimidine-2,4-diamine
@<TRIPOS>ATOM
      1 C1         -0.0127    1.0858    0.0080 C.3       1 <0>        -0.1530
      2 C2         -0.7288    1.5792    1.2668 C.3       1 <0>         0.0531
      3 O1         -0.0377    1.1059    2.4245 O.3       1 <0>        -0.2982
      4 C3         -0.5477    1.4576    3.6347 C.ar      1 <0>         0.1851
      5 C4         -1.6858    2.2464    3.7059 C.ar      1 <0>        -0.2381
      6 C5         -2.2086    2.5999    4.9357 C.ar      1 <0>         0.0133
      7 C6         -1.5937    2.1789    6.1000 C.ar      1 <0>        -0.2322
      8 C7         -0.4519    1.3946    6.0391 C.ar      1 <0>         0.1852
      9 C8          0.0748    1.0314    4.8037 C.ar      1 <0>         0.0357
     10 N1          1.2319    0.2371    4.7367 N.pl3     1 <0>        -0.3807
     11 C9          1.2985   -1.0311    4.2368 C.2       1 <0>         0.0012
     12 C10         2.5738   -1.4587    4.3406 C.2       1 <0>        -0.2005
     13 C11         3.3201   -0.4216    4.9344 C.2       1 <0>        -0.2005
     14 C12         2.4745    0.6037    5.1662 C.2       1 <0>         0.0015
     15 O2          0.1523    0.9815    7.1848 O.3       1 <0>        -0.2991
     16 C13        -0.4437    1.3922    8.4170 C.3       1 <0>         0.0529
     17 C14         0.3696    0.8357    9.5873 C.3       1 <0>        -0.1527
     18 C15        -3.4493    3.4522    5.0075 C.3       1 <0>        -0.0184
     19 C16        -3.0585    4.9075    5.0301 C.ar      1 <0>        -0.3101
     20 C17        -2.9281    5.5854    6.2265 C.ar      1 <0>         0.2260
     21 N2         -2.5826    6.8643    6.2125 N.ar      1 <0>        -0.6039
     22 C18        -2.3619    7.4977    5.0699 C.ar      1 <0>         0.6040
     23 N3         -2.4758    6.8839    3.9019 N.ar      1 <0>        -0.6261
     24 C19        -2.8143    5.5998    3.8422 C.ar      1 <0>         0.4900
     25 N4         -2.9278    4.9590    2.6192 N.pl3     1 <0>        -0.8361
     26 N5         -2.0028    8.8340    5.0976 N.pl3     1 <0>        -0.8202
     27 H1          0.0021   -0.0041    0.0020 H         1 <0>         0.0689
     28 H2          1.0099    1.4631    0.0003 H         1 <0>         0.0680
     29 H3         -0.5399    1.4469   -0.8751 H         1 <0>         0.0813
     30 H4         -0.7436    2.6691    1.2728 H         1 <0>         0.0634
     31 H5         -1.7514    1.2020    1.2746 H         1 <0>         0.0650
     32 H6         -2.1669    2.5817    2.7990 H         1 <0>         0.1308
     33 H7         -2.0031    2.4617    7.0585 H         1 <0>         0.1392
     34 H8          0.4733   -1.5941    3.8263 H         1 <0>         0.1541
     35 H9          2.9524   -2.4212    4.0298 H         1 <0>         0.1347
     36 H10         4.3755   -0.4434    5.1623 H         1 <0>         0.1346
     37 H11         2.7357    1.5510    5.6143 H         1 <0>         0.1534
     38 H12        -0.4570    2.4809    8.4690 H         1 <0>         0.0659
     39 H13        -1.4643    1.0134    8.4710 H         1 <0>         0.0662
     40 H14        -0.0850    1.1490   10.5272 H         1 <0>         0.0816
     41 H15         0.3829   -0.2530    9.5353 H         1 <0>         0.0677
     42 H16         1.3902    1.2145    9.5333 H         1 <0>         0.0678
     43 H17        -4.0748    3.2575    4.1363 H         1 <0>         0.0792
     44 H18        -4.0040    3.2109    5.9143 H         1 <0>         0.0925
     45 H19        -3.1054    5.0781    7.1633 H         1 <0>         0.1635
     46 H20        -3.1786    4.0227    2.5837 H         1 <0>         0.4077
     47 H21        -2.7566    5.4467    1.7984 H         1 <0>         0.4071
     48 H22        -1.9156    9.2952    5.9465 H         1 <0>         0.4159
     49 H23        -1.8383    9.3093    4.2682 H         1 <0>         0.4136
@<TRIPOS>BOND
     1    1    2 1
     2    1   27 1
     3    1   28 1
     4    1   29 1
     5    2    3 1
     6    2   30 1
     7    2   31 1
     8    3    4 1
     9    4    9 ar
    10    4    5 ar
    11    5    6 ar
    12    5   32 1
    13    6    7 ar
    14    6   18 1
    15    7    8 ar
    16    7   33 1
    17    8    9 ar
    18    8   15 1
    19    9   10 1
    20   10   14 1
    21   10   11 1
    22   11   12 2
    23   11   34 1
    24   12   13 1
    25   12   35 1
    26   13   14 2
    27   13   36 1
    28   14   37 1
    29   15   16 1
    30   16   17 1
    31   16   38 1
    32   16   39 1
    33   17   40 1
    34   17   41 1
    35   17   42 1
    36   18   19 1
    37   18   43 1
    38   18   44 1
    39   19   24 ar
    40   19   20 ar
    41   20   21 ar
    42   20   45 1
    43   21   22 ar
    44   22   23 ar
    45   22   26 1
    46   23   24 ar
    47   24   25 1
    48   25   46 1
    49   25   47 1
    50   26   48 1
    51   26   49 1
@<TRIPOS>MOLECULE
ZINC00394310
   24    25     0     0     0
SMALL
USER_CHARGES
6,7-dimethylpteridine-2,4-diamine
@<TRIPOS>ATOM
      1 C1          1.5036    1.5690    2.4146 C.3       1 <0>        -0.0974
      2 C2          0.0152    1.8050    2.4109 C.ar      1 <0>         0.0486
      3 C3         -0.7181    1.5718    1.2479 C.ar      1 <0>         0.1693
      4 N1         -2.0179    1.7762    1.2185 N.ar      1 <0>        -0.4449
      5 C4         -2.6429    2.2017    2.3192 C.ar      1 <0>         0.3742
      6 C5         -1.8928    2.4371    3.4984 C.ar      1 <0>        -0.0971
      7 N2         -0.5800    2.2296    3.5052 N.ar      1 <0>        -0.3828
      8 C6         -2.6117    2.9092    4.6831 C.ar      1 <0>         0.5430
      9 N3         -3.9214    3.0873    4.5788 N.ar      1 <0>        -0.6288
     10 C7         -4.5619    2.8464    3.4392 C.ar      1 <0>         0.6389
     11 N4         -3.9634    2.4207    2.3446 N.ar      1 <0>        -0.6027
     12 N5         -5.9277    3.0526    3.4001 N.pl3     1 <0>        -0.8075
     13 N6         -1.9504    3.1593    5.8654 N.pl3     1 <0>        -0.7928
     14 C8         -0.0127    1.0858    0.0080 C.3       1 <0>        -0.1119
     15 H1          2.0174    2.4850    2.1227 H         1 <0>         0.0821
     16 H2          1.8226    1.2765    3.4149 H         1 <0>         0.0797
     17 H3          1.7473    0.7750    1.7087 H         1 <0>         0.0834
     18 H4         -6.4203    2.8844    2.5816 H         1 <0>         0.4195
     19 H5         -6.3938    3.3656    4.1911 H         1 <0>         0.4169
     20 H6         -0.9917    3.0229    5.9232 H         1 <0>         0.4255
     21 H7         -2.4434    3.4717    6.6402 H         1 <0>         0.4160
     22 H8          0.0021   -0.0041    0.0020 H         1 <0>         0.0923
     23 H9          1.0099    1.4631    0.0003 H         1 <0>         0.0892
     24 H10        -0.5399    1.4469   -0.8751 H         1 <0>         0.0874
@<TRIPOS>BOND
     1    1    2 1
     2    1   15 1
     3    1   16 1
     4    1   17 1
     5    2    7 ar
     6    2    3 ar
     7    3    4 ar
     8    3   14 1
     9    4    5 ar
    10    5   11 ar
    11    5    6 ar
    12    6    7 ar
    13    6    8 ar
    14    8    9 ar
    15    8   13 1
    16    9   10 ar
    17   10   11 ar
    18   10   12 1
    19   12   18 1
    20   12   19 1
    21   13   20 1
    22   13   21 1
    23   14   22 1
    24   14   23 1
    25   14   24 1
@<TRIPOS>MOLECULE
ZINC00394310
   25    26     0     0     0
SMALL
USER_CHARGES
6,7-dimethylpteridine-2,4-diamine
@<TRIPOS>ATOM
      1 C1          1.5036    1.5690    2.4146 C.3       1 <0>        -0.1149
      2 C2          0.0152    1.8050    2.4109 C.ar      1 <0>         0.1007
      3 C3         -0.7181    1.5718    1.2479 C.ar      1 <0>         0.1984
      4 N1         -2.0179    1.7762    1.2185 N.ar      1 <0>        -0.4524
      5 C4         -2.6429    2.2017    2.3192 C.ar      1 <0>         0.3383
      6 C5         -1.8928    2.4371    3.4984 C.ar      1 <0>        -0.0223
      7 N2         -0.5800    2.2296    3.5052 N.ar      1 <0>        -0.3682
      8 C6         -2.6117    2.9092    4.6831 C.ar      1 <0>         0.5811
      9 N3         -3.9214    3.0873    4.5788 N.ar      1 <0>        -0.5762
     10 C7         -4.5619    2.8464    3.4392 C.ar      1 <0>         0.7105
     11 N4         -5.9277    3.0526    3.4001 N.pl3     1 <0>        -0.7768
     12 N5         -1.9504    3.1593    5.8654 N.pl3     1 <0>        -0.7326
     13 C8         -0.0127    1.0858    0.0080 C.3       1 <0>        -0.1257
     14 H1          2.0174    2.4850    2.1227 H         1 <0>         0.1019
     15 H2          1.8226    1.2765    3.4149 H         1 <0>         0.0960
     16 H3          1.7473    0.7750    1.7087 H         1 <0>         0.0990
     17 H4         -6.4203    2.8844    2.5816 H         1 <0>         0.4339
     18 H5         -6.3938    3.3656    4.1911 H         1 <0>         0.4460
     19 H6         -0.9917    3.0229    5.9232 H         1 <0>         0.4435
     20 H7         -2.4434    3.4717    6.6402 H         1 <0>         0.4365
     21 H8          0.0021   -0.0041    0.0020 H         1 <0>         0.1104
     22 H9          1.0099    1.4631    0.0003 H         1 <0>         0.1055
     23 H10        -0.5399    1.4469   -0.8751 H         1 <0>         0.1002
     24 N6         -4.0047    2.4085    2.2822 N.ar      1 <0>        -0.5946
     25 H11        -4.5139    2.2359    1.4390 H         1 <0>         0.4618
@<TRIPOS>BOND
     1    1    2 1
     2    1   14 1
     3    1   15 1
     4    1   16 1
     5    2    7 ar
     6    2    3 ar
     7    3    4 ar
     8    3   13 1
     9    4    5 ar
    10    5    6 ar
    11    5   24 ar
    12    6    7 ar
    13    6    8 ar
    14    8    9 ar
    15    8   12 1
    16    9   10 ar
    17   10   11 1
    18   10   24 ar
    19   11   17 1
    20   11   18 1
    21   12   19 1
    22   12   20 1
    23   13   21 1
    24   13   22 1
    25   13   23 1
    26   24   25 1
@<TRIPOS>MOLECULE
ZINC00394310
   25    26     0     0     0
SMALL
USER_CHARGES
6,7-dimethylpteridine-2,4-diamine
@<TRIPOS>ATOM
      1 C1          1.5036    1.5690    2.4146 C.3       1 <0>        -0.1182
      2 C2          0.0152    1.8050    2.4109 C.ar      1 <0>         0.1295
      3 C3         -0.7181    1.5718    1.2479 C.ar      1 <0>         0.2263
      4 N1         -2.0179    1.7762    1.2185 N.ar      1 <0>        -0.4179
      5 C4         -2.6429    2.2017    2.3192 C.ar      1 <0>         0.3627
      6 C5         -1.8928    2.4371    3.4984 C.ar      1 <0>        -0.1323
      7 N2         -0.5800    2.2296    3.5052 N.ar      1 <0>        -0.3787
      8 C6         -2.6117    2.9092    4.6831 C.ar      1 <0>         0.4551
      9 N3         -3.9214    3.0873    4.5788 N.ar      1 <0>        -0.5020
     10 C7         -4.5619    2.8464    3.4392 C.ar      1 <0>         0.5743
     11 N4         -5.9277    3.0526    3.4001 N.pl3     1 <0>        -0.7413
     12 N5         -1.9504    3.1593    5.8654 N.pl3     1 <0>        -0.7133
     13 C8         -0.0127    1.0858    0.0080 C.3       1 <0>        -0.1310
     14 H1          2.0174    2.4850    2.1227 H         1 <0>         0.1073
     15 H2          1.8226    1.2765    3.4149 H         1 <0>         0.0990
     16 H3          1.7473    0.7750    1.7087 H         1 <0>         0.1043
     17 H4         -6.4203    2.8844    2.5816 H         1 <0>         0.4501
     18 H5         -6.3938    3.3656    4.1911 H         1 <0>         0.4357
     19 H6         -0.9917    3.0229    5.9232 H         1 <0>         0.4662
     20 H7         -2.4434    3.4717    6.6402 H         1 <0>         0.4547
     21 H8          0.0021   -0.0041    0.0020 H         1 <0>         0.1176
     22 H9          1.0099    1.4631    0.0003 H         1 <0>         0.1091
     23 H10        -0.5399    1.4469   -0.8751 H         1 <0>         0.1069
     24 N6         -4.0047    2.4085    2.2822 N.ar      1 <0>        -0.4700
     25 H11        -2.9331    2.9464    4.6363 H         1 <0>         0.4056
@<TRIPOS>BOND
     1    1    2 1
     2    1   14 1
     3    1   15 1
     4    1   16 1
     5    2    7 ar
     6    2    3 ar
     7    3    4 ar
     8    3   13 1
     9    4    5 ar
    10    5    6 ar
    11    5   24 ar
    12    6    7 ar
    13    6    8 ar
    14    8    9 ar
    15    8   12 1
    16    9   10 ar
    17    9   25 1
    18   10   11 1
    19   10   24 ar
    20   11   17 1
    21   11   18 1
    22   12   19 1
    23   12   20 1
    24   13   21 1
    25   13   22 1
    26   13   23 1
@<TRIPOS>MOLECULE
ZINC01529323
   53    55     0     0     0
SMALL
USER_CHARGES

@<TRIPOS>ATOM
      1 C1         -0.0178    1.4608    0.0101 C.3       1 <0>         0.0943
      2 N1          0.0021   -0.0041    0.0020 N.pl3     1 <0>        -0.6229
      3 C2          0.0241   -0.7433    1.2666 C.3       1 <0>         0.1846
      4 C3         -1.3889   -1.0161    1.7137 C.ar      1 <0>         0.0299
      5 C4         -1.9892   -2.2351    1.3999 C.ar      1 <0>         0.1556
      6 N2         -3.2219   -2.4965    1.7797 N.ar      1 <0>        -0.4373
      7 C5         -3.9051   -1.5830    2.4739 C.ar      1 <0>         0.3718
      8 C6         -3.2902   -0.3458    2.7901 C.ar      1 <0>        -0.0918
      9 N3         -2.0425   -0.1038    2.4012 N.ar      1 <0>        -0.3728
     10 C7         -4.0706    0.6301    3.5527 C.ar      1 <0>         0.5432
     11 N4         -5.3055    0.2953    3.9004 N.ar      1 <0>        -0.6300
     12 C8         -5.8196   -0.8850    3.5693 C.ar      1 <0>         0.6362
     13 N5         -5.1609   -1.7987    2.8845 N.ar      1 <0>        -0.5990
     14 N6         -7.1130   -1.1692    3.9639 N.pl3     1 <0>        -0.8099
     15 N7         -3.5402    1.8539    3.8976 N.pl3     1 <0>        -0.7943
     16 C9          0.0000   -0.6928   -1.2059 C.ar      1 <0>         0.2179
     17 C10         0.0132   -2.0849   -1.2118 C.ar      1 <0>        -0.2113
     18 C11         0.0112   -2.7693   -2.4056 C.ar      1 <0>        -0.0159
     19 C12        -0.0041   -2.0653   -3.6133 C.ar      1 <0>        -0.1590
     20 C13        -0.0173   -0.6674   -3.6040 C.ar      1 <0>        -0.0366
     21 C14        -0.0210    0.0112   -2.4068 C.ar      1 <0>        -0.1985
     22 C15        -0.0058   -2.7960   -4.8948 C.2       1 <0>         0.5556
     23 O1          0.0061   -4.0119   -4.9015 O.2       1 <0>        -0.5600
     24 N8         -0.0205   -2.1158   -6.0583 N.am      1 <0>        -0.6793
     25 C16        -0.0222   -2.8414   -7.3310 C.3       1 <0>         0.0733
     26 H1         -0.6020   -3.7584   -7.2256 H         1 <0>         0.0773
     27 C17        -0.6480   -1.9644   -8.4172 C.3       1 <0>        -0.0801
     28 C18        -2.1222   -1.7198   -8.0888 C.3       1 <0>        -0.1777
     29 C19        -2.7386   -0.8559   -9.1588 C.2       1 <0>         0.4909
     30 O2         -2.0616   -0.4715  -10.0971 O.co2     1 <0>        -0.6975
     31 O3         -3.9143   -0.5414   -9.0862 O.co2     1 <0>        -0.7207
     32 C20         1.3940   -3.1839   -7.7158 C.2       1 <0>         0.4958
     33 O4          2.3190   -2.8526   -6.9939 O.co2     1 <0>        -0.6970
     34 O5          1.6147   -3.7923   -8.7491 O.co2     1 <0>        -0.7014
     35 H2          1.0048    1.8381    0.0023 H         1 <0>         0.0502
     36 H3         -0.5450    1.8219   -0.8730 H         1 <0>         0.0690
     37 H4         -0.5280    1.8123    0.9069 H         1 <0>         0.0657
     38 H5          0.5496   -1.6879    1.1262 H         1 <0>         0.1015
     39 H6          0.5371   -0.1514    2.0246 H         1 <0>         0.0948
     40 H7         -1.4361   -2.9733    0.8382 H         1 <0>         0.1815
     41 H8         -7.6209   -0.5150    4.4689 H         1 <0>         0.4148
     42 H9         -7.5132   -2.0229    3.7358 H         1 <0>         0.4190
     43 H10        -2.6346    2.0814    3.6347 H         1 <0>         0.4250
     44 H11        -4.0722    2.4880    4.4032 H         1 <0>         0.4139
     45 H12         0.0253   -2.6282   -0.2785 H         1 <0>         0.1208
     46 H13         0.0217   -3.8493   -2.4096 H         1 <0>         0.1351
     47 H14        -0.0287   -0.1208   -4.5353 H         1 <0>         0.1282
     48 H15        -0.0359    1.0910   -2.3989 H         1 <0>         0.1244
     49 H16        -0.0300   -1.1459   -6.0530 H         1 <0>         0.3877
     50 H17        -0.1225   -1.0104   -8.4615 H         1 <0>         0.0543
     51 H18        -0.5691   -2.4677   -9.3808 H         1 <0>         0.0783
     52 H19        -2.6477   -2.6737   -8.0445 H         1 <0>         0.0522
     53 H20        -2.2011   -1.2164   -7.1252 H         1 <0>         0.0501
@<TRIPOS>BOND
     1    1    2 1
     2    1   35 1
     3    1   36 1
     4    1   37 1
     5    2    3 1
     6    2   16 1
     7    3    4 1
     8    3   38 1
     9    3   39 1
    10    4    9 ar
    11    4    5 ar
    12    5    6 ar
    13    5   40 1
    14    6    7 ar
    15    7   13 ar
    16    7    8 ar
    17    8    9 ar
    18    8   10 ar
    19   10   11 ar
    20   10   15 1
    21   11   12 ar
    22   12   13 ar
    23   12   14 1
    24   14   41 1
    25   14   42 1
    26   15   43 1
    27   15   44 1
    28   16   21 ar
    29   16   17 ar
    30   17   18 ar
    31   17   45 1
    32   18   19 ar
    33   18   46 1
    34   19   20 ar
    35   19   22 1
    36   20   21 ar
    37   20   47 1
    38   21   48 1
    39   22   23 2
    40   22   24 am
    41   24   25 1
    42   24   49 1
    43   25   26 1
    44   25   27 1
    45   25   32 1
    46   27   28 1
    47   27   50 1
    48   27   51 1
    49   28   29 1
    50   28   52 1
    51   28   53 1
    52   29   30 2
    53   29   31 1
    54   32   33 2
    55   32   34 1
@<TRIPOS>MOLECULE
ZINC06920406
   53    55     0     0     0
SMALL
USER_CHARGES

@<TRIPOS>ATOM
      1 C1         -0.0178    1.4608    0.0101 C.3       1 <0>         0.0941
      2 N1          0.0021   -0.0041    0.0020 N.pl3     1 <0>        -0.6227
      3 C2          0.0241   -0.7433    1.2666 C.3       1 <0>         0.1846
      4 C3         -1.3889   -1.0161    1.7137 C.ar      1 <0>         0.0297
      5 C4         -1.9892   -2.2351    1.3999 C.ar      1 <0>         0.1557
      6 N2         -3.2219   -2.4965    1.7797 N.ar      1 <0>        -0.4368
      7 C5         -3.9051   -1.5830    2.4739 C.ar      1 <0>         0.3719
      8 C6         -3.2902   -0.3458    2.7901 C.ar      1 <0>        -0.0918
      9 N3         -2.0425   -0.1038    2.4012 N.ar      1 <0>        -0.3728
     10 C7         -4.0706    0.6301    3.5527 C.ar      1 <0>         0.5431
     11 N4         -5.3055    0.2953    3.9004 N.ar      1 <0>        -0.6300
     12 C8         -5.8196   -0.8850    3.5693 C.ar      1 <0>         0.6360
     13 N5         -5.1609   -1.7987    2.8845 N.ar      1 <0>        -0.5986
     14 N6         -7.1130   -1.1692    3.9639 N.pl3     1 <0>        -0.8100
     15 N7         -3.5402    1.8539    3.8976 N.pl3     1 <0>        -0.7944
     16 C9          0.0000   -0.6928   -1.2059 C.ar      1 <0>         0.2189
     17 C10         0.0132   -2.0849   -1.2118 C.ar      1 <0>        -0.2116
     18 C11         0.0112   -2.7693   -2.4056 C.ar      1 <0>        -0.0155
     19 C12        -0.0041   -2.0653   -3.6133 C.ar      1 <0>        -0.1616
     20 C13        -0.0173   -0.6674   -3.6040 C.ar      1 <0>        -0.0356
     21 C14        -0.0210    0.0112   -2.4068 C.ar      1 <0>        -0.1983
     22 C15        -0.0058   -2.7960   -4.8948 C.2       1 <0>         0.5487
     23 O1          0.0061   -4.0119   -4.9015 O.2       1 <0>        -0.5585
     24 N8         -0.0205   -2.1158   -6.0583 N.am      1 <0>        -0.6789
     25 C16        -0.0222   -2.8414   -7.3310 C.3       1 <0>         0.0745
     26 H1          0.5768   -3.7469   -7.2338 H         1 <0>         0.0773
     27 C17         0.5711   -1.9524   -8.4257 C.3       1 <0>        -0.0822
     28 C18         2.0446   -1.6789   -8.1177 C.3       1 <0>        -0.1766
     29 C19         2.6291   -0.8032   -9.1959 C.2       1 <0>         0.4909
     30 O2          1.9317   -0.4323  -10.1247 O.co2     1 <0>        -0.6980
     31 O3          3.7993   -0.4657   -9.1396 O.co2     1 <0>        -0.7201
     32 C20        -1.4367   -3.2117   -7.6962 C.2       1 <0>         0.4981
     33 O4         -2.3634   -2.5041   -7.3399 O.co2     1 <0>        -0.6991
     34 O5         -1.6542   -4.2188   -8.3480 O.co2     1 <0>        -0.7022
     35 H2          1.0048    1.8381    0.0023 H         1 <0>         0.0507
     36 H3         -0.5450    1.8219   -0.8730 H         1 <0>         0.0690
     37 H4         -0.5280    1.8123    0.9069 H         1 <0>         0.0658
     38 H5          0.5496   -1.6879    1.1262 H         1 <0>         0.1014
     39 H6          0.5371   -0.1514    2.0246 H         1 <0>         0.0950
     40 H7         -1.4361   -2.9733    0.8382 H         1 <0>         0.1814
     41 H8         -7.6209   -0.5150    4.4689 H         1 <0>         0.4147
     42 H9         -7.5132   -2.0229    3.7358 H         1 <0>         0.4190
     43 H10        -2.6346    2.0814    3.6347 H         1 <0>         0.4250
     44 H11        -4.0722    2.4880    4.4032 H         1 <0>         0.4139
     45 H12         0.0253   -2.6282   -0.2785 H         1 <0>         0.1211
     46 H13         0.0217   -3.8493   -2.4096 H         1 <0>         0.1354
     47 H14        -0.0287   -0.1208   -4.5353 H         1 <0>         0.1292
     48 H15        -0.0359    1.0910   -2.3989 H         1 <0>         0.1249
     49 H16        -0.0300   -1.1459   -6.0530 H         1 <0>         0.3899
     50 H17         0.4888   -2.4573   -9.3882 H         1 <0>         0.0717
     51 H18         0.0264   -1.0090   -8.4626 H         1 <0>         0.0594
     52 H19         2.1270   -1.1740   -7.1552 H         1 <0>         0.0514
     53 H20         2.5893   -2.6223   -8.0808 H         1 <0>         0.0527
@<TRIPOS>BOND
     1    1    2 1
     2    1   35 1
     3    1   36 1
     4    1   37 1
     5    2    3 1
     6    2   16 1
     7    3    4 1
     8    3   38 1
     9    3   39 1
    10    4    9 ar
    11    4    5 ar
    12    5    6 ar
    13    5   40 1
    14    6    7 ar
    15    7   13 ar
    16    7    8 ar
    17    8    9 ar
    18    8   10 ar
    19   10   11 ar
    20   10   15 1
    21   11   12 ar
    22   12   13 ar
    23   12   14 1
    24   14   41 1
    25   14   42 1
    26   15   43 1
    27   15   44 1
    28   16   21 ar
    29   16   17 ar
    30   17   18 ar
    31   17   45 1
    32   18   19 ar
    33   18   46 1
    34   19   20 ar
    35   19   22 1
    36   20   21 ar
    37   20   47 1
    38   21   48 1
    39   22   23 2
    40   22   24 am
    41   24   25 1
    42   24   49 1
    43   25   26 1
    44   25   27 1
    45   25   32 1
    46   27   28 1
    47   27   50 1
    48   27   51 1
    49   28   29 1
    50   28   52 1
    51   28   53 1
    52   29   30 2
    53   29   31 1
    54   32   33 2
    55   32   34 1
@<TRIPOS>MOLECULE
ZINC00000640
   43    45     0     0     0
SMALL
USER_CHARGES
8-[(2,5-dimethoxyphenyl)methyl]-7-methyl-2,4,10-triazabicyclo[4.4.0]deca-2,4,6,8,10-pentaene-3,5-diamine
@<TRIPOS>ATOM
      1 C1          3.5065    8.2770   -0.3471 C.3       1 <0>        -0.1506
      2 C2          3.5106    7.2923   -1.4879 C.ar      1 <0>         0.0340
      3 C3          3.5305    5.9421   -1.2542 C.ar      1 <0>        -0.1724
      4 C4          3.5392    5.0549   -2.3234 C.ar      1 <0>         0.2009
      5 N1          3.5174    5.4726   -3.5696 N.ar      1 <0>        -0.4888
      6 C5          3.4976    6.7731   -3.8623 C.ar      1 <0>         0.4050
      7 C6          3.4936    7.7296   -2.8172 C.ar      1 <0>        -0.2731
      8 C7          3.4719    9.1049   -3.1575 C.ar      1 <0>         0.5206
      9 N2          3.4563    9.4333   -4.4415 N.ar      1 <0>        -0.6171
     10 C8          3.4607    8.5036   -5.3924 C.ar      1 <0>         0.6192
     11 N3          3.4806    7.2104   -5.1296 N.ar      1 <0>        -0.5903
     12 N4          3.4432    8.9092   -6.7132 N.pl3     1 <0>        -0.8137
     13 N5          3.4667   10.0751   -2.1796 N.pl3     1 <0>        -0.8468
     14 C9          3.5493    5.4207    0.1596 C.3       1 <0>        -0.0189
     15 C10         3.7139    3.9228    0.1405 C.ar      1 <0>        -0.0822
     16 C11         2.6074    3.1047    0.2626 C.ar      1 <0>        -0.1082
     17 C12         2.7589    1.7263    0.2455 C.ar      1 <0>         0.0958
     18 C13         4.0221    1.1690    0.1115 C.ar      1 <0>        -0.1673
     19 C14         5.1277    1.9869   -0.0164 C.ar      1 <0>        -0.1656
     20 C15         4.9761    3.3657    0.0008 C.ar      1 <0>         0.0984
     21 O1          6.0652    4.1710   -0.1199 O.3       1 <0>        -0.3104
     22 C16         7.3342    3.5292   -0.2604 C.3       1 <0>         0.0264
     23 O2          1.6698    0.9210    0.3657 O.3       1 <0>        -0.3164
     24 C17         1.8996   -0.4891    0.3399 C.3       1 <0>         0.0270
     25 H1          4.5237    8.6214   -0.1608 H         1 <0>         0.0854
     26 H2          2.8761    9.1282   -0.6042 H         1 <0>         0.0984
     27 H3          3.1167    7.7937    0.5487 H         1 <0>         0.0825
     28 H4          3.5599    3.9935   -2.1253 H         1 <0>         0.1602
     29 H5          3.4458    8.2486   -7.4235 H         1 <0>         0.4176
     30 H6          3.4285    9.8546   -6.9301 H         1 <0>         0.4150
     31 H7          4.0336    9.9793   -1.3984 H         1 <0>         0.4180
     32 H8          2.8962   10.8541   -2.2722 H         1 <0>         0.4095
     33 H9          2.6122    5.6769    0.6538 H         1 <0>         0.0894
     34 H10         4.3809    5.8707    0.7018 H         1 <0>         0.0937
     35 H11         1.6244    3.5386    0.3718 H         1 <0>         0.1400
     36 H12         4.1407    0.0956    0.1029 H         1 <0>         0.1317
     37 H13         6.1107    1.5530   -0.1252 H         1 <0>         0.1325
     38 H14         7.3295    2.9068   -1.1552 H         1 <0>         0.0552
     39 H15         8.1156    4.2842   -0.3470 H         1 <0>         0.0995
     40 H16         7.5254    2.9070    0.6139 H         1 <0>         0.0549
     41 H17         0.9500   -1.0140    0.4447 H         1 <0>         0.1009
     42 H18         2.3642   -0.7643   -0.6070 H         1 <0>         0.0555
     43 H19         2.5598   -0.7648    1.1622 H         1 <0>         0.0547
@<TRIPOS>BOND
     1    1    2 1
     2    1   25 1
     3    1   26 1
     4    1   27 1
     5    2    7 ar
     6    2    3 ar
     7    3    4 ar
     8    3   14 1
     9    4    5 ar
    10    4   28 1
    11    5    6 ar
    12    6   11 ar
    13    6    7 ar
    14    7    8 ar
    15    8    9 ar
    16    8   13 1
    17    9   10 ar
    18   10   11 ar
    19   10   12 1
    20   12   29 1
    21   12   30 1
    22   13   31 1
    23   13   32 1
    24   14   15 1
    25   14   33 1
    26   14   34 1
    27   15   20 ar
    28   15   16 ar
    29   16   17 ar
    30   16   35 1
    31   17   18 ar
    32   17   23 1
    33   18   19 ar
    34   18   36 1
    35   19   20 ar
    36   19   37 1
    37   20   21 1
    38   21   22 1
    39   22   38 1
    40   22   39 1
    41   22   40 1
    42   23   24 1
    43   24   41 1
    44   24   42 1
    45   24   43 1
@<TRIPOS>MOLECULE
ZINC00000640
   44    46     0     0     0
SMALL
USER_CHARGES
6-[(2,5-dimethoxyphenyl)methyl]-5-methyl-pyrido[3,2-e]pyrimidine-2,4-diamine
@<TRIPOS>ATOM
      1 C1          3.5026    8.2770   -0.3471 C.3       1 <0>        -0.1623
      2 C2          3.5068    7.2922   -1.4879 C.ar      1 <0>         0.0415
      3 C3          3.5339    5.9421   -1.2542 C.ar      1 <0>        -0.1364
      4 C4          3.5435    5.0550   -2.3234 C.ar      1 <0>         0.2418
      5 N1          3.5212    5.4727   -3.5696 N.ar      1 <0>        -0.4732
      6 C5          3.4882    6.7729   -3.8622 C.ar      1 <0>         0.3969
      7 C6          3.4834    7.7294   -2.8171 C.ar      1 <0>        -0.2387
      8 C7          3.4615    9.1047   -3.1576 C.ar      1 <0>         0.5725
      9 N2          3.4329    9.4328   -4.4414 N.ar      1 <0>        -0.5726
     10 C8          3.4322    8.5030   -5.3922 C.ar      1 <0>         0.6045
     11 N3          3.4026    8.9083   -6.7128 N.pl3     1 <0>        -0.7947
     12 N4          3.4624   10.0751   -2.1798 N.pl3     1 <0>        -0.8206
     13 C9          3.5533    5.4208    0.1596 C.3       1 <0>        -0.0266
     14 C10         3.7195    3.9230    0.1404 C.ar      1 <0>        -0.1017
     15 C11         2.6139    3.1038    0.2626 C.ar      1 <0>        -0.1085
     16 C12         2.7669    1.7255    0.2455 C.ar      1 <0>         0.1008
     17 C13         4.0306    1.1696    0.1114 C.ar      1 <0>        -0.1595
     18 C14         5.1354    1.9886   -0.0165 C.ar      1 <0>        -0.1615
     19 C15         4.9823    3.3673    0.0007 C.ar      1 <0>         0.0962
     20 O1          6.0706    4.1737   -0.1201 O.3       1 <0>        -0.3165
     21 C16         7.3402    3.5333   -0.2606 C.3       1 <0>         0.0247
     22 O2          1.6786    0.9191    0.3657 O.3       1 <0>        -0.3147
     23 C17         1.9099   -0.4908    0.3399 C.3       1 <0>         0.0249
     24 H1          4.5190    8.6255   -0.1643 H         1 <0>         0.1026
     25 H2          2.8678    9.1256   -0.6021 H         1 <0>         0.0980
     26 H3          3.1178    7.7921    0.5500 H         1 <0>         0.1045
     27 H4          3.5700    3.9937   -2.1254 H         1 <0>         0.1833
     28 H5          3.4016    8.2476   -7.4231 H         1 <0>         0.4471
     29 H6          3.3829    9.8536   -6.9297 H         1 <0>         0.4240
     30 H7          4.0364    9.9808   -1.4036 H         1 <0>         0.4469
     31 H8          2.8892   10.8526   -2.2675 H         1 <0>         0.4310
     32 H9          2.6160    5.6760    0.6538 H         1 <0>         0.1032
     33 H10         4.3845    5.8716    0.7017 H         1 <0>         0.1063
     34 H11         1.6305    3.5366    0.3719 H         1 <0>         0.1418
     35 H12         4.1504    0.0963    0.1028 H         1 <0>         0.1363
     36 H13         6.1188    1.5558   -0.1254 H         1 <0>         0.1363
     37 H14         7.3361    2.9109   -1.1555 H         1 <0>         0.0572
     38 H15         8.1208    4.2891   -0.3473 H         1 <0>         0.1016
     39 H16         7.5321    2.9113    0.6136 H         1 <0>         0.0593
     40 H17         0.9609   -1.0167    0.4447 H         1 <0>         0.1049
     41 H18         2.3748   -0.7655   -0.6070 H         1 <0>         0.0575
     42 H19         2.5705   -0.7658    1.1622 H         1 <0>         0.0577
     43 N5          3.4593    7.1626   -5.1838 N.ar      1 <0>        -0.4652
     44 H20         3.4117   10.3956   -4.7111 H         1 <0>         0.4493
@<TRIPOS>BOND
     1    1    2 1
     2    1   24 1
     3    1   25 1
     4    1   26 1
     5    2    7 ar
     6    2    3 ar
     7    3   13 1
     8    3    4 ar
     9    4   27 1
    10    4    5 ar
    11    5    6 ar
    12    6    7 ar
    13    6   43 ar
    14    7    8 ar
    15    8   12 1
    16    8    9 ar
    17    9   10 ar
    18    9   44 1
    19   10   11 1
    20   10   43 ar
    21   11   28 1
    22   11   29 1
    23   12   30 1
    24   12   31 1
    25   13   14 1
    26   13   32 1
    27   13   33 1
    28   14   19 ar
    29   14   15 ar
    30   15   16 ar
    31   15   34 1
    32   16   17 ar
    33   16   22 1
    34   17   18 ar
    35   17   35 1
    36   18   19 ar
    37   18   36 1
    38   19   20 1
    39   20   21 1
    40   21   37 1
    41   21   38 1
    42   21   39 1
    43   22   23 1
    44   23   40 1
    45   23   41 1
    46   23   42 1
@<TRIPOS>MOLECULE
ZINC00000640
   44    46     0     0     0
SMALL
USER_CHARGES
8-[(2,5-dimethoxyphenyl)methyl]-7-methyl-2,4,10-triazabicyclo[4.4.0]deca-2,4,6,8,10-pentaene-3,5-diamine
@<TRIPOS>ATOM
      1 C1          3.5065    8.2770   -0.3471 C.3       1 <0>        -0.1639
      2 C2          3.5106    7.2923   -1.4879 C.ar      1 <0>         0.0541
      3 C3          3.5305    5.9421   -1.2542 C.ar      1 <0>        -0.1302
      4 C4          3.5392    5.0549   -2.3234 C.ar      1 <0>         0.2243
      5 N1          3.5174    5.4726   -3.5696 N.ar      1 <0>        -0.4980
      6 C5          3.4976    6.7731   -3.8623 C.ar      1 <0>         0.3907
      7 C6          3.4936    7.7296   -2.8172 C.ar      1 <0>        -0.2267
      8 C7          3.4719    9.1049   -3.1575 C.ar      1 <0>         0.5800
      9 N2          3.4563    9.4333   -4.4415 N.ar      1 <0>        -0.5730
     10 C8          3.4607    8.5036   -5.3924 C.ar      1 <0>         0.6920
     11 N3          3.4432    8.9092   -6.7132 N.pl3     1 <0>        -0.7812
     12 N4          3.4667   10.0751   -2.1796 N.pl3     1 <0>        -0.8037
     13 C9          3.5493    5.4207    0.1596 C.3       1 <0>        -0.0285
     14 C10         3.7139    3.9228    0.1405 C.ar      1 <0>        -0.1017
     15 C11         2.6074    3.1047    0.2626 C.ar      1 <0>        -0.1086
     16 C12         2.7589    1.7263    0.2455 C.ar      1 <0>         0.1007
     17 C13         4.0221    1.1690    0.1115 C.ar      1 <0>        -0.1597
     18 C14         5.1277    1.9869   -0.0164 C.ar      1 <0>        -0.1619
     19 C15         4.9761    3.3657    0.0008 C.ar      1 <0>         0.0960
     20 O1          6.0652    4.1710   -0.1199 O.3       1 <0>        -0.3162
     21 C16         7.3342    3.5292   -0.2604 C.3       1 <0>         0.0247
     22 O2          1.6698    0.9210    0.3657 O.3       1 <0>        -0.3147
     23 C17         1.8996   -0.4891    0.3399 C.3       1 <0>         0.0249
     24 H1          4.5237    8.6214   -0.1608 H         1 <0>         0.1055
     25 H2          2.8761    9.1282   -0.6042 H         1 <0>         0.1044
     26 H3          3.1167    7.7937    0.5487 H         1 <0>         0.1039
     27 H4          3.5599    3.9935   -2.1253 H         1 <0>         0.1849
     28 H5          3.4458    8.2486   -7.4235 H         1 <0>         0.4324
     29 H6          3.4285    9.8546   -6.9301 H         1 <0>         0.4450
     30 H7          4.0336    9.9793   -1.3984 H         1 <0>         0.4363
     31 H8          2.8962   10.8541   -2.2722 H         1 <0>         0.4301
     32 H9          2.6122    5.6769    0.6538 H         1 <0>         0.1050
     33 H10         4.3809    5.8707    0.7018 H         1 <0>         0.1083
     34 H11         1.6244    3.5386    0.3718 H         1 <0>         0.1421
     35 H12         4.1407    0.0956    0.1029 H         1 <0>         0.1364
     36 H13         6.1107    1.5530   -0.1252 H         1 <0>         0.1362
     37 H14         7.3295    2.9068   -1.1552 H         1 <0>         0.0562
     38 H15         8.1156    4.2842   -0.3470 H         1 <0>         0.1022
     39 H16         7.5254    2.9070    0.6139 H         1 <0>         0.0598
     40 H17         0.9500   -1.0140    0.4447 H         1 <0>         0.1052
     41 H18         2.3642   -0.7643   -0.6070 H         1 <0>         0.0570
     42 H19         2.5598   -0.7648    1.1622 H         1 <0>         0.0581
     43 N5          3.4808    7.1631   -5.1841 N.ar      1 <0>        -0.5882
     44 H20         3.4825    6.5360   -5.9630 H         1 <0>         0.4597
@<TRIPOS>BOND
     1    1    2 1
     2    1   24 1
     3    1   25 1
     4    1   26 1
     5    2    7 ar
     6    2    3 ar
     7    3    4 ar
     8    3   13 1
     9    4    5 ar
    10    4   27 1
    11    5    6 ar
    12    6    7 ar
    13    6   43 ar
    14    7    8 ar
    15    8    9 ar
    16    8   12 1
    17    9   10 ar
    18   10   11 1
    19   10   43 ar
    20   11   28 1
    21   11   29 1
    22   12   30 1
    23   12   31 1
    24   13   14 1
    25   13   32 1
    26   13   33 1
    27   14   19 ar
    28   14   15 ar
    29   15   16 ar
    30   15   34 1
    31   16   17 ar
    32   16   22 1
    33   17   18 ar
    34   17   35 1
    35   18   19 ar
    36   18   36 1
    37   19   20 1
    38   20   21 1
    39   21   37 1
    40   21   38 1
    41   21   39 1
    42   22   23 1
    43   23   40 1
    44   23   41 1
    45   23   42 1
    46   43   44 1
