@<TRIPOS>MOLECULE
ZINC00598852
   51    53     0     0     0
SMALL
USER_CHARGES

@<TRIPOS>ATOM
      1 C1          0.5429    1.5070    0.0182 C.3       1 <0>        -0.1671
      2 C2          0.5454    0.0000    0.0096 C.ar      1 <0>         0.0307
      3 C3          0.6980   -0.6802   -1.1634 C.ar      1 <0>        -0.1172
      4 C4          0.7027   -2.0714   -1.1869 C.ar      1 <0>         0.0047
      5 C5          0.5547   -2.7939   -0.0399 C.ar      1 <0>        -0.1547
      6 C6          0.3958   -2.1272    1.1822 C.ar      1 <0>         0.2100
      7 C7          0.3970   -0.7113    1.2046 C.ar      1 <0>        -0.1916
      8 C8          0.2398   -0.0587    2.4533 C.ar      1 <0>         0.5718
      9 N1          0.1047   -0.8049    3.5395 N.ar      1 <0>        -0.5815
     10 C9          0.1146   -2.1336    3.4740 C.ar      1 <0>         0.6862
     11 N2          0.2462   -2.7915    2.3381 N.ar      1 <0>        -0.5785
     12 N3         -0.0306   -2.8556    4.6447 N.pl3     1 <0>        -0.7851
     13 N4          0.2283    1.3172    2.5352 N.pl3     1 <0>        -0.8075
     14 C10         0.8631    0.0856   -2.4507 C.3       1 <0>         0.1601
     15 N5          2.2497    0.5425   -2.5728 N.pl3     1 <0>        -0.7426
     16 C11         2.6471    1.2801   -3.6932 C.ar      1 <0>         0.2787
     17 C12         1.7259    1.5838   -4.6864 C.ar      1 <0>        -0.3075
     18 C13         2.1190    2.3146   -5.7968 C.ar      1 <0>         0.1942
     19 C14         3.4355    2.7433   -5.9156 C.ar      1 <0>        -0.0188
     20 C15         4.3571    2.4389   -4.9210 C.ar      1 <0>         0.1949
     21 C16         3.9612    1.7128   -3.8085 C.ar      1 <0>        -0.3034
     22 O1          5.6456    2.8580   -5.0364 O.3       1 <0>        -0.2978
     23 C17         6.5387    2.5092   -3.9768 C.3       1 <0>         0.0256
     24 O2          3.8225    3.4609   -7.0064 O.3       1 <0>        -0.3094
     25 C18         3.7098    4.8829   -6.9209 C.3       1 <0>         0.0337
     26 O3          1.2165    2.6116   -6.7698 O.3       1 <0>        -0.2977
     27 C19        -0.1189    2.1387   -6.5823 C.3       1 <0>         0.0256
     28 H1          1.5373    1.8705    0.2774 H         1 <0>         0.0979
     29 H2          0.2676    1.8755   -0.9700 H         1 <0>         0.0999
     30 H3         -0.1779    1.8650    0.7533 H         1 <0>         0.1021
     31 H4          0.8251   -2.5869   -2.1281 H         1 <0>         0.1583
     32 H5          0.5597   -3.8734   -0.0733 H         1 <0>         0.1603
     33 H6         -0.1367   -2.3923    5.4903 H         1 <0>         0.4460
     34 H7         -0.0263   -3.8253    4.6202 H         1 <0>         0.4316
     35 H8         -0.4142    1.7635    3.1087 H         1 <0>         0.4288
     36 H9          0.8626    1.8391    2.0193 H         1 <0>         0.4358
     37 H10         0.6185   -0.5620   -3.2927 H         1 <0>         0.0808
     38 H11         0.1955    0.9472   -2.4491 H         1 <0>         0.0823
     39 H12         2.8922    0.3335   -1.8768 H         1 <0>         0.4012
     40 H13         0.7028    1.2503   -4.5941 H         1 <0>         0.1330
     41 H14         4.6763    1.4800   -3.0333 H         1 <0>         0.1322
     42 H15         7.5314    2.9038   -4.1935 H         1 <0>         0.1049
     43 H16         6.1753    2.9338   -3.0409 H         1 <0>         0.0557
     44 H17         6.5905    1.4241   -3.8876 H         1 <0>         0.0576
     45 H18         4.3243    5.2472   -6.0976 H         1 <0>         0.0423
     46 H19         4.0502    5.3312   -7.8543 H         1 <0>         0.0924
     47 H20         2.6690    5.1550   -6.7455 H         1 <0>         0.0423
     48 H21        -0.5282    2.5607   -5.6645 H         1 <0>         0.0553
     49 H22        -0.7344    2.4437   -7.4286 H         1 <0>         0.1049
     50 H23        -0.1125    1.0511   -6.5109 H         1 <0>         0.0571
     51 H24         0.2468   -3.7615    2.3402 H         1 <0>         0.4417
@<TRIPOS>BOND
     1    1    2 1
     2    1   28 1
     3    1   29 1
     4    1   30 1
     5    2    7 ar
     6    2    3 ar
     7    3    4 ar
     8    3   14 1
     9    4    5 ar
    10    4   31 1
    11    5    6 ar
    12    5   32 1
    13    6   11 ar
    14    6    7 ar
    15    7    8 ar
    16    8    9 ar
    17    8   13 1
    18    9   10 ar
    19   10   11 ar
    20   10   12 1
    21   11   51 1
    22   12   33 1
    23   12   34 1
    24   13   35 1
    25   13   36 1
    26   14   15 1
    27   14   37 1
    28   14   38 1
    29   15   16 1
    30   15   39 1
    31   16   21 ar
    32   16   17 ar
    33   17   18 ar
    34   17   40 1
    35   18   19 ar
    36   18   26 1
    37   19   20 ar
    38   19   24 1
    39   20   21 ar
    40   20   22 1
    41   21   41 1
    42   22   23 1
    43   23   42 1
    44   23   43 1
    45   23   44 1
    46   24   25 1
    47   25   45 1
    48   25   46 1
    49   25   47 1
    50   26   27 1
    51   27   48 1
    52   27   49 1
    53   27   50 1
@<TRIPOS>MOLECULE
ZINC18187616
   17    18     0     0     0
SMALL
USER_CHARGES

@<TRIPOS>ATOM
      1 C1         -0.0177    1.4577    0.0101 C.2       1 <0>        -0.1128
      2 C2          1.2635    1.8612   -0.0000 C.2       1 <0>        -0.0034
      3 N1          2.0916    0.7671   -0.0138 N.pl3     1 <0>        -0.5493
      4 H1          3.0609    0.8037   -0.0224 H         1 <0>         0.4206
      5 C3          1.3527   -0.3796   -0.0129 C.2       1 <0>         0.3463
      6 C4          0.0021   -0.0041    0.0020 C.2       1 <0>        -0.3228
      7 C5         -0.9899   -1.0091    0.0054 C.2       1 <0>         0.5837
      8 O1         -2.1740   -0.7197    0.0178 O.2       1 <0>        -0.5309
      9 N2         -0.5912   -2.3013   -0.0060 N.am      1 <0>        -0.6627
     10 H2         -1.2521   -3.0114   -0.0040 H         1 <0>         0.4148
     11 C6          0.7370   -2.6088   -0.0207 C.2       1 <0>         0.6555
     12 N3          1.6686   -1.6829   -0.0236 N.2       1 <0>        -0.5931
     13 N4          1.1129   -3.9287   -0.0320 N.pl3     1 <0>        -0.8224
     14 H3         -0.8928    2.0905    0.0258 H         1 <0>         0.1515
     15 H4          1.5919    2.8901    0.0018 H         1 <0>         0.1805
     16 H5          0.4378   -4.6252   -0.0295 H         1 <0>         0.4162
     17 H6          2.0536   -4.1650   -0.0426 H         1 <0>         0.4282
@<TRIPOS>BOND
     1    1    6 1
     2    1    2 2
     3    1   14 1
     4    2    3 1
     5    2   15 1
     6    3    4 1
     7    3    5 1
     8    5   12 1
     9    5    6 2
    10    6    7 1
    11    7    8 2
    12    7    9 am
    13    9   10 1
    14    9   11 1
    15   11   12 2
    16   11   13 1
    17   13   16 1
    18   13   17 1
@<TRIPOS>MOLECULE
ZINC18187616
   17    18     0     0     0
SMALL
USER_CHARGES

@<TRIPOS>ATOM
      1 C1         -0.0184    1.5029    0.0103 C.2       1 <0>        -0.0867
      2 C2          1.2645    1.8693    0.0000 C.2       1 <0>        -0.0172
      3 N1          2.1042    0.8034   -0.0532 N.pl3     1 <0>        -0.4926
      4 C3          1.4869   -0.3017   -0.2249 C.cat     1 <0>         0.4743
      5 C4          0.0021   -0.0041    0.0020 C.3       1 <0>        -0.1646
      6 H1         -0.3603   -0.4197    0.9423 H         1 <0>         0.1936
      7 C5         -0.7012   -0.5984   -1.1916 C.2       1 <0>         0.5320
      8 O1         -1.7711   -0.1558   -1.5613 O.2       1 <0>        -0.5230
      9 N2         -0.1311   -1.6161   -1.8350 N.2       1 <0>        -0.7073
     10 C6          1.0538   -2.1270   -1.5624 C.2       1 <0>         0.5746
     11 N3          1.8639   -1.5767   -0.5835 N.pl3     1 <0>        -0.6223
     12 N4          1.4885   -3.2155   -2.2562 N.2       1 <0>        -0.7826
     13 H2         -0.8849    2.1473    0.0259 H         1 <0>         0.1955
     14 H3          1.5972    2.8964    0.0306 H         1 <0>         0.2046
     15 H4          2.6194   -2.0414   -0.1910 H         1 <0>         0.4348
     16 H5          0.9280   -3.6079   -2.9438 H         1 <0>         0.3519
     17 H6          3.0681    0.8736    0.0298 H         1 <0>         0.4351
@<TRIPOS>BOND
     1    1    5 1
     2    1    2 2
     3    1   13 1
     4    2    3 1
     5    2   14 1
     6    3    4 2
     7    3   17 1
     8    4   11 1
     9    4    5 1
    10    5    6 1
    11    5    7 1
    12    7    8 2
    13    7    9 1
    14    9   10 2
    15   10   11 1
    16   10   12 1
    17   11   15 1
    18   12   16 1
@<TRIPOS>MOLECULE
ZINC18187616
   17    18     0     0     0
SMALL
USER_CHARGES

@<TRIPOS>ATOM
      1 C1         -0.0184    1.5029    0.0103 C.2       1 <0>        -0.0868
      2 C2          1.2645    1.8693    0.0000 C.2       1 <0>        -0.0171
      3 N1          2.1050    0.8030    0.0258 N.pl3     1 <0>        -0.4926
      4 C3          1.4909   -0.3040    0.1973 C.cat     1 <0>         0.4743
      5 C4          0.0021   -0.0041    0.0020 C.3       1 <0>        -0.1646
      6 H1         -0.3782   -0.4096   -0.9356 H         1 <0>         0.1936
      7 C5         -0.6784   -0.6112    1.2024 C.2       1 <0>         0.5320
      8 O1         -1.7413   -0.1733    1.5967 O.2       1 <0>        -0.5230
      9 N2         -0.0962   -1.6357    1.8238 N.2       1 <0>        -0.7073
     10 C6          1.0833   -2.1435    1.5231 C.2       1 <0>         0.5745
     11 N3          1.8746   -1.5827    0.5350 N.pl3     1 <0>        -0.6222
     12 N4          1.5310   -3.2394    2.1969 N.2       1 <0>        -0.7827
     13 H2         -0.8849    2.1473    0.0259 H         1 <0>         0.1955
     14 H3          1.5966    2.8967   -0.0258 H         1 <0>         0.2046
     15 H4          2.6221   -2.0434    0.1227 H         1 <0>         0.4348
     16 H5          0.9837   -3.6393    2.8908 H         1 <0>         0.3519
     17 H6          3.0671    0.8741   -0.0754 H         1 <0>         0.4351
@<TRIPOS>BOND
     1    1    5 1
     2    1    2 2
     3    1   13 1
     4    2    3 1
     5    2   14 1
     6    3    4 2
     7    3   17 1
     8    4   11 1
     9    4    5 1
    10    5    6 1
    11    5    7 1
    12    7    8 2
    13    7    9 1
    14    9   10 2
    15   10   11 1
    16   10   12 1
    17   11   15 1
    18   12   16 1
@<TRIPOS>MOLECULE
ZINC18187616
   17    18     0     0     0
SMALL
USER_CHARGES

@<TRIPOS>ATOM
      1 C1         -0.0184    1.5054    0.0103 C.3       1 <0>        -0.0959
      2 C2          1.4540    1.8671   -0.0018 C.2       1 <0>         0.1940
      3 N1          2.1224    0.7667   -0.0141 N.2       1 <0>        -0.4814
      4 C3          1.3477   -0.3543   -0.0127 C.2       1 <0>         0.3807
      5 C4          0.0021   -0.0041    0.0020 C.2       1 <0>        -0.3786
      6 C5         -0.9772   -0.9935    0.0057 C.2       1 <0>         0.5742
      7 O1         -2.1617   -0.6996    0.0181 O.2       1 <0>        -0.5356
      8 N2         -0.5854   -2.2880   -0.0054 N.am      1 <0>        -0.6536
      9 H1         -1.2474   -2.9970   -0.0035 H         1 <0>         0.4176
     10 C6          0.7412   -2.5922   -0.0197 C.2       1 <0>         0.6548
     11 N3          1.6691   -1.6613   -0.0232 N.2       1 <0>        -0.5724
     12 N4          1.1207   -3.9082   -0.0308 N.pl3     1 <0>        -0.8156
     13 H2         -0.4997    1.8793    0.9140 H         1 <0>         0.1263
     14 H3         -0.5168    1.8889   -0.8799 H         1 <0>         0.1263
     15 H4          1.8666    2.8651   -0.0007 H         1 <0>         0.2096
     16 H5          0.4480   -4.6070   -0.0284 H         1 <0>         0.4179
     17 H6          2.0622   -4.1414   -0.0410 H         1 <0>         0.4317
@<TRIPOS>BOND
     1    1    5 1
     2    1    2 1
     3    1   13 1
     4    1   14 1
     5    2    3 2
     6    2   15 1
     7    3    4 1
     8    4   11 1
     9    4    5 2
    10    5    6 1
    11    6    7 2
    12    6    8 am
    13    8    9 1
    14    8   10 1
    15   10   11 2
    16   10   12 1
    17   12   16 1
    18   12   17 1
@<TRIPOS>MOLECULE
ZINC06627681
   39    40     0     0     0
SMALL
USER_CHARGES

@<TRIPOS>ATOM
      1 C1         -0.0173    1.4248    0.0099 C.3       1 <0>         0.0239
      2 O1          0.0021   -0.0041    0.0020 O.3       1 <0>        -0.3021
      3 C2         -1.2011   -0.6379    0.0101 C.ar      1 <0>         0.1549
      4 C3         -2.3748    0.1005    0.0195 C.ar      1 <0>        -0.2271
      5 C4         -3.5982   -0.5428    0.0277 C.ar      1 <0>        -0.0020
      6 C5         -3.6572   -1.9238    0.0266 C.ar      1 <0>        -0.2327
      7 C6         -2.4882   -2.6696    0.0172 C.ar      1 <0>         0.1543
      8 C7         -1.2561   -2.0266    0.0032 C.ar      1 <0>         0.0227
      9 O2         -0.1065   -2.7549   -0.0117 O.3       1 <0>        -0.3126
     10 C8          0.4536   -3.1089    1.2544 C.3       1 <0>         0.0351
     11 O3         -2.5472   -4.0282    0.0166 O.3       1 <0>        -0.3013
     12 C9         -3.8474   -4.6211    0.0259 C.3       1 <0>         0.0236
     13 C10        -4.8712    0.2637    0.0384 C.3       1 <0>        -0.0163
     14 C11        -5.3062    0.5346   -1.3789 C.ar      1 <0>        -0.3083
     15 C12        -4.9545    1.7101   -2.0132 C.ar      1 <0>         0.2250
     16 N1         -5.3522    1.9181   -3.2597 N.ar      1 <0>        -0.6043
     17 C13        -6.0798    1.0161   -3.9019 C.ar      1 <0>         0.6032
     18 N2         -6.4382   -0.1231   -3.3293 N.ar      1 <0>        -0.6263
     19 C14        -6.0690   -0.3996   -2.0826 C.ar      1 <0>         0.4894
     20 N3         -6.4404   -1.5946   -1.4883 N.pl3     1 <0>        -0.8360
     21 N4         -6.4756    1.2708   -5.2034 N.pl3     1 <0>        -0.8207
     22 H1          1.0053    1.8021    0.0021 H         1 <0>         0.1035
     23 H2         -0.5445    1.7859   -0.8732 H         1 <0>         0.0589
     24 H3         -0.5275    1.7763    0.9067 H         1 <0>         0.0581
     25 H4         -2.3329    1.1797    0.0207 H         1 <0>         0.1363
     26 H5         -4.6151   -2.4227    0.0334 H         1 <0>         0.1280
     27 H6         -0.2648   -3.7070    1.8151 H         1 <0>         0.0438
     28 H7          1.3650   -3.6864    1.0998 H         1 <0>         0.0924
     29 H8          0.6878   -2.2033    1.8141 H         1 <0>         0.0441
     30 H9         -4.3845   -4.3050    0.9202 H         1 <0>         0.0570
     31 H10        -4.3978   -4.3036   -0.8597 H         1 <0>         0.0568
     32 H11        -3.7517   -5.7069    0.0243 H         1 <0>         0.1041
     33 H12        -5.6506   -0.2944    0.5572 H         1 <0>         0.0773
     34 H13        -4.6980    1.2092    0.5523 H         1 <0>         0.0904
     35 H14        -4.3619    2.4519   -1.4984 H         1 <0>         0.1633
     36 H15        -6.1706   -1.7873   -0.5767 H         1 <0>         0.4079
     37 H16        -6.2200    2.1014   -5.6342 H         1 <0>         0.4156
     38 H17        -7.0085    0.6187   -5.6847 H         1 <0>         0.4133
     39 H18        -6.9704   -2.2385   -1.9837 H         1 <0>         0.4067
@<TRIPOS>BOND
     1    1    2 1
     2    1   22 1
     3    1   23 1
     4    1   24 1
     5    2    3 1
     6    3    8 ar
     7    3    4 ar
     8    4    5 ar
     9    4   25 1
    10    5    6 ar
    11    5   13 1
    12    6    7 ar
    13    6   26 1
    14    7    8 ar
    15    7   11 1
    16    8    9 1
    17    9   10 1
    18   10   27 1
    19   10   28 1
    20   10   29 1
    21   11   12 1
    22   12   30 1
    23   12   31 1
    24   12   32 1
    25   13   14 1
    26   13   33 1
    27   13   34 1
    28   14   19 ar
    29   14   15 ar
    30   15   16 ar
    31   15   35 1
    32   16   17 ar
    33   17   18 ar
    34   17   21 1
    35   18   19 ar
    36   19   20 1
    37   20   36 1
    38   20   39 1
    39   21   37 1
    40   21   38 1
@<TRIPOS>MOLECULE
ZINC06627681
   40    41     0     0     0
SMALL
USER_CHARGES

@<TRIPOS>ATOM
      1 C1         -0.0173    1.4248    0.0099 C.3       1 <0>         0.0236
      2 O1          0.0021   -0.0041    0.0020 O.3       1 <0>        -0.2966
      3 C2          0.6062   -0.6075   -1.0565 C.ar      1 <0>         0.1590
      4 C3          1.1731    0.1601   -2.0626 C.ar      1 <0>        -0.2276
      5 C4          1.7874   -0.4523   -3.1388 C.ar      1 <0>        -0.0278
      6 C5          1.8393   -1.8314   -3.2169 C.ar      1 <0>        -0.2351
      7 C6          1.2749   -2.6062   -2.2150 C.ar      1 <0>         0.1601
      8 C7          0.6613   -1.9944   -1.1284 C.ar      1 <0>         0.0371
      9 O2          0.1111   -2.7512   -0.1402 O.3       1 <0>        -0.3127
     10 C8         -1.2598   -3.1236   -0.2953 C.3       1 <0>         0.0346
     11 O3          1.3261   -3.9630   -2.2930 O.3       1 <0>        -0.2955
     12 C9          1.9770   -4.5231   -3.4352 C.3       1 <0>         0.0221
     13 C10         2.4017    0.3858   -4.2302 C.3       1 <0>        -0.0295
     14 C11         3.8422    0.6725   -3.8928 C.ar      1 <0>        -0.2227
     15 C12         4.1975    1.8410   -3.2477 C.ar      1 <0>         0.2105
     16 N1          5.4726    2.0633   -2.9647 N.ar      1 <0>        -0.5697
     17 C13         6.4065    1.1822   -3.2920 C.ar      1 <0>         0.6625
     18 N2          6.1075    0.0504   -3.9114 N.ar      1 <0>        -0.5720
     19 C14         4.8475   -0.2398   -4.2201 C.ar      1 <0>         0.5372
     20 N3          4.5370   -1.4272   -4.8628 N.pl3     1 <0>        -0.7792
     21 N4          7.7275    1.4516   -2.9793 N.pl3     1 <0>        -0.7906
     22 H1          1.0053    1.8021    0.0021 H         1 <0>         0.0555
     23 H2         -0.5445    1.7859   -0.8732 H         1 <0>         0.0607
     24 H3         -0.5275    1.7763    0.9067 H         1 <0>         0.1087
     25 H4          1.1343    1.2379   -2.0054 H         1 <0>         0.1378
     26 H5          2.3199   -2.3061   -4.0596 H         1 <0>         0.1268
     27 H6         -1.3771   -3.7054   -1.2095 H         1 <0>         0.0473
     28 H7         -1.5724   -3.7233    0.5596 H         1 <0>         0.0987
     29 H8         -1.8756   -2.2262   -0.3542 H         1 <0>         0.0474
     30 H9          1.4660   -4.1967   -4.3410 H         1 <0>         0.0599
     31 H10         3.0141   -4.1888   -3.4626 H         1 <0>         0.0544
     32 H11         1.9474   -5.6109   -3.3732 H         1 <0>         0.1103
     33 H12         2.3506   -0.1544   -5.1756 H         1 <0>         0.0994
     34 H13         1.8554    1.3249   -4.3183 H         1 <0>         0.1128
     35 H14         3.4440    2.5659   -2.9772 H         1 <0>         0.2147
     36 H15         3.6157   -1.6298   -5.0887 H         1 <0>         0.4275
     37 H16         7.9600    2.2771   -2.5260 H         1 <0>         0.4311
     38 H17         8.4208    0.8149   -3.2134 H         1 <0>         0.4453
     39 H18         5.2409   -2.0558   -5.0868 H         1 <0>         0.4288
     40 H19         5.7260    2.8827   -2.5117 H         1 <0>         0.4452
@<TRIPOS>BOND
     1    1    2 1
     2    1   22 1
     3    1   23 1
     4    1   24 1
     5    2    3 1
     6    3    8 ar
     7    3    4 ar
     8    4    5 ar
     9    4   25 1
    10    5    6 ar
    11    5   13 1
    12    6    7 ar
    13    6   26 1
    14    7    8 ar
    15    7   11 1
    16    8    9 1
    17    9   10 1
    18   10   27 1
    19   10   28 1
    20   10   29 1
    21   11   12 1
    22   12   30 1
    23   12   31 1
    24   12   32 1
    25   13   14 1
    26   13   33 1
    27   13   34 1
    28   14   19 ar
    29   14   15 ar
    30   15   16 ar
    31   15   35 1
    32   16   17 ar
    33   16   40 1
    34   17   18 ar
    35   17   21 1
    36   18   19 ar
    37   19   20 1
    38   20   36 1
    39   20   39 1
    40   21   37 1
    41   21   38 1
@<TRIPOS>MOLECULE
ZINC01536109
   56    58     0     0     0
SMALL
USER_CHARGES
2-[4-[1-[(2,4-diaminopteridin-6-yl)methyl]but-3-ynyl]benzoyl]aminopentanedioic acid
@<TRIPOS>ATOM
      1 C1          0.2710   -9.7925    1.5698 C.1       1 <0>        -0.2203
      2 C2          0.1113   -8.6323    1.4875 C.1       1 <0>        -0.1734
      3 C3         -0.0889   -7.1776    1.3844 C.3       1 <0>        -0.0089
      4 C4          1.1022   -6.5491    0.6585 C.3       1 <0>        -0.0335
      5 H1          2.0260   -6.8330    1.1626 H         1 <0>         0.0840
      6 C5          1.1375   -7.0455   -0.7883 C.3       1 <0>        -0.0546
      7 C6          2.3847   -6.5363   -1.4639 C.ar      1 <0>         0.0468
      8 C7          3.5827   -7.2350   -1.3189 C.ar      1 <0>         0.1386
      9 N1          4.6838   -6.8127   -1.9033 N.ar      1 <0>        -0.4461
     10 C8          4.6546   -5.6961   -2.6350 C.ar      1 <0>         0.3684
     11 C9          3.4355   -4.9870   -2.7746 C.ar      1 <0>        -0.0825
     12 N2          2.3336   -5.4336   -2.1804 N.ar      1 <0>        -0.3612
     13 C10         3.4429   -3.7677   -3.5848 C.ar      1 <0>         0.5468
     14 N3          4.5910   -3.4027   -4.1384 N.ar      1 <0>        -0.6317
     15 C11         5.6986   -4.1168   -3.9648 C.ar      1 <0>         0.6401
     16 N4          5.7469   -5.2208   -3.2461 N.ar      1 <0>        -0.6114
     17 N5          6.8610   -3.6789   -4.5701 N.pl3     1 <0>        -0.8114
     18 N6          2.2964   -3.0258   -3.7664 N.pl3     1 <0>        -0.7786
     19 C12         0.9635   -5.0485    0.6714 C.ar      1 <0>        -0.0678
     20 C13         1.9398   -4.2718    1.2697 C.ar      1 <0>        -0.1233
     21 C14         1.8184   -2.8976    1.2858 C.ar      1 <0>        -0.0640
     22 C15         0.7080   -2.2913    0.6964 C.ar      1 <0>        -0.1065
     23 C16        -0.2756   -3.0809    0.0988 C.ar      1 <0>        -0.0840
     24 C17        -0.1397   -4.4537    0.0854 C.ar      1 <0>        -0.1104
     25 C18         0.5712   -0.8192    0.7104 C.2       1 <0>         0.5506
     26 O1          1.4269   -0.1343    1.2360 O.2       1 <0>        -0.5502
     27 N7         -0.5022   -0.2367    0.1404 N.am      1 <0>        -0.6819
     28 C19        -0.6378    1.2219    0.1543 C.3       1 <0>         0.0998
     29 H2          0.3472    1.6793    0.0609 H         1 <0>         0.0855
     30 C20        -1.5182    1.6635   -1.0165 C.3       1 <0>        -0.0865
     31 C21        -0.8155    1.3348   -2.3353 C.3       1 <0>        -0.1516
     32 C22        -1.6827    1.7697   -3.4885 C.2       1 <0>         0.4612
     33 O2         -2.7529    2.2892   -3.2773 O.co2     1 <0>        -0.6376
     34 C23        -1.2719    1.6552    1.4509 C.2       1 <0>         0.4647
     35 O3         -1.5791    0.8302    2.2785 O.co2     1 <0>        -0.6394
     36 H3          0.4138  -10.8301    1.6433 H         1 <0>         0.2140
     37 H4         -0.1719   -6.7506    2.3838 H         1 <0>         0.0952
     38 H5         -1.0028   -6.9753    0.8259 H         1 <0>         0.0946
     39 H6          1.1380   -8.1355   -0.7985 H         1 <0>         0.0880
     40 H7          0.2601   -6.6776   -1.3202 H         1 <0>         0.0916
     41 H8          3.6064   -8.1358   -0.7236 H         1 <0>         0.1733
     42 H9          7.6838   -4.1808   -4.4604 H         1 <0>         0.4155
     43 H10         6.8543   -2.8695   -5.1048 H         1 <0>         0.4161
     44 H11         1.4652   -3.3086   -3.3540 H         1 <0>         0.4284
     45 H12         2.3203   -2.2205   -4.3066 H         1 <0>         0.4218
     46 H13         2.7985   -4.7422    1.7254 H         1 <0>         0.1174
     47 H14         2.5812   -2.2924    1.7531 H         1 <0>         0.1303
     48 H15        -1.1394   -2.6181   -0.3550 H         1 <0>         0.1284
     49 H16        -0.8982   -5.0657   -0.3800 H         1 <0>         0.1249
     50 H17        -1.1851   -0.7833   -0.2790 H         1 <0>         0.3907
     51 H18        -2.4721    1.1379   -0.9723 H         1 <0>         0.0575
     52 H19        -1.6921    2.7378   -0.9554 H         1 <0>         0.0851
     53 H20         0.1384    1.8604   -2.3796 H         1 <0>         0.0599
     54 H21        -0.6416    0.2605   -2.3964 H         1 <0>         0.0560
     55 O4         -1.2661    1.5799   -4.7503 O.co2     1 <0>        -0.7904
     56 O5         -1.4954    2.9576    1.6864 O.co2     1 <0>        -0.7682
@<TRIPOS>BOND
     1    1    2 3
     2    1   36 1
     3    2    3 1
     4    3    4 1
     5    3   37 1
     6    3   38 1
     7    4    5 1
     8    4    6 1
     9    4   19 1
    10    6    7 1
    11    6   39 1
    12    6   40 1
    13    7   12 ar
    14    7    8 ar
    15    8    9 ar
    16    8   41 1
    17    9   10 ar
    18   10   16 ar
    19   10   11 ar
    20   11   12 ar
    21   11   13 ar
    22   13   14 ar
    23   13   18 1
    24   14   15 ar
    25   15   16 ar
    26   15   17 1
    27   17   42 1
    28   17   43 1
    29   18   44 1
    30   18   45 1
    31   19   24 ar
    32   19   20 ar
    33   20   21 ar
    34   20   46 1
    35   21   22 ar
    36   21   47 1
    37   22   23 ar
    38   22   25 1
    39   23   24 ar
    40   23   48 1
    41   24   49 1
    42   25   26 2
    43   25   27 am
    44   27   28 1
    45   27   50 1
    46   28   29 1
    47   28   30 1
    48   28   34 1
    49   30   31 1
    50   30   51 1
    51   30   52 1
    52   31   32 1
    53   31   53 1
    54   31   54 1
    55   32   33 2
    56   32   55 1
    57   34   35 2
    58   34   56 1
@<TRIPOS>MOLECULE
ZINC01536109
   57    59     0     0     0
SMALL
USER_CHARGES
2-[4-[1-[(2,4-diaminopteridin-6-yl)methyl]but-3-ynyl]benzoyl]aminopentanedioic acid
@<TRIPOS>ATOM
      1 C1          0.2710   -9.7925    1.5698 C.1       1 <0>        -0.2066
      2 C2          0.1113   -8.6323    1.4875 C.1       1 <0>        -0.1860
      3 C3         -0.0889   -7.1776    1.3844 C.3       1 <0>        -0.0078
      4 C4          1.1022   -6.5491    0.6585 C.3       1 <0>        -0.0315
      5 H1          2.0260   -6.8330    1.1626 H         1 <0>         0.0871
      6 C5          1.1375   -7.0455   -0.7883 C.3       1 <0>        -0.0711
      7 C6          2.3847   -6.5363   -1.4639 C.ar      1 <0>         0.1050
      8 C7          3.5827   -7.2350   -1.3189 C.ar      1 <0>         0.1611
      9 N1          4.6838   -6.8127   -1.9033 N.ar      1 <0>        -0.4468
     10 C8          4.6546   -5.6961   -2.6350 C.ar      1 <0>         0.3273
     11 C9          3.4355   -4.9870   -2.7746 C.ar      1 <0>        -0.0017
     12 N2          2.3336   -5.4336   -2.1804 N.ar      1 <0>        -0.3496
     13 C10         3.4429   -3.7677   -3.5848 C.ar      1 <0>         0.5766
     14 N3          4.5910   -3.4027   -4.1384 N.ar      1 <0>        -0.5745
     15 C11         5.6986   -4.1168   -3.9648 C.ar      1 <0>         0.7100
     16 N4          6.8610   -3.6789   -4.5701 N.pl3     1 <0>        -0.7833
     17 N5          2.2964   -3.0258   -3.7664 N.pl3     1 <0>        -0.7121
     18 C12         0.9635   -5.0485    0.6714 C.ar      1 <0>        -0.0835
     19 C13         1.9398   -4.2718    1.2697 C.ar      1 <0>        -0.1262
     20 C14         1.8184   -2.8976    1.2858 C.ar      1 <0>        -0.0657
     21 C15         0.7080   -2.2913    0.6964 C.ar      1 <0>        -0.1002
     22 C16        -0.2756   -3.0809    0.0988 C.ar      1 <0>        -0.0843
     23 C17        -0.1397   -4.4537    0.0854 C.ar      1 <0>        -0.1105
     24 C18         0.5712   -0.8192    0.7104 C.2       1 <0>         0.5448
     25 O1          1.4269   -0.1343    1.2360 O.2       1 <0>        -0.5469
     26 N6         -0.5022   -0.2367    0.1404 N.am      1 <0>        -0.6786
     27 C19        -0.6378    1.2219    0.1543 C.3       1 <0>         0.0993
     28 H2          0.3472    1.6793    0.0609 H         1 <0>         0.0864
     29 C20        -1.5182    1.6635   -1.0165 C.3       1 <0>        -0.0891
     30 C21        -0.8155    1.3348   -2.3353 C.3       1 <0>        -0.1492
     31 C22        -1.6827    1.7697   -3.4885 C.2       1 <0>         0.4592
     32 O2         -2.7529    2.2892   -3.2773 O.co2     1 <0>        -0.6316
     33 C23        -1.2719    1.6552    1.4509 C.2       1 <0>         0.4629
     34 O3         -1.5791    0.8302    2.2785 O.co2     1 <0>        -0.6393
     35 H3          0.4138  -10.8301    1.6433 H         1 <0>         0.2160
     36 H4         -0.1719   -6.7506    2.3838 H         1 <0>         0.1002
     37 H5         -1.0028   -6.9753    0.8259 H         1 <0>         0.0975
     38 H6          1.1380   -8.1355   -0.7985 H         1 <0>         0.1045
     39 H7          0.2601   -6.6776   -1.3202 H         1 <0>         0.1068
     40 H8          3.6064   -8.1358   -0.7236 H         1 <0>         0.2012
     41 H9          7.6838   -4.1808   -4.4604 H         1 <0>         0.4299
     42 H10         6.8543   -2.8695   -5.1048 H         1 <0>         0.4451
     43 H11         1.4652   -3.3086   -3.3540 H         1 <0>         0.4469
     44 H12         2.3203   -2.2205   -4.3066 H         1 <0>         0.4429
     45 H13         2.7985   -4.7422    1.7254 H         1 <0>         0.1183
     46 H14         2.5812   -2.2924    1.7531 H         1 <0>         0.1334
     47 H15        -1.1394   -2.6181   -0.3550 H         1 <0>         0.1326
     48 H16        -0.8982   -5.0657   -0.3800 H         1 <0>         0.1282
     49 H17        -1.1851   -0.7833   -0.2790 H         1 <0>         0.3906
     50 H18        -2.4721    1.1379   -0.9723 H         1 <0>         0.0591
     51 H19        -1.6921    2.7378   -0.9554 H         1 <0>         0.0879
     52 H20         0.1384    1.8604   -2.3796 H         1 <0>         0.0593
     53 H21        -0.6416    0.2605   -2.3964 H         1 <0>         0.0518
     54 O4         -1.2661    1.5799   -4.7503 O.co2     1 <0>        -0.7924
     55 O5         -1.4954    2.9576    1.6864 O.co2     1 <0>        -0.7622
     56 N7          5.8127   -5.2578   -3.2394 N.ar      1 <0>        -0.5987
     57 H22         6.6616   -5.7742   -3.1272 H         1 <0>         0.4575
@<TRIPOS>BOND
     1    1    2 3
     2    1   35 1
     3    2    3 1
     4    3    4 1
     5    3   36 1
     6    3   37 1
     7    4    5 1
     8    4    6 1
     9    4   18 1
    10    6    7 1
    11    6   38 1
    12    6   39 1
    13    7   12 ar
    14    7    8 ar
    15    8    9 ar
    16    8   40 1
    17    9   10 ar
    18   10   11 ar
    19   10   56 ar
    20   11   12 ar
    21   11   13 ar
    22   13   14 ar
    23   13   17 1
    24   14   15 ar
    25   15   16 1
    26   15   56 ar
    27   16   41 1
    28   16   42 1
    29   17   43 1
    30   17   44 1
    31   18   23 ar
    32   18   19 ar
    33   19   20 ar
    34   19   45 1
    35   20   21 ar
    36   20   46 1
    37   21   22 ar
    38   21   24 1
    39   22   23 ar
    40   22   47 1
    41   23   48 1
    42   24   25 2
    43   24   26 am
    44   26   27 1
    45   26   49 1
    46   27   28 1
    47   27   29 1
    48   27   33 1
    49   29   30 1
    50   29   50 1
    51   29   51 1
    52   30   31 1
    53   30   52 1
    54   30   53 1
    55   31   32 2
    56   31   54 1
    57   33   34 2
    58   33   55 1
    59   56   57 1
@<TRIPOS>MOLECULE
ZINC01536109
   57    59     0     0     0
SMALL
USER_CHARGES
2-[4-[1-[(2,4-diaminopteridin-6-yl)methyl]but-3-ynyl]benzoyl]aminopentanedioic acid
@<TRIPOS>ATOM
      1 C1          0.2710   -9.7924    1.5700 C.1       1 <0>        -0.2055
      2 C2          0.1111   -8.6322    1.4877 C.1       1 <0>        -0.1866
      3 C3         -0.0893   -7.1775    1.3845 C.3       1 <0>        -0.0071
      4 C4          1.1019   -6.5488    0.6589 C.3       1 <0>        -0.0334
      5 H1          2.0256   -6.8326    1.1633 H         1 <0>         0.0882
      6 C5          1.1376   -7.0452   -0.7879 C.3       1 <0>        -0.0684
      7 C6          2.3849   -6.5358   -1.4632 C.ar      1 <0>         0.1010
      8 C7          3.5830   -7.2343   -1.3179 C.ar      1 <0>         0.1734
      9 N1          4.6842   -6.8116   -1.9017 N.ar      1 <0>        -0.4217
     10 C8          4.6550   -5.6952   -2.6337 C.ar      1 <0>         0.3433
     11 C9          3.4358   -4.9863   -2.7736 C.ar      1 <0>        -0.0478
     12 N2          2.3340   -5.4327   -2.1791 N.ar      1 <0>        -0.3598
     13 C10         3.4431   -3.7672   -3.5841 C.ar      1 <0>         0.5880
     14 N3          4.5914   -3.4018   -4.1371 N.ar      1 <0>        -0.5797
     15 C11         5.6989   -4.1160   -3.9636 C.ar      1 <0>         0.6196
     16 N4          6.8615   -3.6777   -4.5683 N.pl3     1 <0>        -0.7936
     17 N5          2.2967   -3.0251   -3.7653 N.pl3     1 <0>        -0.7268
     18 C12         0.9630   -5.0483    0.6718 C.ar      1 <0>        -0.0788
     19 C13         1.9390   -4.2714    1.2704 C.ar      1 <0>        -0.1249
     20 C14         1.8174   -2.8972    1.2864 C.ar      1 <0>        -0.0661
     21 C15         0.7070   -2.2911    0.6968 C.ar      1 <0>        -0.1038
     22 C16        -0.2763   -3.0808    0.0989 C.ar      1 <0>        -0.0861
     23 C17        -0.1402   -4.4536    0.0856 C.ar      1 <0>        -0.1110
     24 C18         0.5700   -0.8190    0.7108 C.2       1 <0>         0.5447
     25 O1          1.4254   -0.1340    1.2366 O.2       1 <0>        -0.5470
     26 N6         -0.5034   -0.2367    0.1405 N.am      1 <0>        -0.6796
     27 C19        -0.6392    1.2219    0.1544 C.3       1 <0>         0.0995
     28 H2          0.3457    1.6795    0.0612 H         1 <0>         0.0858
     29 C20        -1.5194    1.6634   -1.0166 C.3       1 <0>        -0.0896
     30 C21        -0.8163    1.3348   -2.3352 C.3       1 <0>        -0.1483
     31 C22        -1.6833    1.7696   -3.4886 C.2       1 <0>         0.4589
     32 O2         -2.7536    2.2889   -3.2777 O.co2     1 <0>        -0.6291
     33 C23        -1.2737    1.6551    1.4508 C.2       1 <0>         0.4623
     34 O3         -1.5810    0.8300    2.2784 O.co2     1 <0>        -0.6384
     35 H3          0.4139  -10.8299    1.6435 H         1 <0>         0.2161
     36 H4         -0.1726   -6.7505    2.3839 H         1 <0>         0.0993
     37 H5         -1.0031   -6.9754    0.8258 H         1 <0>         0.0965
     38 H6          1.1383   -8.1352   -0.7981 H         1 <0>         0.1038
     39 H7          0.2603   -6.6774   -1.3200 H         1 <0>         0.1038
     40 H8          3.6067   -8.1351   -0.7226 H         1 <0>         0.1986
     41 H9          7.6844   -4.1793   -4.4581 H         1 <0>         0.4451
     42 H10         6.8548   -2.8683   -5.1030 H         1 <0>         0.4245
     43 H11         1.4655   -3.3079   -3.3529 H         1 <0>         0.4607
     44 H12         2.3207   -2.2196   -4.3053 H         1 <0>         0.4406
     45 H13         2.7976   -4.7417    1.7263 H         1 <0>         0.1199
     46 H14         2.5800   -2.2919    1.7539 H         1 <0>         0.1331
     47 H15        -1.1401   -2.6182   -0.3551 H         1 <0>         0.1314
     48 H16        -0.8985   -5.0657   -0.3800 H         1 <0>         0.1281
     49 H17        -1.1861   -0.7834   -0.2791 H         1 <0>         0.3906
     50 H18        -2.4732    1.1376   -0.9726 H         1 <0>         0.0596
     51 H19        -1.6935    2.7376   -0.9555 H         1 <0>         0.0883
     52 H20         0.1375    1.8606   -2.3793 H         1 <0>         0.0584
     53 H21        -0.6422    0.2605   -2.3963 H         1 <0>         0.0508
     54 O4         -1.2664    1.5799   -4.7504 O.co2     1 <0>        -0.7947
     55 O5         -1.4975    2.9574    1.6863 O.co2     1 <0>        -0.7619
     56 N7          5.8131   -5.2567   -3.2378 N.ar      1 <0>        -0.4790
     57 H22         4.6141   -2.5709   -4.6931 H         1 <0>         0.4548
@<TRIPOS>BOND
     1    1    2 3
     2    1   35 1
     3    2    3 1
     4    3    4 1
     5    3   36 1
     6    3   37 1
     7    4    5 1
     8    4    6 1
     9    4   18 1
    10    6    7 1
    11    6   38 1
    12    6   39 1
    13    7   12 ar
    14    7    8 ar
    15    8    9 ar
    16    8   40 1
    17    9   10 ar
    18   10   56 ar
    19   10   11 ar
    20   11   12 ar
    21   11   13 ar
    22   13   17 1
    23   13   14 ar
    24   14   57 1
    25   14   15 ar
    26   15   16 1
    27   15   56 ar
    28   16   41 1
    29   16   42 1
    30   17   43 1
    31   17   44 1
    32   18   23 ar
    33   18   19 ar
    34   19   20 ar
    35   19   45 1
    36   20   21 ar
    37   20   46 1
    38   21   22 ar
    39   21   24 1
    40   22   23 ar
    41   22   47 1
    42   23   48 1
    43   24   25 2
    44   24   26 am
    45   26   27 1
    46   26   49 1
    47   27   28 1
    48   27   29 1
    49   27   33 1
    50   29   30 1
    51   29   50 1
    52   29   51 1
    53   30   31 1
    54   30   52 1
    55   30   53 1
    56   31   32 2
    57   31   54 1
    58   33   34 2
    59   33   55 1
@<TRIPOS>MOLECULE
ZINC11616925
   56    58     0     0     0
SMALL
USER_CHARGES
(2S)-2-[[4-[(1R)-1-[(2,4-diaminopteridin-6-yl)methyl]but-3-ynyl]benzoyl]amino]pentanedioic acid
@<TRIPOS>ATOM
      1 C1          3.5048   -6.1892   -1.8120 C.1       1 <0>        -0.2064
      2 C2          2.4681   -6.5154   -1.3679 C.1       1 <0>        -0.1841
      3 C3          1.1683   -6.9243   -0.8111 C.3       1 <0>        -0.0017
      4 C4          1.0500   -6.4225    0.6295 C.3       1 <0>        -0.0326
      5 H1          1.9021   -6.7775    1.2090 H         1 <0>         0.0845
      6 C5         -0.2447   -6.9523    1.2493 C.3       1 <0>        -0.0594
      7 C6         -0.1733   -8.4539    1.3548 C.ar      1 <0>         0.0591
      8 C7          0.4467   -9.0399    2.4579 C.ar      1 <0>         0.1460
      9 N1          0.5170  -10.3490    2.5747 N.ar      1 <0>        -0.4410
     10 C8         -0.0028  -11.1243    1.6198 C.ar      1 <0>         0.3655
     11 C9         -0.6271  -10.5235    0.4983 C.ar      1 <0>        -0.0873
     12 N2         -0.6921   -9.1994    0.4023 N.ar      1 <0>        -0.3783
     13 C10        -1.1856  -11.4062   -0.5275 C.ar      1 <0>         0.5431
     14 N3         -1.0728  -12.7142   -0.3427 N.ar      1 <0>        -0.6312
     15 C11        -0.4730  -13.2097    0.7351 C.ar      1 <0>         0.6356
     16 N4          0.0461  -12.4605    1.6874 N.ar      1 <0>        -0.6028
     17 N5         -0.3897  -14.5829    0.8644 N.pl3     1 <0>        -0.8114
     18 N6         -1.8076  -10.8953   -1.6455 N.pl3     1 <0>        -0.7913
     19 C12         1.0304   -4.9157    0.6365 C.ar      1 <0>        -0.0709
     20 C13         2.0110   -4.2173    1.3184 C.ar      1 <0>        -0.1203
     21 C14         1.9983   -2.8379    1.3296 C.ar      1 <0>        -0.0628
     22 C15         0.9936   -2.1468    0.6506 C.ar      1 <0>        -0.1066
     23 C16         0.0046   -2.8574   -0.0314 C.ar      1 <0>        -0.0826
     24 C17         0.0316   -4.2367   -0.0386 C.ar      1 <0>        -0.1197
     25 C18         0.9736   -0.6685    0.6587 C.2       1 <0>         0.5510
     26 O1          1.8333   -0.0523    1.2576 O.2       1 <0>        -0.5503
     27 N7          0.0021   -0.0041    0.0020 N.am      1 <0>        -0.6823
     28 C19        -0.0178    1.4608    0.0101 C.3       1 <0>         0.0993
     29 H2          1.0048    1.8381    0.0023 H         1 <0>         0.0863
     30 C20        -0.7578    1.9676   -1.2295 C.3       1 <0>        -0.0862
     31 C21         0.0259    1.5803   -2.4852 C.3       1 <0>        -0.1531
     32 C22        -0.7030    2.0796   -3.7061 C.2       1 <0>         0.4614
     33 O2         -1.7426    2.6832   -3.5843 O.co2     1 <0>        -0.6386
     34 C23        -0.7232    1.9468    1.2500 C.2       1 <0>         0.4652
     35 O3         -1.1640    1.1512    2.0453 O.co2     1 <0>        -0.6395
     36 H3          4.4320   -5.8975   -2.2091 H         1 <0>         0.2138
     37 H4          1.0932   -8.0117   -0.8244 H         1 <0>         0.0819
     38 H5          0.3652   -6.4973   -1.4117 H         1 <0>         0.0926
     39 H6         -0.3734   -6.5240    2.2433 H         1 <0>         0.0990
     40 H7         -1.0898   -6.6720    0.6206 H         1 <0>         0.0959
     41 H8          0.8704   -8.4120    3.2278 H         1 <0>         0.1823
     42 H9          0.0423  -14.9716    1.6411 H         1 <0>         0.4177
     43 H10        -0.7633  -15.1582    0.1786 H         1 <0>         0.4149
     44 H11        -1.8815   -9.9354   -1.7634 H         1 <0>         0.4278
     45 H12        -2.1718  -11.4956   -2.3148 H         1 <0>         0.4149
     46 H13         2.7878   -4.7533    1.8435 H         1 <0>         0.1221
     47 H14         2.7639   -2.2939    1.8629 H         1 <0>         0.1339
     48 H15        -0.7780   -2.3286   -0.5550 H         1 <0>         0.1291
     49 H16        -0.7309   -4.7878   -0.5690 H         1 <0>         0.1249
     50 H17        -0.6840   -0.4958   -0.4759 H         1 <0>         0.3912
     51 H18        -1.7507    1.5197   -1.2683 H         1 <0>         0.0574
     52 H19        -0.8503    3.0525   -1.1791 H         1 <0>         0.0852
     53 H20         1.0188    2.0283   -2.4463 H         1 <0>         0.0607
     54 H21         0.1184    0.4954   -2.5355 H         1 <0>         0.0572
     55 O4         -0.1973    1.8537   -4.9287 O.co2     1 <0>        -0.7904
     56 O5         -0.8617    3.2635    1.4708 O.co2     1 <0>        -0.7682
@<TRIPOS>BOND
     1    1    2 3
     2    1   36 1
     3    2    3 1
     4    3    4 1
     5    3   37 1
     6    3   38 1
     7    4    5 1
     8    4    6 1
     9    4   19 1
    10    6    7 1
    11    6   39 1
    12    6   40 1
    13    7   12 ar
    14    7    8 ar
    15    8    9 ar
    16    8   41 1
    17    9   10 ar
    18   10   16 ar
    19   10   11 ar
    20   11   12 ar
    21   11   13 ar
    22   13   14 ar
    23   13   18 1
    24   14   15 ar
    25   15   16 ar
    26   15   17 1
    27   17   42 1
    28   17   43 1
    29   18   44 1
    30   18   45 1
    31   19   24 ar
    32   19   20 ar
    33   20   21 ar
    34   20   46 1
    35   21   22 ar
    36   21   47 1
    37   22   23 ar
    38   22   25 1
    39   23   24 ar
    40   23   48 1
    41   24   49 1
    42   25   26 2
    43   25   27 am
    44   27   28 1
    45   27   50 1
    46   28   29 1
    47   28   30 1
    48   28   34 1
    49   30   31 1
    50   30   51 1
    51   30   52 1
    52   31   32 1
    53   31   53 1
    54   31   54 1
    55   32   33 2
    56   32   55 1
    57   34   35 2
    58   34   56 1
@<TRIPOS>MOLECULE
ZINC11616925
   57    59     0     0     0
SMALL
USER_CHARGES
(2S)-2-[[4-[(1R)-1-[(2,4-diaminopteridin-6-yl)methyl]but-3-ynyl]benzoyl]amino]pentanedioic acid
@<TRIPOS>ATOM
      1 C1          3.5048   -6.1892   -1.8120 C.1       1 <0>        -0.1839
      2 C2          2.4681   -6.5154   -1.3679 C.1       1 <0>        -0.2021
      3 C3          1.1683   -6.9243   -0.8111 C.3       1 <0>         0.0018
      4 C4          1.0500   -6.4225    0.6295 C.3       1 <0>        -0.0308
      5 H1          1.9021   -6.7775    1.2090 H         1 <0>         0.0870
      6 C5         -0.2447   -6.9523    1.2493 C.3       1 <0>        -0.0755
      7 C6         -0.1733   -8.4539    1.3548 C.ar      1 <0>         0.1126
      8 C7          0.4467   -9.0399    2.4579 C.ar      1 <0>         0.1712
      9 N1          0.5170  -10.3490    2.5747 N.ar      1 <0>        -0.4439
     10 C8         -0.0028  -11.1243    1.6198 C.ar      1 <0>         0.3247
     11 C9         -0.6271  -10.5235    0.4983 C.ar      1 <0>        -0.0102
     12 N2         -0.6921   -9.1994    0.4023 N.ar      1 <0>        -0.3643
     13 C10        -1.1856  -11.4062   -0.5275 C.ar      1 <0>         0.5808
     14 N3         -1.0728  -12.7142   -0.3427 N.ar      1 <0>        -0.5782
     15 C11        -0.4730  -13.2097    0.7351 C.ar      1 <0>         0.7102
     16 N4         -0.3897  -14.5829    0.8644 N.pl3     1 <0>        -0.7815
     17 N5         -1.8076  -10.8953   -1.6455 N.pl3     1 <0>        -0.7291
     18 C12         1.0304   -4.9157    0.6365 C.ar      1 <0>        -0.0837
     19 C13         2.0110   -4.2173    1.3184 C.ar      1 <0>        -0.1173
     20 C14         1.9983   -2.8379    1.3296 C.ar      1 <0>        -0.0621
     21 C15         0.9936   -2.1468    0.6506 C.ar      1 <0>        -0.0963
     22 C16         0.0046   -2.8574   -0.0314 C.ar      1 <0>        -0.0820
     23 C17         0.0316   -4.2367   -0.0386 C.ar      1 <0>        -0.1190
     24 C18         0.9736   -0.6685    0.6587 C.2       1 <0>         0.5465
     25 O1          1.8333   -0.0523    1.2576 O.2       1 <0>        -0.5462
     26 N6          0.0021   -0.0041    0.0020 N.am      1 <0>        -0.6793
     27 C19        -0.0178    1.4608    0.0101 C.3       1 <0>         0.0986
     28 H2          1.0048    1.8381    0.0023 H         1 <0>         0.0876
     29 C20        -0.7578    1.9676   -1.2295 C.3       1 <0>        -0.0870
     30 C21         0.0259    1.5803   -2.4852 C.3       1 <0>        -0.1526
     31 C22        -0.7030    2.0796   -3.7061 C.2       1 <0>         0.4604
     32 O2         -1.7426    2.6832   -3.5843 O.co2     1 <0>        -0.6370
     33 C23        -0.7232    1.9468    1.2500 C.2       1 <0>         0.4653
     34 O3         -1.1640    1.1512    2.0453 O.co2     1 <0>        -0.6420
     35 H3          4.4320   -5.8975   -2.2091 H         1 <0>         0.2165
     36 H4          1.0932   -8.0117   -0.8244 H         1 <0>         0.0716
     37 H5          0.3652   -6.4973   -1.4117 H         1 <0>         0.0961
     38 H6         -0.3734   -6.5240    2.2433 H         1 <0>         0.1155
     39 H7         -1.0898   -6.6720    0.6206 H         1 <0>         0.1105
     40 H8          0.8704   -8.4120    3.2278 H         1 <0>         0.2091
     41 H9          0.0423  -14.9716    1.6411 H         1 <0>         0.4323
     42 H10        -0.7633  -15.1582    0.1786 H         1 <0>         0.4443
     43 H11        -1.8815   -9.9354   -1.7634 H         1 <0>         0.4461
     44 H12        -2.1718  -11.4956   -2.3148 H         1 <0>         0.4358
     45 H13         2.7878   -4.7533    1.8435 H         1 <0>         0.1221
     46 H14         2.7639   -2.2939    1.8629 H         1 <0>         0.1369
     47 H15        -0.7780   -2.3286   -0.5550 H         1 <0>         0.1318
     48 H16        -0.7309   -4.7878   -0.5690 H         1 <0>         0.1240
     49 H17        -0.6840   -0.4958   -0.4759 H         1 <0>         0.3906
     50 H18        -1.7507    1.5197   -1.2683 H         1 <0>         0.0575
     51 H19        -0.8503    3.0525   -1.1791 H         1 <0>         0.0869
     52 H20         1.0188    2.0283   -2.4463 H         1 <0>         0.0612
     53 H21         0.1184    0.4954   -2.5355 H         1 <0>         0.0553
     54 O4         -0.1973    1.8537   -4.9287 O.co2     1 <0>        -0.7896
     55 O5         -0.8617    3.2635    1.4708 O.co2     1 <0>        -0.7637
     56 N7          0.0792  -12.4939    1.7469 N.ar      1 <0>        -0.5940
     57 H22         0.5243  -12.8960    2.5470 H         1 <0>         0.4606
@<TRIPOS>BOND
     1    1    2 3
     2    1   35 1
     3    2    3 1
     4    3    4 1
     5    3   36 1
     6    3   37 1
     7    4    5 1
     8    4    6 1
     9    4   18 1
    10    6    7 1
    11    6   38 1
    12    6   39 1
    13    7   12 ar
    14    7    8 ar
    15    8    9 ar
    16    8   40 1
    17    9   10 ar
    18   10   11 ar
    19   10   56 ar
    20   11   12 ar
    21   11   13 ar
    22   13   14 ar
    23   13   17 1
    24   14   15 ar
    25   15   16 1
    26   15   56 ar
    27   16   41 1
    28   16   42 1
    29   17   43 1
    30   17   44 1
    31   18   23 ar
    32   18   19 ar
    33   19   20 ar
    34   19   45 1
    35   20   21 ar
    36   20   46 1
    37   21   22 ar
    38   21   24 1
    39   22   23 ar
    40   22   47 1
    41   23   48 1
    42   24   25 2
    43   24   26 am
    44   26   27 1
    45   26   49 1
    46   27   28 1
    47   27   29 1
    48   27   33 1
    49   29   30 1
    50   29   50 1
    51   29   51 1
    52   30   31 1
    53   30   52 1
    54   30   53 1
    55   31   32 2
    56   31   54 1
    57   33   34 2
    58   33   55 1
    59   56   57 1
@<TRIPOS>MOLECULE
ZINC11616925
   57    59     0     0     0
SMALL
USER_CHARGES
(2S)-2-[[4-[(1R)-1-[(2,4-diaminopteridin-6-yl)methyl]but-3-ynyl]benzoyl]amino]pentanedioic acid
@<TRIPOS>ATOM
      1 C1          3.5051   -6.1882   -1.8133 C.1       1 <0>        -0.1846
      2 C2          2.4685   -6.5146   -1.3690 C.1       1 <0>        -0.2020
      3 C3          1.1689   -6.9238   -0.8120 C.3       1 <0>         0.0028
      4 C4          1.0508   -6.4222    0.6287 C.3       1 <0>        -0.0317
      5 H1          1.9031   -6.7771    1.2080 H         1 <0>         0.0880
      6 C5         -0.2436   -6.9523    1.2487 C.3       1 <0>        -0.0734
      7 C6         -0.1719   -8.4539    1.3540 C.ar      1 <0>         0.1130
      8 C7          0.4484   -9.0399    2.4570 C.ar      1 <0>         0.1832
      9 N1          0.5194  -10.3490    2.5734 N.ar      1 <0>        -0.4185
     10 C8         -0.0009  -11.1243    1.6187 C.ar      1 <0>         0.3417
     11 C9         -0.6255  -10.5235    0.4974 C.ar      1 <0>        -0.0528
     12 N2         -0.6900   -9.1994    0.4011 N.ar      1 <0>        -0.3769
     13 C10        -1.1846  -11.4062   -0.5280 C.ar      1 <0>         0.5880
     14 N3         -1.0710  -12.7142   -0.3437 N.ar      1 <0>        -0.5760
     15 C11        -0.4714  -13.2097    0.7342 C.ar      1 <0>         0.6123
     16 N4         -0.3873  -14.5829    0.8631 N.pl3     1 <0>        -0.7941
     17 N5         -1.8061  -10.8953   -1.6463 N.pl3     1 <0>        -0.7434
     18 C12         1.0310   -4.9154    0.6358 C.ar      1 <0>        -0.0827
     19 C13         2.0116   -4.2169    1.3176 C.ar      1 <0>        -0.1171
     20 C14         1.9987   -2.8375    1.3289 C.ar      1 <0>        -0.0618
     21 C15         0.9937   -2.1465    0.6502 C.ar      1 <0>        -0.0969
     22 C16         0.0047   -2.8572   -0.0316 C.ar      1 <0>        -0.0825
     23 C17         0.0319   -4.2365   -0.0390 C.ar      1 <0>        -0.1195
     24 C18         0.9734   -0.6682    0.6585 C.2       1 <0>         0.5467
     25 O1          1.8331   -0.0519    1.2572 O.2       1 <0>        -0.5460
     26 N6          0.0017   -0.0039    0.0020 N.am      1 <0>        -0.6797
     27 C19        -0.0185    1.4610    0.0103 C.3       1 <0>         0.0986
     28 H2          1.0040    1.8385    0.0023 H         1 <0>         0.0876
     29 C20        -0.7589    1.9678   -1.2291 C.3       1 <0>        -0.0868
     30 C21         0.0246    1.5807   -2.4850 C.3       1 <0>        -0.1526
     31 C22        -0.7046    2.0800   -3.7057 C.2       1 <0>         0.4605
     32 O2         -1.7443    2.6834   -3.5836 O.co2     1 <0>        -0.6371
     33 C23        -0.7237    1.9467    1.2504 C.2       1 <0>         0.4652
     34 O3         -1.1642    1.1510    2.0457 O.co2     1 <0>        -0.6417
     35 H3          4.4321   -5.8963   -2.2106 H         1 <0>         0.2163
     36 H4          1.0940   -8.0112   -0.8254 H         1 <0>         0.0715
     37 H5          0.3656   -6.4969   -1.4124 H         1 <0>         0.0945
     38 H6         -0.3722   -6.5241    2.2428 H         1 <0>         0.1150
     39 H7         -1.0889   -6.6721    0.6202 H         1 <0>         0.1079
     40 H8          0.8722   -8.4120    3.2268 H         1 <0>         0.2072
     41 H9          0.0453  -14.9716    1.6394 H         1 <0>         0.4470
     42 H10        -0.7609  -15.1582    0.1773 H         1 <0>         0.4232
     43 H11        -1.8800   -9.9354   -1.7642 H         1 <0>         0.4597
     44 H12        -2.1700  -11.4956   -2.3158 H         1 <0>         0.4334
     45 H13         2.7886   -4.7528    1.8425 H         1 <0>         0.1229
     46 H14         2.7643   -2.2934    1.8621 H         1 <0>         0.1369
     47 H15        -0.7781   -2.3285   -0.5550 H         1 <0>         0.1313
     48 H16        -0.7306   -4.7877   -0.5693 H         1 <0>         0.1232
     49 H17        -0.6845   -0.4957   -0.4758 H         1 <0>         0.3904
     50 H18        -1.7517    1.5197   -1.2677 H         1 <0>         0.0573
     51 H19        -0.8516    3.0526   -1.1786 H         1 <0>         0.0868
     52 H20         1.0175    2.0289   -2.4463 H         1 <0>         0.0612
     53 H21         0.1173    0.4958   -2.5354 H         1 <0>         0.0553
     54 O4         -0.1991    1.8543   -4.9284 O.co2     1 <0>        -0.7898
     55 O5         -0.8624    3.2634    1.4713 O.co2     1 <0>        -0.7639
     56 N7          0.0814  -12.4939    1.7457 N.ar      1 <0>        -0.4685
     57 H22        -1.4463  -13.3314   -1.0352 H         1 <0>         0.4517
@<TRIPOS>BOND
     1    1    2 3
     2    1   35 1
     3    2    3 1
     4    3    4 1
     5    3   36 1
     6    3   37 1
     7    4    5 1
     8    4    6 1
     9    4   18 1
    10    6    7 1
    11    6   38 1
    12    6   39 1
    13    7   12 ar
    14    7    8 ar
    15    8    9 ar
    16    8   40 1
    17    9   10 ar
    18   10   56 ar
    19   10   11 ar
    20   11   12 ar
    21   11   13 ar
    22   13   17 1
    23   13   14 ar
    24   14   57 1
    25   14   15 ar
    26   15   16 1
    27   15   56 ar
    28   16   41 1
    29   16   42 1
    30   17   43 1
    31   17   44 1
    32   18   23 ar
    33   18   19 ar
    34   19   20 ar
    35   19   45 1
    36   20   21 ar
    37   20   46 1
    38   21   22 ar
    39   21   24 1
    40   22   23 ar
    41   22   47 1
    42   23   48 1
    43   24   25 2
    44   24   26 am
    45   26   27 1
    46   26   49 1
    47   27   28 1
    48   27   29 1
    49   27   33 1
    50   29   30 1
    51   29   50 1
    52   29   51 1
    53   30   31 1
    54   30   52 1
    55   30   53 1
    56   31   32 2
    57   31   54 1
    58   33   34 2
    59   33   55 1
@<TRIPOS>MOLECULE
ZINC11616926
   56    58     0     0     0
SMALL
USER_CHARGES
(2R)-2-[[4-[(1R)-1-[(2,4-diaminopteridin-6-yl)methyl]but-3-ynyl]benzoyl]amino]pentanedioic acid
@<TRIPOS>ATOM
      1 C1          0.0180   -1.1779   -0.0044 C.1       1 <0>        -0.2058
      2 C2          0.0021   -0.0041    0.0020 C.1       1 <0>        -0.1848
      3 C3         -0.0179    1.4678    0.0101 C.3       1 <0>        -0.0015
      4 C4         -0.7340    1.9612    1.2689 C.3       1 <0>        -0.0326
      5 H1         -1.7261    1.5128    1.3219 H         1 <0>         0.0845
      6 C5         -0.8651    3.4847    1.2171 C.3       1 <0>        -0.0595
      7 C6         -1.7620    3.8730    0.0700 C.ar      1 <0>         0.0593
      8 C7         -3.1450    3.8858    0.2487 C.ar      1 <0>         0.1462
      9 N1         -3.9484    4.2261   -0.7366 N.ar      1 <0>        -0.4411
     10 C8         -3.4327    4.5529   -1.9242 C.ar      1 <0>         0.3655
     11 C9         -2.0268    4.5330   -2.1018 C.ar      1 <0>        -0.0873
     12 N2         -1.2328    4.1914   -1.0921 N.ar      1 <0>        -0.3784
     13 C10        -1.4988    4.8978   -3.4176 C.ar      1 <0>         0.5430
     14 N3         -2.3700    5.2249   -4.3621 N.ar      1 <0>        -0.6311
     15 C11        -3.6780    5.2216   -4.1254 C.ar      1 <0>         0.6355
     16 N4         -4.2053    4.9017   -2.9604 N.ar      1 <0>        -0.6027
     17 N5         -4.5301    5.5726   -5.1550 N.pl3     1 <0>        -0.8114
     18 N6         -0.1437    4.9020   -3.6657 N.pl3     1 <0>        -0.7914
     19 C12         0.0613    1.5666    2.4866 C.ar      1 <0>        -0.0709
     20 C13         1.3612    2.0163    2.6357 C.ar      1 <0>        -0.1197
     21 C14         2.0931    1.6626    3.7504 C.ar      1 <0>        -0.0827
     22 C15         1.5230    0.8407    4.7238 C.ar      1 <0>        -0.1065
     23 C16         0.2130    0.3862    4.5647 C.ar      1 <0>        -0.0629
     24 C17        -0.5098    0.7515    3.4478 C.ar      1 <0>        -0.1203
     25 C18         2.3033    0.4535    5.9184 C.2       1 <0>         0.5509
     26 O1          1.8041   -0.2621    6.7647 O.2       1 <0>        -0.5503
     27 N7          3.5681    0.8940    6.0691 N.am      1 <0>        -0.6822
     28 C19         4.3412    0.5104    7.2528 C.3       1 <0>         0.0994
     29 H2          3.6776    0.4462    8.1151 H         1 <0>         0.0865
     30 C20         5.4222    1.5602    7.5182 C.3       1 <0>        -0.0863
     31 C21         4.7617    2.8920    7.8803 C.3       1 <0>        -0.1529
     32 C22         5.8264    3.9260    8.1417 C.2       1 <0>         0.4613
     33 O2          6.9937    3.6283    8.0480 O.co2     1 <0>        -0.6386
     34 C23         4.9894   -0.8295    7.0170 C.2       1 <0>         0.4649
     35 O3          4.8226   -1.4049    5.9677 O.co2     1 <0>        -0.6397
     36 H3          0.0322   -2.2278   -0.0102 H         1 <0>         0.2137
     37 H4          1.0047    1.8451    0.0024 H         1 <0>         0.0923
     38 H5         -0.5451    1.8289   -0.8729 H         1 <0>         0.0819
     39 H6         -1.2946    3.8445    2.1521 H         1 <0>         0.0991
     40 H7          0.1198    3.9294    1.0748 H         1 <0>         0.0961
     41 H8         -3.5615    3.6175    1.2083 H         1 <0>         0.1823
     42 H9         -5.4892    5.5791   -5.0100 H         1 <0>         0.4177
     43 H10        -4.1692    5.8126   -6.0228 H         1 <0>         0.4149
     44 H11         0.4789    4.6604   -2.9622 H         1 <0>         0.4277
     45 H12         0.1879    5.1466   -4.5438 H         1 <0>         0.4148
     46 H13         1.8026    2.6489    1.8797 H         1 <0>         0.1249
     47 H14         3.1064    2.0177    3.8676 H         1 <0>         0.1291
     48 H15        -0.2340   -0.2498    5.3144 H         1 <0>         0.1339
     49 H16        -1.5234    0.4002    3.3233 H         1 <0>         0.1221
     50 H17         3.9665    1.4651    5.3937 H         1 <0>         0.3912
     51 H18         6.0532    1.2313    8.3439 H         1 <0>         0.0851
     52 H19         6.0317    1.6882    6.6237 H         1 <0>         0.0572
     53 H20         4.1307    3.2209    7.0546 H         1 <0>         0.0574
     54 H21         4.1522    2.7640    8.7748 H         1 <0>         0.0608
     55 O4          5.4780    5.1777    8.4785 O.co2     1 <0>        -0.7904
     56 O5          5.7520   -1.3837    7.9725 O.co2     1 <0>        -0.7683
@<TRIPOS>BOND
     1    1    2 3
     2    1   36 1
     3    2    3 1
     4    3    4 1
     5    3   37 1
     6    3   38 1
     7    4    5 1
     8    4    6 1
     9    4   19 1
    10    6    7 1
    11    6   39 1
    12    6   40 1
    13    7   12 ar
    14    7    8 ar
    15    8    9 ar
    16    8   41 1
    17    9   10 ar
    18   10   16 ar
    19   10   11 ar
    20   11   12 ar
    21   11   13 ar
    22   13   14 ar
    23   13   18 1
    24   14   15 ar
    25   15   16 ar
    26   15   17 1
    27   17   42 1
    28   17   43 1
    29   18   44 1
    30   18   45 1
    31   19   24 ar
    32   19   20 ar
    33   20   21 ar
    34   20   46 1
    35   21   22 ar
    36   21   47 1
    37   22   23 ar
    38   22   25 1
    39   23   24 ar
    40   23   48 1
    41   24   49 1
    42   25   26 2
    43   25   27 am
    44   27   28 1
    45   27   50 1
    46   28   29 1
    47   28   30 1
    48   28   34 1
    49   30   31 1
    50   30   51 1
    51   30   52 1
    52   31   32 1
    53   31   53 1
    54   31   54 1
    55   32   33 2
    56   32   55 1
    57   34   35 2
    58   34   56 1
@<TRIPOS>MOLECULE
ZINC11616926
   57    59     0     0     0
SMALL
USER_CHARGES
(2R)-2-[[4-[(1R)-1-[(2,4-diaminopteridin-6-yl)methyl]but-3-ynyl]benzoyl]amino]pentanedioic acid
@<TRIPOS>ATOM
      1 C1          0.0180   -1.1779   -0.0044 C.1       1 <0>        -0.1833
      2 C2          0.0021   -0.0041    0.0020 C.1       1 <0>        -0.2028
      3 C3         -0.0179    1.4678    0.0101 C.3       1 <0>         0.0020
      4 C4         -0.7340    1.9612    1.2689 C.3       1 <0>        -0.0308
      5 H1         -1.7261    1.5128    1.3219 H         1 <0>         0.0870
      6 C5         -0.8651    3.4847    1.2171 C.3       1 <0>        -0.0755
      7 C6         -1.7620    3.8730    0.0700 C.ar      1 <0>         0.1127
      8 C7         -3.1450    3.8858    0.2487 C.ar      1 <0>         0.1714
      9 N1         -3.9484    4.2261   -0.7366 N.ar      1 <0>        -0.4439
     10 C8         -3.4327    4.5529   -1.9242 C.ar      1 <0>         0.3248
     11 C9         -2.0268    4.5330   -2.1018 C.ar      1 <0>        -0.0102
     12 N2         -1.2328    4.1914   -1.0921 N.ar      1 <0>        -0.3644
     13 C10        -1.4988    4.8978   -3.4176 C.ar      1 <0>         0.5809
     14 N3         -2.3700    5.2249   -4.3621 N.ar      1 <0>        -0.5782
     15 C11        -3.6780    5.2216   -4.1254 C.ar      1 <0>         0.7101
     16 N4         -4.5301    5.5726   -5.1550 N.pl3     1 <0>        -0.7815
     17 N5         -0.1437    4.9020   -3.6657 N.pl3     1 <0>        -0.7293
     18 C12         0.0613    1.5666    2.4866 C.ar      1 <0>        -0.0838
     19 C13         1.3612    2.0163    2.6357 C.ar      1 <0>        -0.1189
     20 C14         2.0931    1.6626    3.7504 C.ar      1 <0>        -0.0821
     21 C15         1.5230    0.8407    4.7238 C.ar      1 <0>        -0.0962
     22 C16         0.2130    0.3862    4.5647 C.ar      1 <0>        -0.0622
     23 C17        -0.5098    0.7515    3.4478 C.ar      1 <0>        -0.1173
     24 C18         2.3033    0.4535    5.9184 C.2       1 <0>         0.5465
     25 O1          1.8041   -0.2621    6.7647 O.2       1 <0>        -0.5462
     26 N6          3.5681    0.8940    6.0691 N.am      1 <0>        -0.6793
     27 C19         4.3412    0.5104    7.2528 C.3       1 <0>         0.0987
     28 H2          3.6776    0.4462    8.1151 H         1 <0>         0.0877
     29 C20         5.4222    1.5602    7.5182 C.3       1 <0>        -0.0871
     30 C21         4.7617    2.8920    7.8803 C.3       1 <0>        -0.1522
     31 C22         5.8264    3.9260    8.1417 C.2       1 <0>         0.4603
     32 O2          6.9937    3.6283    8.0480 O.co2     1 <0>        -0.6367
     33 C23         4.9894   -0.8295    7.0170 C.2       1 <0>         0.4646
     34 O3          4.8226   -1.4049    5.9677 O.co2     1 <0>        -0.6415
     35 H3          0.0322   -2.2278   -0.0102 H         1 <0>         0.2164
     36 H4          1.0047    1.8451    0.0024 H         1 <0>         0.0957
     37 H5         -0.5451    1.8289   -0.8729 H         1 <0>         0.0716
     38 H6         -1.2946    3.8445    2.1521 H         1 <0>         0.1156
     39 H7          0.1198    3.9294    1.0748 H         1 <0>         0.1107
     40 H8         -3.5615    3.6175    1.2083 H         1 <0>         0.2090
     41 H9         -5.4892    5.5791   -5.0100 H         1 <0>         0.4323
     42 H10        -4.1692    5.8126   -6.0228 H         1 <0>         0.4442
     43 H11         0.4789    4.6604   -2.9622 H         1 <0>         0.4460
     44 H12         0.1879    5.1466   -4.5438 H         1 <0>         0.4357
     45 H13         1.8026    2.6489    1.8797 H         1 <0>         0.1240
     46 H14         3.1064    2.0177    3.8676 H         1 <0>         0.1319
     47 H15        -0.2340   -0.2498    5.3144 H         1 <0>         0.1369
     48 H16        -1.5234    0.4002    3.3233 H         1 <0>         0.1222
     49 H17         3.9665    1.4651    5.3937 H         1 <0>         0.3906
     50 H18         6.0532    1.2313    8.3439 H         1 <0>         0.0869
     51 H19         6.0317    1.6882    6.6237 H         1 <0>         0.0575
     52 H20         4.1307    3.2209    7.0546 H         1 <0>         0.0554
     53 H21         4.1522    2.7640    8.7748 H         1 <0>         0.0612
     54 O4          5.4780    5.1777    8.4785 O.co2     1 <0>        -0.7901
     55 O5          5.7520   -1.3837    7.9725 O.co2     1 <0>        -0.7639
     56 N7         -4.2807    4.9032   -2.9522 N.ar      1 <0>        -0.5939
     57 H22        -5.2696    4.9102   -2.8042 H         1 <0>         0.4606
@<TRIPOS>BOND
     1    1    2 3
     2    1   35 1
     3    2    3 1
     4    3    4 1
     5    3   36 1
     6    3   37 1
     7    4    5 1
     8    4    6 1
     9    4   18 1
    10    6    7 1
    11    6   38 1
    12    6   39 1
    13    7   12 ar
    14    7    8 ar
    15    8    9 ar
    16    8   40 1
    17    9   10 ar
    18   10   11 ar
    19   10   56 ar
    20   11   12 ar
    21   11   13 ar
    22   13   14 ar
    23   13   17 1
    24   14   15 ar
    25   15   16 1
    26   15   56 ar
    27   16   41 1
    28   16   42 1
    29   17   43 1
    30   17   44 1
    31   18   23 ar
    32   18   19 ar
    33   19   20 ar
    34   19   45 1
    35   20   21 ar
    36   20   46 1
    37   21   22 ar
    38   21   24 1
    39   22   23 ar
    40   22   47 1
    41   23   48 1
    42   24   25 2
    43   24   26 am
    44   26   27 1
    45   26   49 1
    46   27   28 1
    47   27   29 1
    48   27   33 1
    49   29   30 1
    50   29   50 1
    51   29   51 1
    52   30   31 1
    53   30   52 1
    54   30   53 1
    55   31   32 2
    56   31   54 1
    57   33   34 2
    58   33   55 1
    59   56   57 1
@<TRIPOS>MOLECULE
ZINC11616926
   57    59     0     0     0
SMALL
USER_CHARGES
(2R)-2-[[4-[(1R)-1-[(2,4-diaminopteridin-6-yl)methyl]but-3-ynyl]benzoyl]amino]pentanedioic acid
@<TRIPOS>ATOM
      1 C1          0.0200   -1.1784   -0.0044 C.1       1 <0>        -0.1840
      2 C2          0.0036   -0.0046    0.0019 C.1       1 <0>        -0.2027
      3 C3         -0.0170    1.4672    0.0100 C.3       1 <0>         0.0031
      4 C4         -0.7334    1.9604    1.2687 C.3       1 <0>        -0.0317
      5 H1         -1.7254    1.5116    1.3216 H         1 <0>         0.0880
      6 C5         -0.8651    3.4838    1.2168 C.3       1 <0>        -0.0735
      7 C6         -1.7621    3.8717    0.0696 C.ar      1 <0>         0.1131
      8 C7         -3.1451    3.8840    0.2482 C.ar      1 <0>         0.1835
      9 N1         -3.9485    4.2236   -0.7374 N.ar      1 <0>        -0.4187
     10 C8         -3.4328    4.5509   -1.9248 C.ar      1 <0>         0.3419
     11 C9         -2.0269    4.5316   -2.1022 C.ar      1 <0>        -0.0528
     12 N2         -1.2329    4.1895   -1.0927 N.ar      1 <0>        -0.3770
     13 C10        -1.4988    4.8971   -3.4178 C.ar      1 <0>         0.5880
     14 N3         -2.3701    5.2233   -4.3626 N.ar      1 <0>        -0.5761
     15 C11        -3.6781    5.2198   -4.1259 C.ar      1 <0>         0.6123
     16 N4         -4.5302    5.5699   -5.1558 N.pl3     1 <0>        -0.7941
     17 N5         -0.1438    4.9009   -3.6660 N.pl3     1 <0>        -0.7436
     18 C12         0.0619    1.5661    2.4865 C.ar      1 <0>        -0.0827
     19 C13         1.3616    2.0164    2.6357 C.ar      1 <0>        -0.1194
     20 C14         2.0935    1.6630    3.7505 C.ar      1 <0>        -0.0826
     21 C15         1.5236    0.8409    4.7239 C.ar      1 <0>        -0.0969
     22 C16         0.2138    0.3859    4.5646 C.ar      1 <0>        -0.0619
     23 C17        -0.5090    0.7508    3.4477 C.ar      1 <0>        -0.1170
     24 C18         2.3039    0.4540    5.9186 C.2       1 <0>         0.5467
     25 O1          1.8049   -0.2617    6.7649 O.2       1 <0>        -0.5460
     26 N6          3.5685    0.8951    6.0694 N.am      1 <0>        -0.6796
     27 C19         4.3416    0.5118    7.2532 C.3       1 <0>         0.0987
     28 H2          3.6780    0.4474    8.1155 H         1 <0>         0.0878
     29 C20         5.4222    1.5620    7.5187 C.3       1 <0>        -0.0870
     30 C21         4.7611    2.8936    7.8807 C.3       1 <0>        -0.1522
     31 C22         5.8253    3.9280    8.1422 C.2       1 <0>         0.4603
     32 O2          6.9928    3.6308    8.0487 O.co2     1 <0>        -0.6370
     33 C23         4.9904   -0.8278    7.0176 C.2       1 <0>         0.4646
     34 O3          4.8240   -1.4033    5.9682 O.co2     1 <0>        -0.6417
     35 H3          0.0346   -2.2283   -0.0102 H         1 <0>         0.2162
     36 H4          1.0055    1.8450    0.0024 H         1 <0>         0.0941
     37 H5         -0.5442    1.8281   -0.8731 H         1 <0>         0.0715
     38 H6         -1.2949    3.8435    2.1518 H         1 <0>         0.1152
     39 H7          0.1196    3.9289    1.0746 H         1 <0>         0.1081
     40 H8         -3.5616    3.6155    1.2077 H         1 <0>         0.2071
     41 H9         -5.4894    5.5758   -5.0110 H         1 <0>         0.4470
     42 H10        -4.1693    5.8099   -6.0236 H         1 <0>         0.4232
     43 H11         0.4788    4.6593   -2.9625 H         1 <0>         0.4597
     44 H12         0.1878    5.1453   -4.5442 H         1 <0>         0.4332
     45 H13         1.8028    2.6491    1.8798 H         1 <0>         0.1232
     46 H14         3.1066    2.0185    3.8679 H         1 <0>         0.1313
     47 H15        -0.2330   -0.2503    5.3143 H         1 <0>         0.1369
     48 H16        -1.5224    0.3991    3.3230 H         1 <0>         0.1229
     49 H17         3.9668    1.4663    5.3941 H         1 <0>         0.3904
     50 H18         6.0532    1.2334    8.3445 H         1 <0>         0.0868
     51 H19         6.0317    1.6903    6.6243 H         1 <0>         0.0573
     52 H20         4.1301    3.2222    7.0549 H         1 <0>         0.0555
     53 H21         4.1515    2.7654    8.7752 H         1 <0>         0.0614
     54 O4          5.4764    5.1796    8.4790 O.co2     1 <0>        -0.7901
     55 O5          5.7531   -1.3817    7.9732 O.co2     1 <0>        -0.7640
     56 N7         -4.2808    4.9008   -2.9529 N.ar      1 <0>        -0.4684
     57 H22        -2.0263    5.4746   -5.2674 H         1 <0>         0.4516
@<TRIPOS>BOND
     1    1    2 3
     2    1   35 1
     3    2    3 1
     4    3    4 1
     5    3   36 1
     6    3   37 1
     7    4    5 1
     8    4    6 1
     9    4   18 1
    10    6    7 1
    11    6   38 1
    12    6   39 1
    13    7   12 ar
    14    7    8 ar
    15    8    9 ar
    16    8   40 1
    17    9   10 ar
    18   10   56 ar
    19   10   11 ar
    20   11   12 ar
    21   11   13 ar
    22   13   17 1
    23   13   14 ar
    24   14   57 1
    25   14   15 ar
    26   15   16 1
    27   15   56 ar
    28   16   41 1
    29   16   42 1
    30   17   43 1
    31   17   44 1
    32   18   23 ar
    33   18   19 ar
    34   19   20 ar
    35   19   45 1
    36   20   21 ar
    37   20   46 1
    38   21   22 ar
    39   21   24 1
    40   22   23 ar
    41   22   47 1
    42   23   48 1
    43   24   25 2
    44   24   26 am
    45   26   27 1
    46   26   49 1
    47   27   28 1
    48   27   29 1
    49   27   33 1
    50   29   30 1
    51   29   50 1
    52   29   51 1
    53   30   31 1
    54   30   52 1
    55   30   53 1
    56   31   32 2
    57   31   54 1
    58   33   34 2
    59   33   55 1
@<TRIPOS>MOLECULE
ZINC11616927
   56    58     0     0     0
SMALL
USER_CHARGES
(2R)-2-[[4-[(1S)-1-[(2,4-diaminopteridin-6-yl)methyl]but-3-ynyl]benzoyl]amino]pentanedioic acid
@<TRIPOS>ATOM
      1 C1         11.6217    7.5452   -1.2032 C.1       1 <0>        -0.2203
      2 C2         10.5068    7.2225   -1.0269 C.1       1 <0>        -0.1734
      3 C3          9.1088    6.8178   -0.8059 C.3       1 <0>        -0.0089
      4 C4          8.9155    5.3744   -1.2750 C.3       1 <0>        -0.0336
      5 H1          9.2434    5.2819   -2.3104 H         1 <0>         0.0839
      6 C5          9.7415    4.4363   -0.3927 C.3       1 <0>        -0.0542
      7 C6          9.6604    3.0335   -0.9372 C.ar      1 <0>         0.0459
      8 C7         10.5222    2.6390   -1.9601 C.ar      1 <0>         0.1382
      9 N1         10.4737    1.4177   -2.4484 N.ar      1 <0>        -0.4461
     10 C8          9.5812    0.5501   -1.9650 C.ar      1 <0>         0.3684
     11 C9          8.7041    0.9579   -0.9292 C.ar      1 <0>        -0.0821
     12 N2          8.7733    2.1943   -0.4464 N.ar      1 <0>        -0.3611
     13 C10         7.7398   -0.0214   -0.4248 C.ar      1 <0>         0.5473
     14 N3          7.7475   -1.2304   -0.9690 N.ar      1 <0>        -0.6320
     15 C11         8.5996   -1.5448   -1.9397 C.ar      1 <0>         0.6403
     16 N4          9.4869   -0.7020   -2.4296 N.ar      1 <0>        -0.6120
     17 N5          8.5531   -2.8231   -2.4624 N.pl3     1 <0>        -0.8114
     18 N6          6.8557    0.3018    0.5810 N.pl3     1 <0>        -0.7759
     19 C12         7.4580    5.0046   -1.1748 C.ar      1 <0>        -0.0678
     20 C13         6.7645    4.6235   -2.3097 C.ar      1 <0>        -0.1234
     21 C14         5.4301    4.2837   -2.2249 C.ar      1 <0>        -0.0642
     22 C15         4.7797    4.3255   -0.9906 C.ar      1 <0>        -0.1065
     23 C16         5.4836    4.7164    0.1494 C.ar      1 <0>        -0.0841
     24 C17         6.8192    5.0482    0.0517 C.ar      1 <0>        -0.1103
     25 C18         3.3496    3.9632   -0.8924 C.2       1 <0>         0.5506
     26 O1          2.7378    3.6280   -1.8878 O.2       1 <0>        -0.5503
     27 N7          2.7244    4.0046    0.3009 N.am      1 <0>        -0.6817
     28 C19         1.3075    3.6456    0.3983 C.3       1 <0>         0.0992
     29 H2          0.7878    3.9695   -0.5035 H         1 <0>         0.0854
     30 C20         0.6898    4.3331    1.6176 C.3       1 <0>        -0.0858
     31 C21         0.7101    5.8492    1.4130 C.3       1 <0>        -0.1529
     32 C22         0.1017    6.5264    2.6140 C.2       1 <0>         0.4613
     33 O2         -0.3063    5.8643    3.5387 O.co2     1 <0>        -0.6386
     34 C23         1.1767    2.1514    0.5442 C.2       1 <0>         0.4661
     35 O3          2.1657    1.4576    0.5647 O.co2     1 <0>        -0.6403
     36 H3         12.6188    7.8339   -1.3609 H         1 <0>         0.2139
     37 H4          8.4468    7.4749   -1.3698 H         1 <0>         0.0953
     38 H5          8.8735    6.8893    0.2560 H         1 <0>         0.0948
     39 H6         10.7810    4.7643   -0.3870 H         1 <0>         0.0880
     40 H7          9.3492    4.4547    0.6241 H         1 <0>         0.0913
     41 H8         11.2410    3.3426   -2.3532 H         1 <0>         0.1733
     42 H9          9.1635   -3.0797   -3.1713 H         1 <0>         0.4154
     43 H10         7.9100   -3.4638   -2.1206 H         1 <0>         0.4160
     44 H11         6.8650    1.1913    0.9677 H         1 <0>         0.4280
     45 H12         6.2238   -0.3602    0.9025 H         1 <0>         0.4210
     46 H13         7.2690    4.5915   -3.2641 H         1 <0>         0.1173
     47 H14         4.8901    3.9857   -3.1114 H         1 <0>         0.1302
     48 H15         4.9850    4.7551    1.1066 H         1 <0>         0.1284
     49 H16         7.3662    5.3465    0.9339 H         1 <0>         0.1250
     50 H17         3.2127    4.2721    1.0952 H         1 <0>         0.3907
     51 H18        -0.3396    3.9969    1.7416 H         1 <0>         0.0848
     52 H19         1.2647    4.0789    2.5081 H         1 <0>         0.0571
     53 H20         1.7395    6.1854    1.2890 H         1 <0>         0.0572
     54 H21         0.1351    6.1034    0.5225 H         1 <0>         0.0605
     55 O4          0.0130    7.8650    2.6565 O.co2     1 <0>        -0.7899
     56 O5         -0.0384    1.5913    0.6513 O.co2     1 <0>        -0.7678
@<TRIPOS>BOND
     1    1    2 3
     2    1   36 1
     3    2    3 1
     4    3    4 1
     5    3   37 1
     6    3   38 1
     7    4    5 1
     8    4    6 1
     9    4   19 1
    10    6    7 1
    11    6   39 1
    12    6   40 1
    13    7   12 ar
    14    7    8 ar
    15    8    9 ar
    16    8   41 1
    17    9   10 ar
    18   10   16 ar
    19   10   11 ar
    20   11   12 ar
    21   11   13 ar
    22   13   14 ar
    23   13   18 1
    24   14   15 ar
    25   15   16 ar
    26   15   17 1
    27   17   42 1
    28   17   43 1
    29   18   44 1
    30   18   45 1
    31   19   24 ar
    32   19   20 ar
    33   20   21 ar
    34   20   46 1
    35   21   22 ar
    36   21   47 1
    37   22   23 ar
    38   22   25 1
    39   23   24 ar
    40   23   48 1
    41   24   49 1
    42   25   26 2
    43   25   27 am
    44   27   28 1
    45   27   50 1
    46   28   29 1
    47   28   30 1
    48   28   34 1
    49   30   31 1
    50   30   51 1
    51   30   52 1
    52   31   32 1
    53   31   53 1
    54   31   54 1
    55   32   33 2
    56   32   55 1
    57   34   35 2
    58   34   56 1
@<TRIPOS>MOLECULE
ZINC11616927
   57    59     0     0     0
SMALL
USER_CHARGES
(2R)-2-[[4-[(1S)-1-[(2,4-diaminopteridin-6-yl)methyl]but-3-ynyl]benzoyl]amino]pentanedioic acid
@<TRIPOS>ATOM
      1 C1         11.6217    7.5452   -1.2032 C.1       1 <0>        -0.2066
      2 C2         10.5068    7.2225   -1.0269 C.1       1 <0>        -0.1860
      3 C3          9.1088    6.8178   -0.8059 C.3       1 <0>        -0.0077
      4 C4          8.9155    5.3744   -1.2750 C.3       1 <0>        -0.0317
      5 H1          9.2434    5.2819   -2.3104 H         1 <0>         0.0871
      6 C5          9.7415    4.4363   -0.3927 C.3       1 <0>        -0.0708
      7 C6          9.6604    3.0335   -0.9372 C.ar      1 <0>         0.1043
      8 C7         10.5222    2.6390   -1.9601 C.ar      1 <0>         0.1606
      9 N1         10.4737    1.4177   -2.4484 N.ar      1 <0>        -0.4468
     10 C8          9.5812    0.5501   -1.9650 C.ar      1 <0>         0.3272
     11 C9          8.7041    0.9579   -0.9292 C.ar      1 <0>        -0.0011
     12 N2          8.7733    2.1943   -0.4464 N.ar      1 <0>        -0.3497
     13 C10         7.7398   -0.0214   -0.4248 C.ar      1 <0>         0.5766
     14 N3          7.7475   -1.2304   -0.9690 N.ar      1 <0>        -0.5745
     15 C11         8.5996   -1.5448   -1.9397 C.ar      1 <0>         0.7099
     16 N4          8.5531   -2.8231   -2.4624 N.pl3     1 <0>        -0.7836
     17 N5          6.8557    0.3018    0.5810 N.pl3     1 <0>        -0.7090
     18 C12         7.4580    5.0046   -1.1748 C.ar      1 <0>        -0.0835
     19 C13         6.7645    4.6235   -2.3097 C.ar      1 <0>        -0.1263
     20 C14         5.4301    4.2837   -2.2249 C.ar      1 <0>        -0.0658
     21 C15         4.7797    4.3255   -0.9906 C.ar      1 <0>        -0.1002
     22 C16         5.4836    4.7164    0.1494 C.ar      1 <0>        -0.0843
     23 C17         6.8192    5.0482    0.0517 C.ar      1 <0>        -0.1105
     24 C18         3.3496    3.9632   -0.8924 C.2       1 <0>         0.5453
     25 O1          2.7378    3.6280   -1.8878 O.2       1 <0>        -0.5472
     26 N6          2.7244    4.0046    0.3009 N.am      1 <0>        -0.6782
     27 C19         1.3075    3.6456    0.3983 C.3       1 <0>         0.0981
     28 H2          0.7878    3.9695   -0.5035 H         1 <0>         0.0876
     29 C20         0.6898    4.3331    1.6176 C.3       1 <0>        -0.0870
     30 C21         0.7101    5.8492    1.4130 C.3       1 <0>        -0.1529
     31 C22         0.1017    6.5264    2.6140 C.2       1 <0>         0.4598
     32 O2         -0.3063    5.8643    3.5387 O.co2     1 <0>        -0.6375
     33 C23         1.1767    2.1514    0.5442 C.2       1 <0>         0.4689
     34 O3          2.1657    1.4576    0.5647 O.co2     1 <0>        -0.6500
     35 H3         12.6188    7.8339   -1.3609 H         1 <0>         0.2160
     36 H4          8.4468    7.4749   -1.3698 H         1 <0>         0.1002
     37 H5          8.8735    6.8893    0.2560 H         1 <0>         0.0977
     38 H6         10.7810    4.7643   -0.3870 H         1 <0>         0.1045
     39 H7          9.3492    4.4547    0.6241 H         1 <0>         0.1064
     40 H8         11.2410    3.3426   -2.3532 H         1 <0>         0.2011
     41 H9          9.1635   -3.0797   -3.1713 H         1 <0>         0.4297
     42 H10         7.9100   -3.4638   -2.1206 H         1 <0>         0.4449
     43 H11         6.8650    1.1913    0.9677 H         1 <0>         0.4465
     44 H12         6.2238   -0.3602    0.9025 H         1 <0>         0.4422
     45 H13         7.2690    4.5915   -3.2641 H         1 <0>         0.1183
     46 H14         4.8901    3.9857   -3.1114 H         1 <0>         0.1333
     47 H15         4.9850    4.7551    1.1066 H         1 <0>         0.1326
     48 H16         7.3662    5.3465    0.9339 H         1 <0>         0.1283
     49 H17         3.2127    4.2721    1.0952 H         1 <0>         0.3907
     50 H18        -0.3396    3.9969    1.7416 H         1 <0>         0.0871
     51 H19         1.2647    4.0789    2.5081 H         1 <0>         0.0575
     52 H20         1.7395    6.1854    1.2890 H         1 <0>         0.0554
     53 H21         0.1351    6.1034    0.5225 H         1 <0>         0.0612
     54 O4          0.0130    7.8650    2.6565 O.co2     1 <0>        -0.7867
     55 O5         -0.0384    1.5913    0.6513 O.co2     1 <0>        -0.7599
     56 N7          9.5332   -0.7251   -2.4850 N.ar      1 <0>        -0.5990
     57 H22        10.1620   -0.9910   -3.2157 H         1 <0>         0.4574
@<TRIPOS>BOND
     1    1    2 3
     2    1   35 1
     3    2    3 1
     4    3    4 1
     5    3   36 1
     6    3   37 1
     7    4    5 1
     8    4    6 1
     9    4   18 1
    10    6    7 1
    11    6   38 1
    12    6   39 1
    13    7   12 ar
    14    7    8 ar
    15    8    9 ar
    16    8   40 1
    17    9   10 ar
    18   10   11 ar
    19   10   56 ar
    20   11   12 ar
    21   11   13 ar
    22   13   14 ar
    23   13   17 1
    24   14   15 ar
    25   15   16 1
    26   15   56 ar
    27   16   41 1
    28   16   42 1
    29   17   43 1
    30   17   44 1
    31   18   23 ar
    32   18   19 ar
    33   19   20 ar
    34   19   45 1
    35   20   21 ar
    36   20   46 1
    37   21   22 ar
    38   21   24 1
    39   22   23 ar
    40   22   47 1
    41   23   48 1
    42   24   25 2
    43   24   26 am
    44   26   27 1
    45   26   49 1
    46   27   28 1
    47   27   29 1
    48   27   33 1
    49   29   30 1
    50   29   50 1
    51   29   51 1
    52   30   31 1
    53   30   52 1
    54   30   53 1
    55   31   32 2
    56   31   54 1
    57   33   34 2
    58   33   55 1
    59   56   57 1
@<TRIPOS>MOLECULE
ZINC11616927
   57    59     0     0     0
SMALL
USER_CHARGES
(2R)-2-[[4-[(1S)-1-[(2,4-diaminopteridin-6-yl)methyl]but-3-ynyl]benzoyl]amino]pentanedioic acid
@<TRIPOS>ATOM
      1 C1         11.6207    7.5457   -1.2040 C.1       1 <0>        -0.2055
      2 C2         10.5059    7.2230   -1.0273 C.1       1 <0>        -0.1866
      3 C3          9.1080    6.8183   -0.8057 C.3       1 <0>        -0.0071
      4 C4          8.9144    5.3750   -1.2751 C.3       1 <0>        -0.0335
      5 H1          9.2417    5.2828   -2.3107 H         1 <0>         0.0882
      6 C5          9.7408    4.4366   -0.3935 C.3       1 <0>        -0.0681
      7 C6          9.6593    3.0340   -0.9383 C.ar      1 <0>         0.1002
      8 C7         10.5206    2.6397   -1.9618 C.ar      1 <0>         0.1728
      9 N1         10.4715    1.4187   -2.4507 N.ar      1 <0>        -0.4216
     10 C8          9.5794    0.5509   -1.9668 C.ar      1 <0>         0.3432
     11 C9          8.7029    0.9584   -0.9304 C.ar      1 <0>        -0.0475
     12 N2          8.7716    2.1951   -0.4481 N.ar      1 <0>        -0.3596
     13 C10         7.7392   -0.0211   -0.4254 C.ar      1 <0>         0.5884
     14 N3          7.7462   -1.2298   -0.9704 N.ar      1 <0>        -0.5798
     15 C11         8.5980   -1.5441   -1.9413 C.ar      1 <0>         0.6200
     16 N4          8.5507   -2.8220   -2.4648 N.pl3     1 <0>        -0.7937
     17 N5          6.8549    0.3022    0.5802 N.pl3     1 <0>        -0.7237
     18 C12         7.4569    5.0053   -1.1742 C.ar      1 <0>        -0.0788
     19 C13         6.7628    4.6245   -2.3089 C.ar      1 <0>        -0.1250
     20 C14         5.4284    4.2848   -2.2235 C.ar      1 <0>        -0.0662
     21 C15         4.7786    4.3263   -0.9889 C.ar      1 <0>        -0.1038
     22 C16         5.4832    4.7168    0.1509 C.ar      1 <0>        -0.0861
     23 C17         6.8187    5.0486    0.0526 C.ar      1 <0>        -0.1109
     24 C18         3.3486    3.9640   -0.8900 C.2       1 <0>         0.5454
     25 O1          2.7363    3.6291   -1.8852 O.2       1 <0>        -0.5474
     26 N6          2.7240    4.0051    0.3036 N.am      1 <0>        -0.6791
     27 C19         1.3071    3.6462    0.4016 C.3       1 <0>         0.0981
     28 H2          0.7870    3.9703   -0.4998 H         1 <0>         0.0880
     29 C20         0.6901    4.3333    1.6214 C.3       1 <0>        -0.0869
     30 C21         0.7104    5.8495    1.4173 C.3       1 <0>        -0.1532
     31 C22         0.1026    6.5264    2.6188 C.2       1 <0>         0.4598
     32 O2         -0.3050    5.8640    3.5435 O.co2     1 <0>        -0.6380
     33 C23         1.1763    2.1519    0.5472 C.2       1 <0>         0.4706
     34 O3          2.1653    1.4581    0.5670 O.co2     1 <0>        -0.6548
     35 H3         12.6177    7.8344   -1.3622 H         1 <0>         0.2161
     36 H4          8.4457    7.4756   -1.3690 H         1 <0>         0.0993
     37 H5          8.8732    6.8895    0.2564 H         1 <0>         0.0966
     38 H6         10.7803    4.7646   -0.3882 H         1 <0>         0.1038
     39 H7          9.3490    4.4548    0.6235 H         1 <0>         0.1035
     40 H8         11.2392    3.3434   -2.3550 H         1 <0>         0.1985
     41 H9          9.1605   -3.0784   -3.1743 H         1 <0>         0.4450
     42 H10         7.9076   -3.4627   -2.1230 H         1 <0>         0.4243
     43 H11         6.8642    1.1917    0.9668 H         1 <0>         0.4603
     44 H12         6.2228   -0.3597    0.9015 H         1 <0>         0.4399
     45 H13         7.2668    4.5928   -3.2636 H         1 <0>         0.1199
     46 H14         4.8879    3.9871   -3.1098 H         1 <0>         0.1330
     47 H15         4.9850    4.7553    1.1084 H         1 <0>         0.1314
     48 H16         7.3662    5.3466    0.9346 H         1 <0>         0.1282
     49 H17         3.2127    4.2724    1.0977 H         1 <0>         0.3907
     50 H18        -0.3393    3.9972    1.7459 H         1 <0>         0.0871
     51 H19         1.2654    4.0789    2.5116 H         1 <0>         0.0571
     52 H20         1.7397    6.1857    1.2928 H         1 <0>         0.0556
     53 H21         0.1349    6.1040    0.5271 H         1 <0>         0.0615
     54 O4          0.0140    7.8650    2.6617 O.co2     1 <0>        -0.7857
     55 O5         -0.0388    1.5919    0.6547 O.co2     1 <0>        -0.7585
     56 N7          9.5312   -0.7241   -2.4871 N.ar      1 <0>        -0.4796
     57 H22         7.0936   -1.9107   -0.6380 H         1 <0>         0.4545
@<TRIPOS>BOND
     1    1    2 3
     2    1   35 1
     3    2    3 1
     4    3    4 1
     5    3   36 1
     6    3   37 1
     7    4    5 1
     8    4    6 1
     9    4   18 1
    10    6    7 1
    11    6   38 1
    12    6   39 1
    13    7   12 ar
    14    7    8 ar
    15    8    9 ar
    16    8   40 1
    17    9   10 ar
    18   10   56 ar
    19   10   11 ar
    20   11   12 ar
    21   11   13 ar
    22   13   17 1
    23   13   14 ar
    24   14   57 1
    25   14   15 ar
    26   15   16 1
    27   15   56 ar
    28   16   41 1
    29   16   42 1
    30   17   43 1
    31   17   44 1
    32   18   23 ar
    33   18   19 ar
    34   19   20 ar
    35   19   45 1
    36   20   21 ar
    37   20   46 1
    38   21   22 ar
    39   21   24 1
    40   22   23 ar
    41   22   47 1
    42   23   48 1
    43   24   25 2
    44   24   26 am
    45   26   27 1
    46   26   49 1
    47   27   28 1
    48   27   29 1
    49   27   33 1
    50   29   30 1
    51   29   50 1
    52   29   51 1
    53   30   31 1
    54   30   52 1
    55   30   53 1
    56   31   32 2
    57   31   54 1
    58   33   34 2
    59   33   55 1
@<TRIPOS>MOLECULE
ZINC02036915
   50    52     0     0     0
SMALL
USER_CHARGES

@<TRIPOS>ATOM
      1 C1         -0.0169    1.3937    0.0097 C.ar      1 <0>        -0.0179
      2 C2          1.1662    2.0965    0.0022 C.ar      1 <0>        -0.2028
      3 C3          2.3811    1.4169   -0.0131 C.ar      1 <0>         0.2226
      4 C4          2.4034    0.0249   -0.0208 C.ar      1 <0>        -0.2020
      5 C5          1.2237   -0.6836   -0.0138 C.ar      1 <0>        -0.0370
      6 C6          0.0021   -0.0041    0.0020 C.ar      1 <0>        -0.1610
      7 C7         -1.2644   -0.7605    0.0105 C.2       1 <0>         0.5557
      8 O1         -2.3263   -0.1682    0.0243 O.2       1 <0>        -0.5615
      9 N1         -1.2445   -2.1081    0.0031 N.am      1 <0>        -0.6792
     10 C8         -2.5022   -2.8593    0.0116 C.3       1 <0>         0.0733
     11 H1         -3.2516   -2.3197   -0.5676 H         1 <0>         0.0770
     12 C9         -2.2758   -4.2399   -0.6078 C.3       1 <0>        -0.0802
     13 C10        -1.9084   -4.0824   -2.0846 C.3       1 <0>        -0.1775
     14 C11        -1.6854   -5.4422   -2.6946 C.2       1 <0>         0.4908
     15 O2         -1.8089   -6.4445   -2.0115 O.co2     1 <0>        -0.6973
     16 O3         -1.3815   -5.5401   -3.8713 O.co2     1 <0>        -0.7210
     17 C12        -2.9829   -3.0182    1.4310 C.2       1 <0>         0.4954
     18 O4         -2.3350   -2.5475    2.3503 O.co2     1 <0>        -0.6969
     19 O5         -4.0198   -3.6173    1.6600 O.co2     1 <0>        -0.7016
     20 N2          3.5749    2.1299   -0.0211 N.pl3     1 <0>        -0.7422
     21 C13         4.8542    1.4162   -0.0371 C.3       1 <0>         0.1860
     22 C14         5.9850    2.4124   -0.0431 C.ar      1 <0>         0.0323
     23 C15         6.5885    2.7791    1.1594 C.ar      1 <0>         0.1582
     24 N3          7.5780    3.6467    1.1795 N.ar      1 <0>        -0.4425
     25 C16         8.0084    4.1816    0.0342 C.ar      1 <0>         0.3749
     26 C17         7.3916    3.8053   -1.1850 C.ar      1 <0>        -0.0916
     27 N4          6.3970    2.9236   -1.1837 N.ar      1 <0>        -0.3629
     28 C18         7.8914    4.4127   -2.4198 C.ar      1 <0>         0.5463
     29 N5          8.8911    5.2778   -2.3202 N.ar      1 <0>        -0.6312
     30 C19         9.4230    5.5849   -1.1413 C.ar      1 <0>         0.6396
     31 N6          9.0113    5.0678   -0.0009 N.ar      1 <0>        -0.6033
     32 N7         10.4628    6.4946   -1.1097 N.pl3     1 <0>        -0.8091
     33 N8          7.3422    4.0958   -3.6429 N.pl3     1 <0>        -0.7890
     34 H2         -0.9590    1.9215    0.0260 H         1 <0>         0.1328
     35 H3          1.1522    3.1764    0.0078 H         1 <0>         0.1188
     36 H4          3.3474   -0.4995   -0.0326 H         1 <0>         0.1232
     37 H5          1.2416   -1.7634   -0.0204 H         1 <0>         0.1282
     38 H6         -0.3974   -2.5806   -0.0078 H         1 <0>         0.3880
     39 H7         -1.4645   -4.7448   -0.0833 H         1 <0>         0.0545
     40 H8         -3.1876   -4.8309   -0.5212 H         1 <0>         0.0781
     41 H9         -2.7197   -3.5775   -2.6090 H         1 <0>         0.0519
     42 H10        -0.9966   -3.4914   -2.1711 H         1 <0>         0.0505
     43 H11         3.5606    3.0997   -0.0161 H         1 <0>         0.3970
     44 H12         4.9299    0.7860    0.8490 H         1 <0>         0.0856
     45 H13         4.9126    0.7950   -0.9309 H         1 <0>         0.0832
     46 H14         6.2395    2.3463    2.0853 H         1 <0>         0.1850
     47 H15        10.7858    6.8907   -1.9341 H         1 <0>         0.4158
     48 H16        10.8696    6.7369   -0.2632 H         1 <0>         0.4186
     49 H17         6.6114    3.4603   -3.6964 H         1 <0>         0.4286
     50 H18         7.6864    4.5083   -4.4505 H         1 <0>         0.4158
@<TRIPOS>BOND
     1    1    6 ar
     2    1    2 ar
     3    1   34 1
     4    2    3 ar
     5    2   35 1
     6    3    4 ar
     7    3   20 1
     8    4    5 ar
     9    4   36 1
    10    5    6 ar
    11    5   37 1
    12    6    7 1
    13    7    8 2
    14    7    9 am
    15    9   10 1
    16    9   38 1
    17   10   11 1
    18   10   12 1
    19   10   17 1
    20   12   13 1
    21   12   39 1
    22   12   40 1
    23   13   14 1
    24   13   41 1
    25   13   42 1
    26   14   15 2
    27   14   16 1
    28   17   18 2
    29   17   19 1
    30   20   21 1
    31   20   43 1
    32   21   22 1
    33   21   44 1
    34   21   45 1
    35   22   27 ar
    36   22   23 ar
    37   23   24 ar
    38   23   46 1
    39   24   25 ar
    40   25   31 ar
    41   25   26 ar
    42   26   27 ar
    43   26   28 ar
    44   28   29 ar
    45   28   33 1
    46   29   30 ar
    47   30   31 ar
    48   30   32 1
    49   32   47 1
    50   32   48 1
    51   33   49 1
    52   33   50 1
@<TRIPOS>MOLECULE
ZINC29348254
   58    60     0     0     0
SMALL
USER_CHARGES

@<TRIPOS>ATOM
      1 C1         -1.2540    1.2726    1.9728 C.ar      1 <0>        -0.1278
      2 C2         -0.1902    2.0888    2.2975 C.ar      1 <0>        -0.0639
      3 C3          1.1143    1.6023    2.1983 C.ar      1 <0>        -0.1034
      4 C4          1.3333    0.2918    1.7708 C.ar      1 <0>        -0.0822
      5 C5          0.2606   -0.5139    1.4492 C.ar      1 <0>        -0.1234
      6 C6         -1.0300   -0.0255    1.5497 C.ar      1 <0>        -0.0870
      7 C7         -2.1969   -0.9114    1.1967 C.3       1 <0>        -0.0745
      8 C8         -2.5253   -0.7543   -0.2893 C.3       1 <0>        -0.1190
      9 C9         -3.7100   -1.6537   -0.6477 C.3       1 <0>        -0.1161
     10 C10        -3.9836   -1.5622   -2.1502 C.3       1 <0>        -0.0399
     11 H1         -3.0711   -1.7587   -2.7130 H         1 <0>         0.1099
     12 C11        -4.5452   -0.1692   -2.5090 C.3       1 <0>        -0.1118
     13 C12        -5.5394   -0.4955   -3.6444 C.3       1 <0>        -0.0883
     14 C13        -5.9599   -1.9278   -3.4030 C.ar      1 <0>         0.2137
     15 C14        -5.0651   -2.5398   -2.5468 C.ar      1 <0>        -0.2340
     16 C15        -5.2758   -3.8750   -2.1971 C.ar      1 <0>         0.5428
     17 N1         -6.3279   -4.5142   -2.6990 N.ar      1 <0>        -0.5714
     18 C16        -7.1640   -3.8947   -3.5183 C.ar      1 <0>         0.6630
     19 N2         -6.9899   -2.6239   -3.8654 N.ar      1 <0>        -0.5617
     20 N3         -8.2497   -4.5879   -4.0242 N.pl3     1 <0>        -0.7959
     21 N4         -4.4017   -4.5239   -1.3404 N.pl3     1 <0>        -0.7809
     22 C17         2.2591    2.4715    2.5442 C.2       1 <0>         0.5391
     23 O1          2.0654    3.6125    2.9158 O.2       1 <0>        -0.5505
     24 N5          3.5176    1.9988    2.4474 N.am      1 <0>        -0.6726
     25 C18         4.6520    2.8601    2.7901 C.3       1 <0>         0.0727
     26 H2          4.3750    3.5139    3.6170 H         1 <0>         0.0791
     27 C19         5.8439    1.9938    3.2020 C.3       1 <0>        -0.0830
     28 C20         5.5053    1.2393    4.4892 C.3       1 <0>        -0.1770
     29 C21         6.6793    0.3860    4.8949 C.2       1 <0>         0.4905
     30 O2          7.6929    0.3818    4.2174 O.co2     1 <0>        -0.6963
     31 O3          6.6155   -0.3001    5.9008 O.co2     1 <0>        -0.7187
     32 C22         5.0279    3.6955    1.5935 C.2       1 <0>         0.4986
     33 O4          5.5163    4.8014    1.7512 O.co2     1 <0>        -0.6975
     34 O5          4.8436    3.2655    0.4676 O.co2     1 <0>        -0.7006
     35 H3         -2.2641    1.6463    2.0533 H         1 <0>         0.1205
     36 H4         -0.3664    3.1020    2.6273 H         1 <0>         0.1350
     37 H5          2.3402   -0.0905    1.6916 H         1 <0>         0.1311
     38 H6          0.4287   -1.5281    1.1183 H         1 <0>         0.1222
     39 H7         -1.9403   -1.9502    1.4043 H         1 <0>         0.0701
     40 H8         -3.0636   -0.6252    1.7926 H         1 <0>         0.0702
     41 H9         -2.7819    0.2845   -0.4969 H         1 <0>         0.0741
     42 H10        -1.6586   -1.0405   -0.8852 H         1 <0>         0.0730
     43 H11        -3.4764   -2.6849   -0.3830 H         1 <0>         0.0613
     44 H12        -4.5928   -1.3283   -0.0972 H         1 <0>         0.0742
     45 H13        -5.0618    0.2717   -1.6564 H         1 <0>         0.0948
     46 H14        -3.7522    0.4883   -2.8653 H         1 <0>         0.1094
     47 H15        -6.4038    0.1664   -3.5920 H         1 <0>         0.1101
     48 H16        -5.0497   -0.4033   -4.6139 H         1 <0>         0.1236
     49 H17        -8.3906   -5.5154   -3.7777 H         1 <0>         0.4439
     50 H18        -8.8698   -4.1463   -4.6253 H         1 <0>         0.4285
     51 H19        -3.5345   -4.1349   -1.1463 H         1 <0>         0.4341
     52 H20        -4.6567   -5.3673   -0.9347 H         1 <0>         0.4257
     53 H21         3.6721    1.0883    2.1508 H         1 <0>         0.3909
     54 H22         6.0648    1.2791    2.4093 H         1 <0>         0.0603
     55 H23         6.7134    2.6290    3.3712 H         1 <0>         0.0744
     56 H24         5.2844    1.9540    5.2819 H         1 <0>         0.0533
     57 H25         4.6357    0.6041    4.3200 H         1 <0>         0.0494
     58 H26        -7.6212   -2.2003   -4.4678 H         1 <0>         0.4381
@<TRIPOS>BOND
     1    1    6 ar
     2    1    2 ar
     3    1   35 1
     4    2    3 ar
     5    2   36 1
     6    3    4 ar
     7    3   22 1
     8    4    5 ar
     9    4   37 1
    10    5    6 ar
    11    5   38 1
    12    6    7 1
    13    7    8 1
    14    7   39 1
    15    7   40 1
    16    8    9 1
    17    8   41 1
    18    8   42 1
    19    9   10 1
    20    9   43 1
    21    9   44 1
    22   10   11 1
    23   10   15 1
    24   10   12 1
    25   12   13 1
    26   12   45 1
    27   12   46 1
    28   13   14 1
    29   13   47 1
    30   13   48 1
    31   14   19 ar
    32   14   15 ar
    33   15   16 ar
    34   16   17 ar
    35   16   21 1
    36   17   18 ar
    37   18   19 ar
    38   18   20 1
    39   19   58 1
    40   20   49 1
    41   20   50 1
    42   21   51 1
    43   21   52 1
    44   22   23 2
    45   22   24 am
    46   24   25 1
    47   24   53 1
    48   25   26 1
    49   25   27 1
    50   25   32 1
    51   27   28 1
    52   27   54 1
    53   27   55 1
    54   28   29 1
    55   28   56 1
    56   28   57 1
    57   29   30 2
    58   29   31 1
    59   32   33 2
    60   32   34 1
@<TRIPOS>MOLECULE
ZINC40665067
   58    60     0     0     0
SMALL
USER_CHARGES

@<TRIPOS>ATOM
      1 C1          0.3329    0.3054    0.7418 C.ar      1 <0>        -0.1282
      2 C2          1.6370    0.7332    0.8816 C.ar      1 <0>        -0.0641
      3 C3          2.6621   -0.2015    1.0361 C.ar      1 <0>        -0.1035
      4 C4          2.3598   -1.5641    1.0479 C.ar      1 <0>        -0.0821
      5 C5          1.0515   -1.9785    0.9070 C.ar      1 <0>        -0.1230
      6 C6          0.0401   -1.0468    0.7543 C.ar      1 <0>        -0.0870
      7 C7         -1.3867   -1.5068    0.6010 C.3       1 <0>        -0.0745
      8 C8         -1.6996   -1.7126   -0.8824 C.3       1 <0>        -0.1189
      9 C9         -3.1483   -2.1796   -1.0381 C.3       1 <0>        -0.1161
     10 C10        -3.4933   -2.2845   -2.5250 C.3       1 <0>        -0.0393
     11 H1         -3.2739   -1.3443   -3.0309 H         1 <0>         0.1089
     12 C11        -2.7055   -3.4411   -3.1778 C.3       1 <0>        -0.1124
     13 C12        -3.7118   -3.9822   -4.2164 C.3       1 <0>        -0.0888
     14 C13        -5.0756   -3.6235   -3.6705 C.ar      1 <0>         0.2149
     15 C14        -4.9493   -2.6475   -2.7011 C.ar      1 <0>        -0.2345
     16 C15        -6.1014   -2.1738   -2.0705 C.ar      1 <0>         0.5429
     17 N1         -7.2812   -2.6751   -2.4230 N.ar      1 <0>        -0.5715
     18 C16        -7.3634   -3.6095   -3.3580 C.ar      1 <0>         0.6629
     19 N2         -6.2835   -4.0809   -3.9723 N.ar      1 <0>        -0.5613
     20 N3         -8.6064   -4.1114   -3.7020 N.pl3     1 <0>        -0.7958
     21 N4         -6.0164   -1.1968   -1.0921 N.pl3     1 <0>        -0.7823
     22 C17         4.0620    0.2498    1.1860 C.2       1 <0>         0.5391
     23 O1          4.3223    1.4371    1.1750 O.2       1 <0>        -0.5506
     24 N5          5.0495   -0.6553    1.3350 N.am      1 <0>        -0.6725
     25 C18         6.4366   -0.2081    1.4836 C.3       1 <0>         0.0727
     26 H2          6.4593    0.7246    2.0473 H         1 <0>         0.0791
     27 C19         7.2392   -1.2752    2.2306 C.3       1 <0>        -0.0830
     28 C20         6.7028   -1.4113    3.6570 C.3       1 <0>        -0.1770
     29 C21         7.4933   -2.4623    4.3928 C.2       1 <0>         0.4904
     30 O2          8.4016   -3.0482    3.8286 O.co2     1 <0>        -0.6964
     31 O3          7.2247   -2.7268    5.5523 O.co2     1 <0>        -0.7186
     32 C22         7.0416    0.0135    0.1213 C.2       1 <0>         0.4986
     33 O4          7.9121    0.8538   -0.0298 O.co2     1 <0>        -0.6976
     34 O5          6.6607   -0.6474   -0.8298 O.co2     1 <0>        -0.7005
     35 H3         -0.4617    1.0277    0.6266 H         1 <0>         0.1201
     36 H4          1.8643    1.7889    0.8713 H         1 <0>         0.1349
     37 H5          3.1484   -2.2924    1.1667 H         1 <0>         0.1312
     38 H6          0.8163   -3.0325    0.9160 H         1 <0>         0.1225
     39 H7         -1.5248   -2.4468    1.1353 H         1 <0>         0.0714
     40 H8         -2.0578   -0.7529    1.0127 H         1 <0>         0.0689
     41 H9         -1.5615   -0.7726   -1.4167 H         1 <0>         0.0718
     42 H10        -1.0286   -2.4665   -1.2941 H         1 <0>         0.0752
     43 H11        -3.2679   -3.1556   -0.5676 H         1 <0>         0.0747
     44 H12        -3.8148   -1.4617   -0.5602 H         1 <0>         0.0609
     45 H13        -1.8056   -3.0690   -3.6675 H         1 <0>         0.1098
     46 H14        -2.4592   -4.2062   -2.4416 H         1 <0>         0.0958
     47 H15        -3.5530   -3.5027   -5.1823 H         1 <0>         0.1237
     48 H16        -3.6142   -5.0638   -4.3096 H         1 <0>         0.1110
     49 H17        -9.4031   -3.7787   -3.2600 H         1 <0>         0.4438
     50 H18        -8.6809   -4.7960   -4.3852 H         1 <0>         0.4287
     51 H19        -5.2022   -0.6789   -0.9933 H         1 <0>         0.4336
     52 H20        -6.7711   -1.0306   -0.5059 H         1 <0>         0.4253
     53 H21         4.8417   -1.6027    1.3438 H         1 <0>         0.3910
     54 H22         7.1434   -2.2300    1.7138 H         1 <0>         0.0603
     55 H23         8.2890   -0.9836    2.2635 H         1 <0>         0.0744
     56 H24         6.7986   -0.4564    4.1739 H         1 <0>         0.0533
     57 H25         5.6531   -1.7029    3.6242 H         1 <0>         0.0494
     58 H26        -6.3791   -4.7654   -4.6529 H         1 <0>         0.4384
@<TRIPOS>BOND
     1    1    6 ar
     2    1    2 ar
     3    1   35 1
     4    2    3 ar
     5    2   36 1
     6    3    4 ar
     7    3   22 1
     8    4    5 ar
     9    4   37 1
    10    5    6 ar
    11    5   38 1
    12    6    7 1
    13    7    8 1
    14    7   39 1
    15    7   40 1
    16    8    9 1
    17    8   41 1
    18    8   42 1
    19    9   10 1
    20    9   43 1
    21    9   44 1
    22   10   11 1
    23   10   15 1
    24   10   12 1
    25   12   13 1
    26   12   45 1
    27   12   46 1
    28   13   14 1
    29   13   47 1
    30   13   48 1
    31   14   19 ar
    32   14   15 ar
    33   15   16 ar
    34   16   17 ar
    35   16   21 1
    36   17   18 ar
    37   18   19 ar
    38   18   20 1
    39   19   58 1
    40   20   49 1
    41   20   50 1
    42   21   51 1
    43   21   52 1
    44   22   23 2
    45   22   24 am
    46   24   25 1
    47   24   53 1
    48   25   26 1
    49   25   27 1
    50   25   32 1
    51   27   28 1
    52   27   54 1
    53   27   55 1
    54   28   29 1
    55   28   56 1
    56   28   57 1
    57   29   30 2
    58   29   31 1
    59   32   33 2
    60   32   34 1
@<TRIPOS>MOLECULE
ZINC13284373
   60    62     0     0     0
SMALL
USER_CHARGES
(2S)-6-amino-2-[[4-[(2,4-diaminopteridin-6-yl)methyl-methyl-amino]benzoyl]amino]hexanoic acid
@<TRIPOS>ATOM
      1 C1         -2.2604   10.1164    3.0260 C.3       1 <0>         0.0867
      2 N1         -1.2505    9.3587    2.2829 N.pl3     1 <0>        -0.6209
      3 C2         -0.1565   10.0619    1.6085 C.3       1 <0>         0.1802
      4 C3         -0.5716   10.4039    0.2007 C.ar      1 <0>         0.0243
      5 C4         -1.1081   11.6612   -0.0748 C.ar      1 <0>         0.1517
      6 N2         -1.4774   11.9831   -1.2963 N.ar      1 <0>        -0.4404
      7 C5         -1.3361   11.0945   -2.2829 C.ar      1 <0>         0.3733
      8 C6         -0.7903    9.8181   -1.9974 C.ar      1 <0>        -0.0893
      9 N3         -0.4190    9.5149   -0.7577 N.ar      1 <0>        -0.3619
     10 C7         -0.6511    8.8710   -3.1050 C.ar      1 <0>         0.5451
     11 N4         -1.0452    9.2667   -4.3074 N.ar      1 <0>        -0.6301
     12 C8         -1.5496   10.4809   -4.5034 C.ar      1 <0>         0.6390
     13 N5         -1.6961   11.3712   -3.5424 N.ar      1 <0>        -0.6002
     14 N6         -1.9406   10.8283   -5.7824 N.pl3     1 <0>        -0.8076
     15 N7         -0.1291    7.6119   -2.9046 N.pl3     1 <0>        -0.7936
     16 C9         -1.3304    7.9720    2.2177 C.ar      1 <0>         0.2327
     17 C10        -2.3706    7.3052    2.8591 C.ar      1 <0>        -0.2022
     18 C11        -2.4524    5.9330    2.7964 C.ar      1 <0>        -0.0151
     19 C12        -1.4893    5.2085    2.0881 C.ar      1 <0>        -0.1787
     20 C13        -0.4425    5.8805    1.4503 C.ar      1 <0>        -0.0437
     21 C14        -0.3697    7.2534    1.5115 C.ar      1 <0>        -0.1928
     22 C15        -1.5740    3.7373    2.0189 C.2       1 <0>         0.5633
     23 O1         -2.4823    3.1536    2.5783 O.2       1 <0>        -0.5431
     24 N8         -0.6447    3.0402    1.3356 N.am      1 <0>        -0.7022
     25 C16        -0.7288    1.5792    1.2668 C.3       1 <0>         0.1019
     26 H1         -1.7755    1.2768    1.2315 H         1 <0>         0.0898
     27 C17        -0.0127    1.0858    0.0080 C.3       1 <0>        -0.1079
     28 C18        -0.7527    1.5927   -1.2315 C.3       1 <0>        -0.1175
     29 C19        -0.0366    1.0992   -2.4903 C.3       1 <0>        -0.1526
     30 C20        -0.7766    1.6061   -3.7298 C.3       1 <0>        -0.0059
     31 C21        -0.0738    0.9805    2.4848 C.2       1 <0>         0.4531
     32 O2          0.4134    1.7002    3.3241 O.co2     1 <0>        -0.6201
     33 H2         -1.9394   10.2314    4.0613 H         1 <0>         0.0578
     34 H3         -2.3834   11.0999    2.5724 H         1 <0>         0.0673
     35 H4         -3.2098    9.5817    2.9973 H         1 <0>         0.0716
     36 H5          0.0758   10.9780    2.1515 H         1 <0>         0.1021
     37 H6          0.7252    9.4217    1.5820 H         1 <0>         0.1001
     38 H7         -1.2223   12.3792    0.7238 H         1 <0>         0.1788
     39 H8         -2.3117   11.7080   -5.9540 H         1 <0>         0.4205
     40 H9         -1.8441   10.1926   -6.5086 H         1 <0>         0.4159
     41 H10        -0.0447    6.9975   -3.6505 H         1 <0>         0.4108
     42 H11         0.1540    7.3398   -2.0177 H         1 <0>         0.4269
     43 H12        -3.1144    7.8655    3.4062 H         1 <0>         0.1270
     44 H13        -3.2600    5.4163    3.2936 H         1 <0>         0.1334
     45 H14         0.3056    5.3233    0.9060 H         1 <0>         0.1193
     46 H15         0.4361    7.7735    1.0149 H         1 <0>         0.1303
     47 H16         0.0799    3.5058    0.8893 H         1 <0>         0.3868
     48 H17         0.0021   -0.0041    0.0020 H         1 <0>         0.0901
     49 H18         1.0099    1.4631    0.0003 H         1 <0>         0.0640
     50 H19        -1.7753    1.2154   -1.2238 H         1 <0>         0.0739
     51 H20        -0.7675    2.6825   -1.2255 H         1 <0>         0.0709
     52 H21         0.9860    1.4765   -2.4981 H         1 <0>         0.0867
     53 H22        -0.0218    0.0093   -2.4963 H         1 <0>         0.0891
     54 H23        -1.7991    1.2288   -3.7221 H         1 <0>         0.1313
     55 H24        -0.7913    2.6960   -3.7239 H         1 <0>         0.1325
     56 H25        -0.5588    1.4541   -5.7714 H         1 <0>         0.4362
     57 H26         0.8797    1.4149   -4.9377 H         1 <0>         0.4355
     58 N9         -0.0914    1.1073   -4.9354 N.4       1 <0>        -0.6473
     59 H27        -0.1178    0.0809   -4.9382 H         1 <0>         0.4394
     60 O3         -0.0315   -0.3525    2.6371 O.co2     1 <0>        -0.7663
@<TRIPOS>BOND
     1    1    2 1
     2    1   33 1
     3    1   34 1
     4    1   35 1
     5    2    3 1
     6    2   16 1
     7    3    4 1
     8    3   36 1
     9    3   37 1
    10    4    9 ar
    11    4    5 ar
    12    5    6 ar
    13    5   38 1
    14    6    7 ar
    15    7   13 ar
    16    7    8 ar
    17    8    9 ar
    18    8   10 ar
    19   10   11 ar
    20   10   15 1
    21   11   12 ar
    22   12   13 ar
    23   12   14 1
    24   14   39 1
    25   14   40 1
    26   15   41 1
    27   15   42 1
    28   16   21 ar
    29   16   17 ar
    30   17   18 ar
    31   17   43 1
    32   18   19 ar
    33   18   44 1
    34   19   20 ar
    35   19   22 1
    36   20   21 ar
    37   20   45 1
    38   21   46 1
    39   22   23 2
    40   22   24 am
    41   24   25 1
    42   24   47 1
    43   25   26 1
    44   25   27 1
    45   25   31 1
    46   27   28 1
    47   27   48 1
    48   27   49 1
    49   28   29 1
    50   28   50 1
    51   28   51 1
    52   29   30 1
    53   29   52 1
    54   29   53 1
    55   30   54 1
    56   30   55 1
    57   30   58 1
    58   31   32 2
    59   31   60 1
    60   56   58 1
    61   57   58 1
    62   58   59 1
@<TRIPOS>MOLECULE
ZINC01529323
   53    55     0     0     0
SMALL
USER_CHARGES

@<TRIPOS>ATOM
      1 C1         -0.0178    1.4608    0.0101 C.3       1 <0>         0.0943
      2 N1          0.0021   -0.0041    0.0020 N.pl3     1 <0>        -0.6229
      3 C2          0.0241   -0.7433    1.2666 C.3       1 <0>         0.1846
      4 C3         -1.3889   -1.0161    1.7137 C.ar      1 <0>         0.0299
      5 C4         -1.9892   -2.2351    1.3999 C.ar      1 <0>         0.1556
      6 N2         -3.2219   -2.4965    1.7797 N.ar      1 <0>        -0.4373
      7 C5         -3.9051   -1.5830    2.4739 C.ar      1 <0>         0.3718
      8 C6         -3.2902   -0.3458    2.7901 C.ar      1 <0>        -0.0918
      9 N3         -2.0425   -0.1038    2.4012 N.ar      1 <0>        -0.3728
     10 C7         -4.0706    0.6301    3.5527 C.ar      1 <0>         0.5432
     11 N4         -5.3055    0.2953    3.9004 N.ar      1 <0>        -0.6300
     12 C8         -5.8196   -0.8850    3.5693 C.ar      1 <0>         0.6362
     13 N5         -5.1609   -1.7987    2.8845 N.ar      1 <0>        -0.5990
     14 N6         -7.1130   -1.1692    3.9639 N.pl3     1 <0>        -0.8099
     15 N7         -3.5402    1.8539    3.8976 N.pl3     1 <0>        -0.7943
     16 C9          0.0000   -0.6928   -1.2059 C.ar      1 <0>         0.2179
     17 C10         0.0132   -2.0849   -1.2118 C.ar      1 <0>        -0.2113
     18 C11         0.0112   -2.7693   -2.4056 C.ar      1 <0>        -0.0159
     19 C12        -0.0041   -2.0653   -3.6133 C.ar      1 <0>        -0.1590
     20 C13        -0.0173   -0.6674   -3.6040 C.ar      1 <0>        -0.0366
     21 C14        -0.0210    0.0112   -2.4068 C.ar      1 <0>        -0.1985
     22 C15        -0.0058   -2.7960   -4.8948 C.2       1 <0>         0.5556
     23 O1          0.0061   -4.0119   -4.9015 O.2       1 <0>        -0.5600
     24 N8         -0.0205   -2.1158   -6.0583 N.am      1 <0>        -0.6793
     25 C16        -0.0222   -2.8414   -7.3310 C.3       1 <0>         0.0733
     26 H1         -0.6020   -3.7584   -7.2256 H         1 <0>         0.0773
     27 C17        -0.6480   -1.9644   -8.4172 C.3       1 <0>        -0.0801
     28 C18        -2.1222   -1.7198   -8.0888 C.3       1 <0>        -0.1777
     29 C19        -2.7386   -0.8559   -9.1588 C.2       1 <0>         0.4909
     30 O2         -2.0616   -0.4715  -10.0971 O.co2     1 <0>        -0.6975
     31 O3         -3.9143   -0.5414   -9.0862 O.co2     1 <0>        -0.7207
     32 C20         1.3940   -3.1839   -7.7158 C.2       1 <0>         0.4958
     33 O4          2.3190   -2.8526   -6.9939 O.co2     1 <0>        -0.6970
     34 O5          1.6147   -3.7923   -8.7491 O.co2     1 <0>        -0.7014
     35 H2          1.0048    1.8381    0.0023 H         1 <0>         0.0502
     36 H3         -0.5450    1.8219   -0.8730 H         1 <0>         0.0690
     37 H4         -0.5280    1.8123    0.9069 H         1 <0>         0.0657
     38 H5          0.5496   -1.6879    1.1262 H         1 <0>         0.1015
     39 H6          0.5371   -0.1514    2.0246 H         1 <0>         0.0948
     40 H7         -1.4361   -2.9733    0.8382 H         1 <0>         0.1815
     41 H8         -7.6209   -0.5150    4.4689 H         1 <0>         0.4148
     42 H9         -7.5132   -2.0229    3.7358 H         1 <0>         0.4190
     43 H10        -2.6346    2.0814    3.6347 H         1 <0>         0.4250
     44 H11        -4.0722    2.4880    4.4032 H         1 <0>         0.4139
     45 H12         0.0253   -2.6282   -0.2785 H         1 <0>         0.1208
     46 H13         0.0217   -3.8493   -2.4096 H         1 <0>         0.1351
     47 H14        -0.0287   -0.1208   -4.5353 H         1 <0>         0.1282
     48 H15        -0.0359    1.0910   -2.3989 H         1 <0>         0.1244
     49 H16        -0.0300   -1.1459   -6.0530 H         1 <0>         0.3877
     50 H17        -0.1225   -1.0104   -8.4615 H         1 <0>         0.0543
     51 H18        -0.5691   -2.4677   -9.3808 H         1 <0>         0.0783
     52 H19        -2.6477   -2.6737   -8.0445 H         1 <0>         0.0522
     53 H20        -2.2011   -1.2164   -7.1252 H         1 <0>         0.0501
@<TRIPOS>BOND
     1    1    2 1
     2    1   35 1
     3    1   36 1
     4    1   37 1
     5    2    3 1
     6    2   16 1
     7    3    4 1
     8    3   38 1
     9    3   39 1
    10    4    9 ar
    11    4    5 ar
    12    5    6 ar
    13    5   40 1
    14    6    7 ar
    15    7   13 ar
    16    7    8 ar
    17    8    9 ar
    18    8   10 ar
    19   10   11 ar
    20   10   15 1
    21   11   12 ar
    22   12   13 ar
    23   12   14 1
    24   14   41 1
    25   14   42 1
    26   15   43 1
    27   15   44 1
    28   16   21 ar
    29   16   17 ar
    30   17   18 ar
    31   17   45 1
    32   18   19 ar
    33   18   46 1
    34   19   20 ar
    35   19   22 1
    36   20   21 ar
    37   20   47 1
    38   21   48 1
    39   22   23 2
    40   22   24 am
    41   24   25 1
    42   24   49 1
    43   25   26 1
    44   25   27 1
    45   25   32 1
    46   27   28 1
    47   27   50 1
    48   27   51 1
    49   28   29 1
    50   28   52 1
    51   28   53 1
    52   29   30 2
    53   29   31 1
    54   32   33 2
    55   32   34 1
@<TRIPOS>MOLECULE
ZINC06920406
   53    55     0     0     0
SMALL
USER_CHARGES

@<TRIPOS>ATOM
      1 C1         -0.0178    1.4608    0.0101 C.3       1 <0>         0.0941
      2 N1          0.0021   -0.0041    0.0020 N.pl3     1 <0>        -0.6227
      3 C2          0.0241   -0.7433    1.2666 C.3       1 <0>         0.1846
      4 C3         -1.3889   -1.0161    1.7137 C.ar      1 <0>         0.0297
      5 C4         -1.9892   -2.2351    1.3999 C.ar      1 <0>         0.1557
      6 N2         -3.2219   -2.4965    1.7797 N.ar      1 <0>        -0.4368
      7 C5         -3.9051   -1.5830    2.4739 C.ar      1 <0>         0.3719
      8 C6         -3.2902   -0.3458    2.7901 C.ar      1 <0>        -0.0918
      9 N3         -2.0425   -0.1038    2.4012 N.ar      1 <0>        -0.3728
     10 C7         -4.0706    0.6301    3.5527 C.ar      1 <0>         0.5431
     11 N4         -5.3055    0.2953    3.9004 N.ar      1 <0>        -0.6300
     12 C8         -5.8196   -0.8850    3.5693 C.ar      1 <0>         0.6360
     13 N5         -5.1609   -1.7987    2.8845 N.ar      1 <0>        -0.5986
     14 N6         -7.1130   -1.1692    3.9639 N.pl3     1 <0>        -0.8100
     15 N7         -3.5402    1.8539    3.8976 N.pl3     1 <0>        -0.7944
     16 C9          0.0000   -0.6928   -1.2059 C.ar      1 <0>         0.2189
     17 C10         0.0132   -2.0849   -1.2118 C.ar      1 <0>        -0.2116
     18 C11         0.0112   -2.7693   -2.4056 C.ar      1 <0>        -0.0155
     19 C12        -0.0041   -2.0653   -3.6133 C.ar      1 <0>        -0.1616
     20 C13        -0.0173   -0.6674   -3.6040 C.ar      1 <0>        -0.0356
     21 C14        -0.0210    0.0112   -2.4068 C.ar      1 <0>        -0.1983
     22 C15        -0.0058   -2.7960   -4.8948 C.2       1 <0>         0.5487
     23 O1          0.0061   -4.0119   -4.9015 O.2       1 <0>        -0.5585
     24 N8         -0.0205   -2.1158   -6.0583 N.am      1 <0>        -0.6789
     25 C16        -0.0222   -2.8414   -7.3310 C.3       1 <0>         0.0745
     26 H1          0.5768   -3.7469   -7.2338 H         1 <0>         0.0773
     27 C17         0.5711   -1.9524   -8.4257 C.3       1 <0>        -0.0822
     28 C18         2.0446   -1.6789   -8.1177 C.3       1 <0>        -0.1766
     29 C19         2.6291   -0.8032   -9.1959 C.2       1 <0>         0.4909
     30 O2          1.9317   -0.4323  -10.1247 O.co2     1 <0>        -0.6980
     31 O3          3.7993   -0.4657   -9.1396 O.co2     1 <0>        -0.7201
     32 C20        -1.4367   -3.2117   -7.6962 C.2       1 <0>         0.4981
     33 O4         -2.3634   -2.5041   -7.3399 O.co2     1 <0>        -0.6991
     34 O5         -1.6542   -4.2188   -8.3480 O.co2     1 <0>        -0.7022
     35 H2          1.0048    1.8381    0.0023 H         1 <0>         0.0507
     36 H3         -0.5450    1.8219   -0.8730 H         1 <0>         0.0690
     37 H4         -0.5280    1.8123    0.9069 H         1 <0>         0.0658
     38 H5          0.5496   -1.6879    1.1262 H         1 <0>         0.1014
     39 H6          0.5371   -0.1514    2.0246 H         1 <0>         0.0950
     40 H7         -1.4361   -2.9733    0.8382 H         1 <0>         0.1814
     41 H8         -7.6209   -0.5150    4.4689 H         1 <0>         0.4147
     42 H9         -7.5132   -2.0229    3.7358 H         1 <0>         0.4190
     43 H10        -2.6346    2.0814    3.6347 H         1 <0>         0.4250
     44 H11        -4.0722    2.4880    4.4032 H         1 <0>         0.4139
     45 H12         0.0253   -2.6282   -0.2785 H         1 <0>         0.1211
     46 H13         0.0217   -3.8493   -2.4096 H         1 <0>         0.1354
     47 H14        -0.0287   -0.1208   -4.5353 H         1 <0>         0.1292
     48 H15        -0.0359    1.0910   -2.3989 H         1 <0>         0.1249
     49 H16        -0.0300   -1.1459   -6.0530 H         1 <0>         0.3899
     50 H17         0.4888   -2.4573   -9.3882 H         1 <0>         0.0717
     51 H18         0.0264   -1.0090   -8.4626 H         1 <0>         0.0594
     52 H19         2.1270   -1.1740   -7.1552 H         1 <0>         0.0514
     53 H20         2.5893   -2.6223   -8.0808 H         1 <0>         0.0527
@<TRIPOS>BOND
     1    1    2 1
     2    1   35 1
     3    1   36 1
     4    1   37 1
     5    2    3 1
     6    2   16 1
     7    3    4 1
     8    3   38 1
     9    3   39 1
    10    4    9 ar
    11    4    5 ar
    12    5    6 ar
    13    5   40 1
    14    6    7 ar
    15    7   13 ar
    16    7    8 ar
    17    8    9 ar
    18    8   10 ar
    19   10   11 ar
    20   10   15 1
    21   11   12 ar
    22   12   13 ar
    23   12   14 1
    24   14   41 1
    25   14   42 1
    26   15   43 1
    27   15   44 1
    28   16   21 ar
    29   16   17 ar
    30   17   18 ar
    31   17   45 1
    32   18   19 ar
    33   18   46 1
    34   19   20 ar
    35   19   22 1
    36   20   21 ar
    37   20   47 1
    38   21   48 1
    39   22   23 2
    40   22   24 am
    41   24   25 1
    42   24   49 1
    43   25   26 1
    44   25   27 1
    45   25   32 1
    46   27   28 1
    47   27   50 1
    48   27   51 1
    49   28   29 1
    50   28   52 1
    51   28   53 1
    52   29   30 2
    53   29   31 1
    54   32   33 2
    55   32   34 1
@<TRIPOS>MOLECULE
ZINC01618702
   57    59     0     0     0
SMALL
USER_CHARGES
2-[4-[1-[(2,4-diaminopteridin-6-yl)methyl]propyl]benzoyl]aminopentanedioic acid
@<TRIPOS>ATOM
      1 C1          0.0615   -8.7000    1.5086 C.3       1 <0>        -0.1538
      2 C2         -0.0667   -7.1827    1.3590 C.3       1 <0>        -0.1166
      3 C3          1.1674   -6.6351    0.6393 C.3       1 <0>        -0.0405
      4 H1          2.0667   -6.9548    1.1657 H         1 <0>         0.0790
      5 C4          1.1995   -7.1673   -0.7948 C.3       1 <0>        -0.0559
      6 C5          2.4812   -6.7383   -1.4613 C.ar      1 <0>         0.0469
      7 C6          3.6401   -7.4923   -1.2791 C.ar      1 <0>         0.1376
      8 N1          4.7701   -7.1404   -1.8549 N.ar      1 <0>        -0.4464
      9 C7          4.8088   -6.0425   -2.6138 C.ar      1 <0>         0.3677
     10 C8          3.6294   -5.2769   -2.7912 C.ar      1 <0>        -0.0823
     11 N2          2.4972   -5.6527   -2.2051 N.ar      1 <0>        -0.3622
     12 C9          3.7110   -4.0802   -3.6304 C.ar      1 <0>         0.5464
     13 N3          4.8846   -3.7871   -4.1733 N.ar      1 <0>        -0.6317
     14 C10         5.9519   -4.5512   -3.9636 C.ar      1 <0>         0.6397
     15 N4          5.9331   -5.6379   -3.2176 N.ar      1 <0>        -0.6115
     16 N5          7.1444   -4.1874   -4.5596 N.pl3     1 <0>        -0.8115
     17 N6          2.6064   -3.2865   -3.8494 N.pl3     1 <0>        -0.7787
     18 C11         1.1080   -5.1295    0.6151 C.ar      1 <0>        -0.0638
     19 C12         2.1142   -4.3908    1.2119 C.ar      1 <0>        -0.1272
     20 C13         2.0654   -3.0122    1.1942 C.ar      1 <0>        -0.0643
     21 C14         0.9980   -2.3628    0.5719 C.ar      1 <0>        -0.1096
     22 C15        -0.0162   -3.1140   -0.0241 C.ar      1 <0>        -0.0845
     23 C16         0.0472   -4.4919   -0.0034 C.ar      1 <0>        -0.1110
     24 C17         0.9390   -0.8857    0.5494 C.2       1 <0>         0.5512
     25 O1          1.8211   -0.2341    1.0737 O.2       1 <0>        -0.5511
     26 N7         -0.0930   -0.2616   -0.0522 N.am      1 <0>        -0.6824
     27 C18        -0.1515    1.2021   -0.0745 C.3       1 <0>         0.0999
     28 H2          0.8576    1.6048   -0.1615 H         1 <0>         0.0853
     29 C19        -0.9886    1.6609   -1.2702 C.3       1 <0>        -0.0865
     30 C20        -0.2833    1.2643   -2.5687 C.3       1 <0>        -0.1515
     31 C21        -1.1078    1.7162   -3.7464 C.2       1 <0>         0.4612
     32 O2         -2.1523    2.2961   -3.5657 O.co2     1 <0>        -0.6377
     33 C22        -0.7825    1.6990    1.2007 C.2       1 <0>         0.4647
     34 O3         -1.1459    0.9114    2.0418 O.co2     1 <0>        -0.6393
     35 H3         -0.7664   -9.0772    2.1088 H         1 <0>         0.0532
     36 H4          0.0377   -9.1656    0.5233 H         1 <0>         0.0562
     37 H5          1.0048   -8.9382    2.0003 H         1 <0>         0.0542
     38 H6         -0.1447   -6.7257    2.3455 H         1 <0>         0.0685
     39 H7         -0.9593   -6.9490    0.7787 H         1 <0>         0.0690
     40 H8          1.1445   -8.2558   -0.7797 H         1 <0>         0.0888
     41 H9          0.3503   -6.7683   -1.3495 H         1 <0>         0.0896
     42 H10         3.6089   -8.3780   -0.6619 H         1 <0>         0.1737
     43 H11         7.9389   -4.7270   -4.4239 H         1 <0>         0.4154
     44 H12         7.1868   -3.3924   -5.1138 H         1 <0>         0.4160
     45 H13         1.7557   -3.5170   -3.4444 H         1 <0>         0.4284
     46 H14         2.6795   -2.4973   -4.4085 H         1 <0>         0.4218
     47 H15         2.9395   -4.8946    1.6931 H         1 <0>         0.1159
     48 H16         2.8514   -2.4368    1.6604 H         1 <0>         0.1291
     49 H17        -0.8471   -2.6175   -0.5033 H         1 <0>         0.1271
     50 H18        -0.7351   -5.0743   -0.4675 H         1 <0>         0.1232
     51 H19        -0.7969   -0.7815   -0.4706 H         1 <0>         0.3906
     52 H20        -1.9695    1.1873   -1.2301 H         1 <0>         0.0574
     53 H21        -1.1065    2.7440   -1.2369 H         1 <0>         0.0850
     54 H22         0.6976    1.7379   -2.6087 H         1 <0>         0.0599
     55 H23        -0.1654    0.1812   -2.6019 H         1 <0>         0.0559
     56 O4         -0.6818    1.4746   -4.9962 O.co2     1 <0>        -0.7904
     57 O5         -0.9406    3.0166    1.4021 O.co2     1 <0>        -0.7683
@<TRIPOS>BOND
     1    1    2 1
     2    1   35 1
     3    1   36 1
     4    1   37 1
     5    2    3 1
     6    2   38 1
     7    2   39 1
     8    3    4 1
     9    3    5 1
    10    3   18 1
    11    5    6 1
    12    5   40 1
    13    5   41 1
    14    6   11 ar
    15    6    7 ar
    16    7    8 ar
    17    7   42 1
    18    8    9 ar
    19    9   15 ar
    20    9   10 ar
    21   10   11 ar
    22   10   12 ar
    23   12   13 ar
    24   12   17 1
    25   13   14 ar
    26   14   15 ar
    27   14   16 1
    28   16   43 1
    29   16   44 1
    30   17   45 1
    31   17   46 1
    32   18   23 ar
    33   18   19 ar
    34   19   20 ar
    35   19   47 1
    36   20   21 ar
    37   20   48 1
    38   21   22 ar
    39   21   24 1
    40   22   23 ar
    41   22   49 1
    42   23   50 1
    43   24   25 2
    44   24   26 am
    45   26   27 1
    46   26   51 1
    47   27   28 1
    48   27   29 1
    49   27   33 1
    50   29   30 1
    51   29   52 1
    52   29   53 1
    53   30   31 1
    54   30   54 1
    55   30   55 1
    56   31   32 2
    57   31   56 1
    58   33   34 2
    59   33   57 1
@<TRIPOS>MOLECULE
ZINC13220172
   57    59     0     0     0
SMALL
USER_CHARGES
(2S)-2-[[4-[(1R)-1-[(2,4-diaminopteridin-6-yl)methyl]propyl]benzoyl]amino]pentanedioic acid
@<TRIPOS>ATOM
      1 C1          2.5193   -6.4993   -1.3898 C.3       1 <0>        -0.1532
      2 C2          1.1683   -6.9243   -0.8111 C.3       1 <0>        -0.1123
      3 C3          1.0500   -6.4225    0.6295 C.3       1 <0>        -0.0385
      4 H1          1.9021   -6.7775    1.2090 H         1 <0>         0.0796
      5 C4         -0.2447   -6.9523    1.2493 C.3       1 <0>        -0.0598
      6 C5         -0.1733   -8.4539    1.3548 C.ar      1 <0>         0.0634
      7 C6          0.4467   -9.0399    2.4579 C.ar      1 <0>         0.1446
      8 N1          0.5170  -10.3490    2.5747 N.ar      1 <0>        -0.4416
      9 C7         -0.0028  -11.1243    1.6198 C.ar      1 <0>         0.3639
     10 C8         -0.6271  -10.5235    0.4983 C.ar      1 <0>        -0.0871
     11 N2         -0.6921   -9.1994    0.4023 N.ar      1 <0>        -0.3775
     12 C9         -1.1856  -11.4062   -0.5275 C.ar      1 <0>         0.5427
     13 N3         -1.0728  -12.7142   -0.3427 N.ar      1 <0>        -0.6314
     14 C10        -0.4730  -13.2097    0.7351 C.ar      1 <0>         0.6348
     15 N4          0.0461  -12.4605    1.6874 N.ar      1 <0>        -0.6029
     16 N5         -0.3897  -14.5829    0.8644 N.pl3     1 <0>        -0.8118
     17 N6         -1.8076  -10.8953   -1.6455 N.pl3     1 <0>        -0.7915
     18 C11         1.0304   -4.9157    0.6365 C.ar      1 <0>        -0.0681
     19 C12         2.0110   -4.2173    1.3184 C.ar      1 <0>        -0.1251
     20 C13         1.9983   -2.8379    1.3296 C.ar      1 <0>        -0.0629
     21 C14         0.9936   -2.1468    0.6506 C.ar      1 <0>        -0.1085
     22 C15         0.0046   -2.8574   -0.0314 C.ar      1 <0>        -0.0825
     23 C16         0.0316   -4.2367   -0.0386 C.ar      1 <0>        -0.1203
     24 C17         0.9736   -0.6685    0.6587 C.2       1 <0>         0.5509
     25 O1          1.8333   -0.0523    1.2576 O.2       1 <0>        -0.5506
     26 N7          0.0021   -0.0041    0.0020 N.am      1 <0>        -0.6824
     27 C18        -0.0178    1.4608    0.0101 C.3       1 <0>         0.0993
     28 H2          1.0048    1.8381    0.0023 H         1 <0>         0.0864
     29 C19        -0.7578    1.9676   -1.2295 C.3       1 <0>        -0.0863
     30 C20         0.0259    1.5803   -2.4852 C.3       1 <0>        -0.1530
     31 C21        -0.7030    2.0796   -3.7061 C.2       1 <0>         0.4613
     32 O2         -1.7426    2.6832   -3.5843 O.co2     1 <0>        -0.6385
     33 C22        -0.7232    1.9468    1.2500 C.2       1 <0>         0.4651
     34 O3         -1.1640    1.1512    2.0453 O.co2     1 <0>        -0.6396
     35 H3          2.6036   -6.8568   -2.4161 H         1 <0>         0.0500
     36 H4          2.5944   -5.4119   -1.3765 H         1 <0>         0.0629
     37 H5          3.3224   -6.9263   -0.7892 H         1 <0>         0.0488
     38 H6          1.0932   -8.0117   -0.8244 H         1 <0>         0.0585
     39 H7          0.3652   -6.4973   -1.4117 H         1 <0>         0.0693
     40 H8         -0.3734   -6.5240    2.2433 H         1 <0>         0.0936
     41 H9         -1.0898   -6.6720    0.6206 H         1 <0>         0.0924
     42 H10         0.8704   -8.4120    3.2278 H         1 <0>         0.1815
     43 H11         0.0423  -14.9716    1.6411 H         1 <0>         0.4175
     44 H12        -0.7633  -15.1582    0.1786 H         1 <0>         0.4147
     45 H13        -1.8815   -9.9354   -1.7634 H         1 <0>         0.4278
     46 H14        -2.1718  -11.4956   -2.3148 H         1 <0>         0.4146
     47 H15         2.7878   -4.7533    1.8435 H         1 <0>         0.1225
     48 H16         2.7639   -2.2939    1.8629 H         1 <0>         0.1337
     49 H17        -0.7780   -2.3286   -0.5550 H         1 <0>         0.1284
     50 H18        -0.7309   -4.7878   -0.5690 H         1 <0>         0.1242
     51 H19        -0.6840   -0.4958   -0.4759 H         1 <0>         0.3911
     52 H20        -1.7507    1.5197   -1.2683 H         1 <0>         0.0573
     53 H21        -0.8503    3.0525   -1.1791 H         1 <0>         0.0851
     54 H22         1.0188    2.0283   -2.4463 H         1 <0>         0.0607
     55 H23         0.1184    0.4954   -2.5355 H         1 <0>         0.0572
     56 O4         -0.1973    1.8537   -4.9287 O.co2     1 <0>        -0.7904
     57 O5         -0.8617    3.2635    1.4708 O.co2     1 <0>        -0.7683
@<TRIPOS>BOND
     1    1    2 1
     2    1   35 1
     3    1   36 1
     4    1   37 1
     5    2    3 1
     6    2   38 1
     7    2   39 1
     8    3    4 1
     9    3    5 1
    10    3   18 1
    11    5    6 1
    12    5   40 1
    13    5   41 1
    14    6   11 ar
    15    6    7 ar
    16    7    8 ar
    17    7   42 1
    18    8    9 ar
    19    9   15 ar
    20    9   10 ar
    21   10   11 ar
    22   10   12 ar
    23   12   13 ar
    24   12   17 1
    25   13   14 ar
    26   14   15 ar
    27   14   16 1
    28   16   43 1
    29   16   44 1
    30   17   45 1
    31   17   46 1
    32   18   23 ar
    33   18   19 ar
    34   19   20 ar
    35   19   47 1
    36   20   21 ar
    37   20   48 1
    38   21   22 ar
    39   21   24 1
    40   22   23 ar
    41   22   49 1
    42   23   50 1
    43   24   25 2
    44   24   26 am
    45   26   27 1
    46   26   51 1
    47   27   28 1
    48   27   29 1
    49   27   33 1
    50   29   30 1
    51   29   52 1
    52   29   53 1
    53   30   31 1
    54   30   54 1
    55   30   55 1
    56   31   32 2
    57   31   56 1
    58   33   34 2
    59   33   57 1
