@<TRIPOS>MOLECULE
ZINC03612862
   48    51     0     0     0
SMALL
USER_CHARGES
5-[(2-cyclopropyl-7,8-dimethoxy-2H-chromen-5-yl)methyl]pyrimidine-2,4-diamine
@<TRIPOS>ATOM
      1 C1          5.4769    4.1216    2.5780 C.3       1 <0>         0.0228
      2 O1          5.2233    3.0692    3.5109 O.3       1 <0>        -0.3002
      3 C2          4.4198    2.0549    3.0937 C.ar      1 <0>         0.1527
      4 C3          3.8928    2.0754    1.8094 C.ar      1 <0>        -0.2255
      5 C4          3.0723    1.0526    1.3768 C.ar      1 <0>         0.0051
      6 C5          2.7820   -0.0064    2.2314 C.ar      1 <0>        -0.1520
      7 C6          3.3157   -0.0324    3.5275 C.ar      1 <0>         0.1633
      8 C7          4.1340    0.9997    3.9549 C.ar      1 <0>         0.0327
      9 O2          4.6567    0.9820    5.2114 O.3       1 <0>        -0.3112
     10 C8          5.9250    0.3449    5.3775 C.3       1 <0>         0.0321
     11 O3          3.0149   -1.0789    4.3398 O.3       1 <0>        -0.2877
     12 C9          2.8455   -2.3548    3.7206 C.3       1 <0>         0.1542
     13 H1          2.4100   -3.0484    4.4399 H         1 <0>         0.1235
     14 C10         1.9383   -2.2459    2.5237 C.2       1 <0>        -0.1883
     15 C11         1.9122   -1.1242    1.8067 C.2       1 <0>        -0.0882
     16 C12         4.2097   -2.8832    3.2725 C.3       1 <0>        -0.1893
     17 C13         4.5950   -4.2997    3.7038 C.3       1 <0>        -0.1641
     18 C14         5.2755   -3.0914    4.3503 C.3       1 <0>        -0.1679
     19 C15         2.4989    1.0799   -0.0165 C.3       1 <0>        -0.0171
     20 C16         1.1508    1.7531    0.0082 C.ar      1 <0>        -0.3072
     21 C17        -0.0079    1.0099    0.1220 C.ar      1 <0>         0.2238
     22 N1         -1.1779    1.6313    0.1348 N.ar      1 <0>        -0.6027
     23 C18        -1.2487    2.9518    0.0513 C.ar      1 <0>         0.6036
     24 N2         -0.1617    3.7003   -0.0591 N.ar      1 <0>        -0.6255
     25 C19         1.0447    3.1425   -0.0839 C.ar      1 <0>         0.4900
     26 N3          2.1799    3.9279   -0.1999 N.pl3     1 <0>        -0.8357
     27 N4         -2.4898    3.5637    0.0741 N.pl3     1 <0>        -0.8204
     28 H2          6.1301    4.8640    3.0366 H         1 <0>         0.1045
     29 H3          5.9593    3.7120    1.6906 H         1 <0>         0.0574
     30 H4          4.5349    4.5915    2.2954 H         1 <0>         0.0575
     31 H5          4.1234    2.8964    1.1467 H         1 <0>         0.1304
     32 H6          6.2257    0.4014    6.4237 H         1 <0>         0.0922
     33 H7          5.8486   -0.7002    5.0773 H         1 <0>         0.0484
     34 H8          6.6679    0.8474    4.7582 H         1 <0>         0.0433
     35 H9          1.3083   -3.0783    2.2466 H         1 <0>         0.1353
     36 H10         1.2740   -1.0334    0.9403 H         1 <0>         0.1333
     37 H11         4.5450   -2.5468    2.2914 H         1 <0>         0.1077
     38 H12         3.8767   -4.8551    4.3069 H         1 <0>         0.0987
     39 H13         5.1839   -4.8955    3.0065 H         1 <0>         0.0986
     40 H14         6.3120   -2.8923    4.0782 H         1 <0>         0.0957
     41 H15         5.0048   -2.8519    5.3786 H         1 <0>         0.1008
     42 H16         2.3888    0.0598   -0.3843 H         1 <0>         0.0915
     43 H17         3.1692    1.6330   -0.6745 H         1 <0>         0.0787
     44 H18         0.0392   -0.0666    0.1952 H         1 <0>         0.1615
     45 H19         3.0567    3.5134   -0.2176 H         1 <0>         0.4076
     46 H20         2.0980    4.8924   -0.2634 H         1 <0>         0.4070
     47 H21        -2.5557    4.5294    0.0097 H         1 <0>         0.4134
     48 H22        -3.2938    3.0270    0.1546 H         1 <0>         0.4158
@<TRIPOS>BOND
     1    1    2 1
     2    1   28 1
     3    1   29 1
     4    1   30 1
     5    2    3 1
     6    3    8 ar
     7    3    4 ar
     8    4    5 ar
     9    4   31 1
    10    5    6 ar
    11    5   19 1
    12    6   15 1
    13    6    7 ar
    14    7    8 ar
    15    7   11 1
    16    8    9 1
    17    9   10 1
    18   10   32 1
    19   10   33 1
    20   10   34 1
    21   11   12 1
    22   12   13 1
    23   12   14 1
    24   12   16 1
    25   14   15 2
    26   14   35 1
    27   15   36 1
    28   16   18 1
    29   16   17 1
    30   16   37 1
    31   17   18 1
    32   17   38 1
    33   17   39 1
    34   18   40 1
    35   18   41 1
    36   19   20 1
    37   19   42 1
    38   19   43 1
    39   20   25 ar
    40   20   21 ar
    41   21   22 ar
    42   21   44 1
    43   22   23 ar
    44   23   24 ar
    45   23   27 1
    46   24   25 ar
    47   25   26 1
    48   26   45 1
    49   26   46 1
    50   27   47 1
    51   27   48 1
@<TRIPOS>MOLECULE
ZINC03612862
   49    52     0     0     0
SMALL
USER_CHARGES
5-[(2-cyclopropyl-7,8-dimethoxy-2H-chromen-5-yl)methyl]pyrimidine-2,4-diamine
@<TRIPOS>ATOM
      1 C1          5.4769    4.1216    2.5780 C.3       1 <0>         0.0212
      2 O1          5.2233    3.0692    3.5109 O.3       1 <0>        -0.2946
      3 C2          4.4198    2.0549    3.0937 C.ar      1 <0>         0.1570
      4 C3          3.8928    2.0754    1.8094 C.ar      1 <0>        -0.2263
      5 C4          3.0723    1.0526    1.3768 C.ar      1 <0>        -0.0236
      6 C5          2.7820   -0.0064    2.2314 C.ar      1 <0>        -0.1460
      7 C6          3.3157   -0.0324    3.5275 C.ar      1 <0>         0.1647
      8 C7          4.1340    0.9997    3.9549 C.ar      1 <0>         0.0480
      9 O2          4.6567    0.9820    5.2114 O.3       1 <0>        -0.3112
     10 C8          5.9250    0.3449    5.3775 C.3       1 <0>         0.0316
     11 O3          3.0149   -1.0789    4.3398 O.3       1 <0>        -0.2838
     12 C9          2.8455   -2.3548    3.7206 C.3       1 <0>         0.1491
     13 H1          2.4100   -3.0484    4.4399 H         1 <0>         0.1297
     14 C10         1.9383   -2.2459    2.5237 C.2       1 <0>        -0.1606
     15 C11         1.9122   -1.1242    1.8067 C.2       1 <0>        -0.1126
     16 C12         4.2097   -2.8832    3.2725 C.3       1 <0>        -0.1960
     17 C13         4.5950   -4.2997    3.7038 C.3       1 <0>        -0.1612
     18 C14         5.2755   -3.0914    4.3503 C.3       1 <0>        -0.1658
     19 C15         2.4989    1.0799   -0.0165 C.3       1 <0>        -0.0294
     20 C16         1.1508    1.7531    0.0082 C.ar      1 <0>        -0.2172
     21 C17        -0.0079    1.0099    0.1220 C.ar      1 <0>         0.2032
     22 C18        -1.2487    2.9518    0.0513 C.ar      1 <0>         0.6692
     23 N1         -0.1617    3.7003   -0.0591 N.ar      1 <0>        -0.5650
     24 C19         1.0447    3.1425   -0.0839 C.ar      1 <0>         0.5417
     25 N2          2.1799    3.9279   -0.1999 N.pl3     1 <0>        -0.7765
     26 N3         -2.4898    3.5637    0.0741 N.pl3     1 <0>        -0.7904
     27 H2          6.1301    4.8640    3.0366 H         1 <0>         0.1105
     28 H3          5.9593    3.7120    1.6906 H         1 <0>         0.0602
     29 H4          4.5349    4.5915    2.2954 H         1 <0>         0.0552
     30 H5          4.1234    2.8964    1.1467 H         1 <0>         0.1295
     31 H6          6.2257    0.4014    6.4237 H         1 <0>         0.0983
     32 H7          5.8486   -0.7002    5.0773 H         1 <0>         0.0511
     33 H8          6.6679    0.8474    4.7582 H         1 <0>         0.0468
     34 H9          1.3083   -3.0783    2.2466 H         1 <0>         0.1395
     35 H10         1.2740   -1.0334    0.9403 H         1 <0>         0.1246
     36 H11         4.5450   -2.5468    2.2914 H         1 <0>         0.1081
     37 H12         3.8767   -4.8551    4.3069 H         1 <0>         0.1009
     38 H13         5.1839   -4.8955    3.0065 H         1 <0>         0.1017
     39 H14         6.3120   -2.8923    4.0782 H         1 <0>         0.0987
     40 H15         5.0048   -2.8519    5.3786 H         1 <0>         0.1026
     41 H16         2.3888    0.0598   -0.3843 H         1 <0>         0.1132
     42 H17         3.1692    1.6330   -0.6745 H         1 <0>         0.1012
     43 H18         0.0392   -0.0666    0.1952 H         1 <0>         0.2015
     44 H19         3.0567    3.5134   -0.2176 H         1 <0>         0.4279
     45 H20         2.0980    4.8924   -0.2634 H         1 <0>         0.4296
     46 H21        -2.5557    4.5294    0.0097 H         1 <0>         0.4431
     47 H22        -3.2938    3.0270    0.1546 H         1 <0>         0.4310
     48 N4         -1.2406    1.5914    0.1403 N.ar      1 <0>        -0.5935
     49 H23        -2.0603    1.0235    0.2152 H         1 <0>         0.4630
@<TRIPOS>BOND
     1    1    2 1
     2    1   27 1
     3    1   28 1
     4    1   29 1
     5    2    3 1
     6    3    8 ar
     7    3    4 ar
     8    4    5 ar
     9    4   30 1
    10    5    6 ar
    11    5   19 1
    12    6   15 1
    13    6    7 ar
    14    7    8 ar
    15    7   11 1
    16    8    9 1
    17    9   10 1
    18   10   31 1
    19   10   32 1
    20   10   33 1
    21   11   12 1
    22   12   13 1
    23   12   14 1
    24   12   16 1
    25   14   15 2
    26   14   34 1
    27   15   35 1
    28   16   18 1
    29   16   17 1
    30   16   36 1
    31   17   18 1
    32   17   37 1
    33   17   38 1
    34   18   39 1
    35   18   40 1
    36   19   20 1
    37   19   41 1
    38   19   42 1
    39   20   24 ar
    40   20   21 ar
    41   21   43 1
    42   21   48 ar
    43   22   23 ar
    44   22   26 1
    45   22   48 ar
    46   23   24 ar
    47   24   25 1
    48   25   44 1
    49   25   45 1
    50   26   46 1
    51   26   47 1
    52   48   49 1
@<TRIPOS>MOLECULE
ZINC01486728
   48    51     0     0     0
SMALL
USER_CHARGES
5-[(2-cyclopropyl-7,8-dimethoxy-2H-chromen-5-yl)methyl]pyrimidine-2,4-diamine
@<TRIPOS>ATOM
      1 C1         -0.0243    1.0905    0.0387 C.3       1 <0>         0.0229
      2 O1         -0.7047    1.5787    1.1965 O.3       1 <0>        -0.3008
      3 C2         -1.9907    1.1743    1.3731 C.ar      1 <0>         0.1497
      4 C3         -2.5822    0.3290    0.4439 C.ar      1 <0>        -0.2243
      5 C4         -3.8858   -0.0922    0.6162 C.ar      1 <0>         0.0042
      6 C5         -4.6105    0.3437    1.7211 C.ar      1 <0>        -0.1482
      7 C6         -4.0183    1.2016    2.6584 C.ar      1 <0>         0.1600
      8 C7         -2.7086    1.6145    2.4811 C.ar      1 <0>         0.0329
      9 O2         -2.1257    2.4467    3.3866 O.3       1 <0>        -0.3110
     10 C8         -2.1626    3.8460    3.0993 C.3       1 <0>         0.0361
     11 O3         -4.7505    1.6110    3.7270 O.3       1 <0>        -0.2870
     12 C9         -6.1511    1.8004    3.5213 C.3       1 <0>         0.1565
     13 H1         -6.6430    1.9218    4.4864 H         1 <0>         0.1239
     14 C10        -6.7458    0.6155    2.8071 C.2       1 <0>        -0.1871
     15 C11        -6.0107   -0.0783    1.9405 C.2       1 <0>        -0.0871
     16 C12        -6.3719    3.0594    2.6805 C.3       1 <0>        -0.1831
     17 C13        -6.9067    4.3017    3.3957 C.3       1 <0>        -0.1713
     18 C14        -7.8155    3.5119    2.4517 C.3       1 <0>        -0.1627
     19 C15        -4.5228   -1.0147   -0.3910 C.3       1 <0>        -0.0172
     20 C16        -5.2930   -0.2021   -1.3997 C.ar      1 <0>        -0.3068
     21 C17        -6.6475    0.0183   -1.2432 C.ar      1 <0>         0.2267
     22 N1         -7.2960    0.7374   -2.1474 N.ar      1 <0>        -0.6023
     23 C18        -6.6635    1.2452   -3.1951 C.ar      1 <0>         0.6026
     24 N2         -5.3658    1.0573   -3.3814 N.ar      1 <0>        -0.6267
     25 C19        -4.6523    0.3501   -2.5109 C.ar      1 <0>         0.4890
     26 N3         -3.2941    0.1594   -2.7057 N.pl3     1 <0>        -0.8359
     27 N4         -7.3766    1.9908   -4.1175 N.pl3     1 <0>        -0.8212
     28 H2          0.0130    0.0016    0.0713 H         1 <0>         0.0594
     29 H3          0.9903    1.4883    0.0188 H         1 <0>         0.1046
     30 H4         -0.5571    1.4091   -0.8572 H         1 <0>         0.0558
     31 H5         -2.0188   -0.0038   -0.4153 H         1 <0>         0.1305
     32 H6         -1.7310    4.0263    2.1148 H         1 <0>         0.0440
     33 H7         -3.1960    4.1924    3.1121 H         1 <0>         0.0434
     34 H8         -1.5888    4.3867    3.8521 H         1 <0>         0.0937
     35 H9         -7.7694    0.3286    2.9977 H         1 <0>         0.1344
     36 H10        -6.4251   -0.9246    1.4128 H         1 <0>         0.1345
     37 H11        -5.6617    3.2127    1.8680 H         1 <0>         0.1029
     38 H12        -7.1012    4.2221    4.4653 H         1 <0>         0.0992
     39 H13        -6.5482    5.2727    3.0539 H         1 <0>         0.0955
     40 H14        -8.0548    3.9632    1.4888 H         1 <0>         0.0965
     41 H15        -8.6079    2.9124    2.8999 H         1 <0>         0.0989
     42 H16        -3.7476   -1.5867   -0.9008 H         1 <0>         0.0786
     43 H17        -5.2015   -1.6975    0.1200 H         1 <0>         0.0922
     44 H18        -7.1723   -0.3909   -0.3925 H         1 <0>         0.1614
     45 H19        -2.7809   -0.3608   -2.0678 H         1 <0>         0.4078
     46 H20        -2.8562    0.5462   -3.4801 H         1 <0>         0.4066
     47 H21        -8.3274    2.1361   -3.9926 H         1 <0>         0.4154
     48 H22        -6.9255    2.3681   -4.8889 H         1 <0>         0.4130
@<TRIPOS>BOND
     1    1    2 1
     2    1   28 1
     3    1   29 1
     4    1   30 1
     5    2    3 1
     6    3    8 ar
     7    3    4 ar
     8    4    5 ar
     9    4   31 1
    10    5    6 ar
    11    5   19 1
    12    6   15 1
    13    6    7 ar
    14    7    8 ar
    15    7   11 1
    16    8    9 1
    17    9   10 1
    18   10   32 1
    19   10   33 1
    20   10   34 1
    21   11   12 1
    22   12   13 1
    23   12   14 1
    24   12   16 1
    25   14   15 2
    26   14   35 1
    27   15   36 1
    28   16   18 1
    29   16   17 1
    30   16   37 1
    31   17   18 1
    32   17   38 1
    33   17   39 1
    34   18   40 1
    35   18   41 1
    36   19   20 1
    37   19   42 1
    38   19   43 1
    39   20   25 ar
    40   20   21 ar
    41   21   22 ar
    42   21   44 1
    43   22   23 ar
    44   23   24 ar
    45   23   27 1
    46   24   25 ar
    47   25   26 1
    48   26   45 1
    49   26   46 1
    50   27   47 1
    51   27   48 1
@<TRIPOS>MOLECULE
ZINC01486728
   49    52     0     0     0
SMALL
USER_CHARGES
5-[(2-cyclopropyl-7,8-dimethoxy-2H-chromen-5-yl)methyl]pyrimidine-2,4-diamine
@<TRIPOS>ATOM
      1 C1         -0.0243    1.0905    0.0387 C.3       1 <0>         0.0211
      2 O1         -0.7047    1.5787    1.1965 O.3       1 <0>        -0.2950
      3 C2         -1.9907    1.1743    1.3731 C.ar      1 <0>         0.1556
      4 C3         -2.5822    0.3290    0.4439 C.ar      1 <0>        -0.2257
      5 C4         -3.8858   -0.0922    0.6162 C.ar      1 <0>        -0.0224
      6 C5         -4.6105    0.3437    1.7211 C.ar      1 <0>        -0.1449
      7 C6         -4.0183    1.2016    2.6584 C.ar      1 <0>         0.1625
      8 C7         -2.7086    1.6145    2.4811 C.ar      1 <0>         0.0475
      9 O2         -2.1257    2.4467    3.3866 O.3       1 <0>        -0.3092
     10 C8         -2.1626    3.8460    3.0993 C.3       1 <0>         0.0363
     11 O3         -4.7505    1.6110    3.7270 O.3       1 <0>        -0.2809
     12 C9         -6.1511    1.8004    3.5213 C.3       1 <0>         0.1506
     13 H1         -6.6430    1.9218    4.4864 H         1 <0>         0.1300
     14 C10        -6.7458    0.6155    2.8071 C.2       1 <0>        -0.1676
     15 C11        -6.0107   -0.0783    1.9405 C.2       1 <0>        -0.1108
     16 C12        -6.3719    3.0594    2.6805 C.3       1 <0>        -0.1874
     17 C13        -6.9067    4.3017    3.3957 C.3       1 <0>        -0.1658
     18 C14        -7.8155    3.5119    2.4517 C.3       1 <0>        -0.1672
     19 C15        -4.5228   -1.0147   -0.3910 C.3       1 <0>        -0.0293
     20 C16        -5.2930   -0.2021   -1.3997 C.ar      1 <0>        -0.2174
     21 C17        -6.6475    0.0183   -1.2432 C.ar      1 <0>         0.2060
     22 C18        -6.6635    1.2452   -3.1951 C.ar      1 <0>         0.6687
     23 N1         -5.3658    1.0573   -3.3814 N.ar      1 <0>        -0.5657
     24 C19        -4.6523    0.3501   -2.5109 C.ar      1 <0>         0.5410
     25 N2         -3.2941    0.1594   -2.7057 N.pl3     1 <0>        -0.7765
     26 N3         -7.3766    1.9908   -4.1175 N.pl3     1 <0>        -0.7911
     27 H2          0.0130    0.0016    0.0713 H         1 <0>         0.0624
     28 H3          0.9903    1.4883    0.0188 H         1 <0>         0.1108
     29 H4         -0.5571    1.4091   -0.8572 H         1 <0>         0.0539
     30 H5         -2.0188   -0.0038   -0.4153 H         1 <0>         0.1306
     31 H6         -1.7310    4.0263    2.1148 H         1 <0>         0.0459
     32 H7         -3.1960    4.1924    3.1121 H         1 <0>         0.0449
     33 H8         -1.5888    4.3867    3.8521 H         1 <0>         0.0997
     34 H9         -7.7694    0.3286    2.9977 H         1 <0>         0.1384
     35 H10        -6.4251   -0.9246    1.4128 H         1 <0>         0.1330
     36 H11        -5.6617    3.2127    1.8680 H         1 <0>         0.1025
     37 H12        -7.1012    4.2221    4.4653 H         1 <0>         0.1038
     38 H13        -6.5482    5.2727    3.0539 H         1 <0>         0.0994
     39 H14        -8.0548    3.9632    1.4888 H         1 <0>         0.0944
     40 H15        -8.6079    2.9124    2.8999 H         1 <0>         0.1006
     41 H16        -3.7476   -1.5867   -0.9008 H         1 <0>         0.1015
     42 H17        -5.2015   -1.6975    0.1200 H         1 <0>         0.1140
     43 H18        -7.1723   -0.3909   -0.3925 H         1 <0>         0.2018
     44 H19        -2.7809   -0.3608   -2.0678 H         1 <0>         0.4281
     45 H20        -2.8562    0.5462   -3.4801 H         1 <0>         0.4293
     46 H21        -8.3274    2.1361   -3.9926 H         1 <0>         0.4308
     47 H22        -6.9255    2.3681   -4.8889 H         1 <0>         0.4429
     48 N4         -7.3691    0.7495   -2.1392 N.ar      1 <0>        -0.5935
     49 H23        -8.3488    0.8901   -1.9961 H         1 <0>         0.4626
@<TRIPOS>BOND
     1    1    2 1
     2    1   27 1
     3    1   28 1
     4    1   29 1
     5    2    3 1
     6    3    8 ar
     7    3    4 ar
     8    4    5 ar
     9    4   30 1
    10    5    6 ar
    11    5   19 1
    12    6   15 1
    13    6    7 ar
    14    7    8 ar
    15    7   11 1
    16    8    9 1
    17    9   10 1
    18   10   31 1
    19   10   32 1
    20   10   33 1
    21   11   12 1
    22   12   13 1
    23   12   14 1
    24   12   16 1
    25   14   15 2
    26   14   34 1
    27   15   35 1
    28   16   18 1
    29   16   17 1
    30   16   36 1
    31   17   18 1
    32   17   37 1
    33   17   38 1
    34   18   39 1
    35   18   40 1
    36   19   20 1
    37   19   41 1
    38   19   42 1
    39   20   24 ar
    40   20   21 ar
    41   21   43 1
    42   21   48 ar
    43   22   23 ar
    44   22   26 1
    45   22   48 ar
    46   23   24 ar
    47   24   25 1
    48   25   44 1
    49   25   45 1
    50   26   46 1
    51   26   47 1
    52   48   49 1
@<TRIPOS>MOLECULE
ZINC06627681
   39    40     0     0     0
SMALL
USER_CHARGES

@<TRIPOS>ATOM
      1 C1         -0.0173    1.4248    0.0099 C.3       1 <0>         0.0239
      2 O1          0.0021   -0.0041    0.0020 O.3       1 <0>        -0.3021
      3 C2         -1.2011   -0.6379    0.0101 C.ar      1 <0>         0.1549
      4 C3         -2.3748    0.1005    0.0195 C.ar      1 <0>        -0.2271
      5 C4         -3.5982   -0.5428    0.0277 C.ar      1 <0>        -0.0020
      6 C5         -3.6572   -1.9238    0.0266 C.ar      1 <0>        -0.2327
      7 C6         -2.4882   -2.6696    0.0172 C.ar      1 <0>         0.1543
      8 C7         -1.2561   -2.0266    0.0032 C.ar      1 <0>         0.0227
      9 O2         -0.1065   -2.7549   -0.0117 O.3       1 <0>        -0.3126
     10 C8          0.4536   -3.1089    1.2544 C.3       1 <0>         0.0351
     11 O3         -2.5472   -4.0282    0.0166 O.3       1 <0>        -0.3013
     12 C9         -3.8474   -4.6211    0.0259 C.3       1 <0>         0.0236
     13 C10        -4.8712    0.2637    0.0384 C.3       1 <0>        -0.0163
     14 C11        -5.3062    0.5346   -1.3789 C.ar      1 <0>        -0.3083
     15 C12        -4.9545    1.7101   -2.0132 C.ar      1 <0>         0.2250
     16 N1         -5.3522    1.9181   -3.2597 N.ar      1 <0>        -0.6043
     17 C13        -6.0798    1.0161   -3.9019 C.ar      1 <0>         0.6032
     18 N2         -6.4382   -0.1231   -3.3293 N.ar      1 <0>        -0.6263
     19 C14        -6.0690   -0.3996   -2.0826 C.ar      1 <0>         0.4894
     20 N3         -6.4404   -1.5946   -1.4883 N.pl3     1 <0>        -0.8360
     21 N4         -6.4756    1.2708   -5.2034 N.pl3     1 <0>        -0.8207
     22 H1          1.0053    1.8021    0.0021 H         1 <0>         0.1035
     23 H2         -0.5445    1.7859   -0.8732 H         1 <0>         0.0589
     24 H3         -0.5275    1.7763    0.9067 H         1 <0>         0.0581
     25 H4         -2.3329    1.1797    0.0207 H         1 <0>         0.1363
     26 H5         -4.6151   -2.4227    0.0334 H         1 <0>         0.1280
     27 H6         -0.2648   -3.7070    1.8151 H         1 <0>         0.0438
     28 H7          1.3650   -3.6864    1.0998 H         1 <0>         0.0924
     29 H8          0.6878   -2.2033    1.8141 H         1 <0>         0.0441
     30 H9         -4.3845   -4.3050    0.9202 H         1 <0>         0.0570
     31 H10        -4.3978   -4.3036   -0.8597 H         1 <0>         0.0568
     32 H11        -3.7517   -5.7069    0.0243 H         1 <0>         0.1041
     33 H12        -5.6506   -0.2944    0.5572 H         1 <0>         0.0773
     34 H13        -4.6980    1.2092    0.5523 H         1 <0>         0.0904
     35 H14        -4.3619    2.4519   -1.4984 H         1 <0>         0.1633
     36 H15        -6.1706   -1.7873   -0.5767 H         1 <0>         0.4079
     37 H16        -6.2200    2.1014   -5.6342 H         1 <0>         0.4156
     38 H17        -7.0085    0.6187   -5.6847 H         1 <0>         0.4133
     39 H18        -6.9704   -2.2385   -1.9837 H         1 <0>         0.4067
@<TRIPOS>BOND
     1    1    2 1
     2    1   22 1
     3    1   23 1
     4    1   24 1
     5    2    3 1
     6    3    8 ar
     7    3    4 ar
     8    4    5 ar
     9    4   25 1
    10    5    6 ar
    11    5   13 1
    12    6    7 ar
    13    6   26 1
    14    7    8 ar
    15    7   11 1
    16    8    9 1
    17    9   10 1
    18   10   27 1
    19   10   28 1
    20   10   29 1
    21   11   12 1
    22   12   30 1
    23   12   31 1
    24   12   32 1
    25   13   14 1
    26   13   33 1
    27   13   34 1
    28   14   19 ar
    29   14   15 ar
    30   15   16 ar
    31   15   35 1
    32   16   17 ar
    33   17   18 ar
    34   17   21 1
    35   18   19 ar
    36   19   20 1
    37   20   36 1
    38   20   39 1
    39   21   37 1
    40   21   38 1
@<TRIPOS>MOLECULE
ZINC06627681
   40    41     0     0     0
SMALL
USER_CHARGES

@<TRIPOS>ATOM
      1 C1         -0.0173    1.4248    0.0099 C.3       1 <0>         0.0236
      2 O1          0.0021   -0.0041    0.0020 O.3       1 <0>        -0.2966
      3 C2          0.6062   -0.6075   -1.0565 C.ar      1 <0>         0.1590
      4 C3          1.1731    0.1601   -2.0626 C.ar      1 <0>        -0.2276
      5 C4          1.7874   -0.4523   -3.1388 C.ar      1 <0>        -0.0278
      6 C5          1.8393   -1.8314   -3.2169 C.ar      1 <0>        -0.2351
      7 C6          1.2749   -2.6062   -2.2150 C.ar      1 <0>         0.1601
      8 C7          0.6613   -1.9944   -1.1284 C.ar      1 <0>         0.0371
      9 O2          0.1111   -2.7512   -0.1402 O.3       1 <0>        -0.3127
     10 C8         -1.2598   -3.1236   -0.2953 C.3       1 <0>         0.0346
     11 O3          1.3261   -3.9630   -2.2930 O.3       1 <0>        -0.2955
     12 C9          1.9770   -4.5231   -3.4352 C.3       1 <0>         0.0221
     13 C10         2.4017    0.3858   -4.2302 C.3       1 <0>        -0.0295
     14 C11         3.8422    0.6725   -3.8928 C.ar      1 <0>        -0.2227
     15 C12         4.1975    1.8410   -3.2477 C.ar      1 <0>         0.2105
     16 N1          5.4726    2.0633   -2.9647 N.ar      1 <0>        -0.5697
     17 C13         6.4065    1.1822   -3.2920 C.ar      1 <0>         0.6625
     18 N2          6.1075    0.0504   -3.9114 N.ar      1 <0>        -0.5720
     19 C14         4.8475   -0.2398   -4.2201 C.ar      1 <0>         0.5372
     20 N3          4.5370   -1.4272   -4.8628 N.pl3     1 <0>        -0.7792
     21 N4          7.7275    1.4516   -2.9793 N.pl3     1 <0>        -0.7906
     22 H1          1.0053    1.8021    0.0021 H         1 <0>         0.0555
     23 H2         -0.5445    1.7859   -0.8732 H         1 <0>         0.0607
     24 H3         -0.5275    1.7763    0.9067 H         1 <0>         0.1087
     25 H4          1.1343    1.2379   -2.0054 H         1 <0>         0.1378
     26 H5          2.3199   -2.3061   -4.0596 H         1 <0>         0.1268
     27 H6         -1.3771   -3.7054   -1.2095 H         1 <0>         0.0473
     28 H7         -1.5724   -3.7233    0.5596 H         1 <0>         0.0987
     29 H8         -1.8756   -2.2262   -0.3542 H         1 <0>         0.0474
     30 H9          1.4660   -4.1967   -4.3410 H         1 <0>         0.0599
     31 H10         3.0141   -4.1888   -3.4626 H         1 <0>         0.0544
     32 H11         1.9474   -5.6109   -3.3732 H         1 <0>         0.1103
     33 H12         2.3506   -0.1544   -5.1756 H         1 <0>         0.0994
     34 H13         1.8554    1.3249   -4.3183 H         1 <0>         0.1128
     35 H14         3.4440    2.5659   -2.9772 H         1 <0>         0.2147
     36 H15         3.6157   -1.6298   -5.0887 H         1 <0>         0.4275
     37 H16         7.9600    2.2771   -2.5260 H         1 <0>         0.4311
     38 H17         8.4208    0.8149   -3.2134 H         1 <0>         0.4453
     39 H18         5.2409   -2.0558   -5.0868 H         1 <0>         0.4288
     40 H19         5.7260    2.8827   -2.5117 H         1 <0>         0.4452
@<TRIPOS>BOND
     1    1    2 1
     2    1   22 1
     3    1   23 1
     4    1   24 1
     5    2    3 1
     6    3    8 ar
     7    3    4 ar
     8    4    5 ar
     9    4   25 1
    10    5    6 ar
    11    5   13 1
    12    6    7 ar
    13    6   26 1
    14    7    8 ar
    15    7   11 1
    16    8    9 1
    17    9   10 1
    18   10   27 1
    19   10   28 1
    20   10   29 1
    21   11   12 1
    22   12   30 1
    23   12   31 1
    24   12   32 1
    25   13   14 1
    26   13   33 1
    27   13   34 1
    28   14   19 ar
    29   14   15 ar
    30   15   16 ar
    31   15   35 1
    32   16   17 ar
    33   16   40 1
    34   17   18 ar
    35   17   21 1
    36   18   19 ar
    37   19   20 1
    38   20   36 1
    39   20   39 1
    40   21   37 1
    41   21   38 1
