@<TRIPOS>MOLECULE
ZINC00001590
   17    17     0     0     0
SMALL
USER_CHARGES

@<TRIPOS>ATOM
      1 C1         -0.0169    1.3940    0.0097 C.ar      1 <0>        -0.1136
      2 C2          1.1821    2.0801    0.0019 C.ar      1 <0>         0.1015
      3 N1          2.3313    1.4346   -0.0129 N.ar      1 <0>        -0.4676
      4 C3          2.3939    0.1180   -0.0206 C.ar      1 <0>         0.0997
      5 C4          1.2436   -0.6470   -0.0138 C.ar      1 <0>        -0.1463
      6 C5          0.0021   -0.0041    0.0020 C.ar      1 <0>        -0.0828
      7 C6         -1.2583   -0.7826    0.0104 C.2       1 <0>         0.5589
      8 O1         -2.3282   -0.2066    0.0241 O.2       1 <0>        -0.5138
      9 N2         -1.2184   -2.1297    0.0027 N.am      1 <0>        -0.5702
     10 N3         -2.3805   -2.8476    0.0104 N.3       1 <0>        -0.6005
     11 H1         -0.9547    1.9293    0.0260 H         1 <0>         0.1510
     12 H2          1.1778    3.1601    0.0078 H         1 <0>         0.1672
     13 H3          3.3576   -0.3693   -0.0328 H         1 <0>         0.1645
     14 H4          1.3024   -1.7253   -0.0208 H         1 <0>         0.1376
     15 H5         -0.3643   -2.5896   -0.0082 H         1 <0>         0.4020
     16 H6         -2.9724   -2.5858   -0.7637 H         1 <0>         0.3506
     17 H7         -2.1932   -3.8390    0.0032 H         1 <0>         0.3619
@<TRIPOS>BOND
     1    1    6 ar
     2    1    2 ar
     3    1   11 1
     4    2    3 ar
     5    2   12 1
     6    3    4 ar
     7    4    5 ar
     8    4   13 1
     9    5    6 ar
    10    5   14 1
    11    6    7 1
    12    7    8 2
    13    7    9 am
    14    9   10 1
    15    9   15 1
    16   10   16 1
    17   10   17 1
