@<TRIPOS>MOLECULE
ZINC12321007
   44    47     0     0     0
SMALL
USER_CHARGES
(4R,7R)-2-amino-5-oxo-4,7-diphenyl-4,6,7,8-tetrahydrochromene-3-carbonitrile
@<TRIPOS>ATOM
      1 C1         -4.8076    5.4907    0.5437 C.ar      1 <0>        -0.1178
      2 C2         -4.2334    5.1932    1.7655 C.ar      1 <0>        -0.1166
      3 C3         -3.0493    4.4818    1.8179 C.ar      1 <0>        -0.1096
      4 C4         -2.4399    4.0671    0.6485 C.ar      1 <0>        -0.0836
      5 C5         -3.0115    4.3687   -0.5734 C.ar      1 <0>        -0.1142
      6 C6         -4.1979    5.0763   -0.6257 C.ar      1 <0>        -0.1166
      7 C7         -1.1491    3.2915    0.7056 C.3       1 <0>        -0.0376
      8 H1         -0.8773    3.1612    1.7635 H         1 <0>         0.0975
      9 C8         -0.0544    4.0594   -0.0377 C.3       1 <0>        -0.0738
     10 C9          1.2296    3.2637   -0.0140 C.2       1 <0>         0.1662
     11 C10         1.2030    1.9184    0.0009 C.2       1 <0>        -0.2587
     12 C11         2.4869    1.1245    0.0086 C.3       1 <0>         0.0928
     13 H2          2.3918    0.2747   -0.6833 H         1 <0>         0.0977
     14 C12         3.6322    1.9899   -0.4374 C.2       1 <0>        -0.2760
     15 C13         3.5186    3.3402   -0.4204 C.2       1 <0>         0.4347
     16 O1          2.3927    3.9416   -0.0058 O.3       1 <0>        -0.2407
     17 N1          4.5771    4.1090   -0.8363 N.pl3     1 <0>        -0.8548
     18 C14         4.8506    1.3838   -0.8831 C.1       1 <0>         0.2753
     19 N2          5.8173    0.9030   -1.2366 N.1       1 <0>        -0.4459
     20 C15         2.7549    0.6213    1.4036 C.ar      1 <0>        -0.0704
     21 C16         2.9143    1.5184    2.4432 C.ar      1 <0>        -0.1068
     22 C17         3.1558    1.0567    3.7236 C.ar      1 <0>        -0.1218
     23 C18         3.2474   -0.3017    3.9627 C.ar      1 <0>        -0.1218
     24 C19         3.0928   -1.1986    2.9222 C.ar      1 <0>        -0.1190
     25 C20         2.8470   -0.7371    1.6426 C.ar      1 <0>        -0.1008
     26 C21        -0.0144    1.2105    0.0087 C.2       1 <0>         0.4041
     27 O2          0.0021   -0.0041    0.0020 O.2       1 <0>        -0.4459
     28 C22        -1.3351    1.9311    0.0190 C.3       1 <0>        -0.1619
     29 H3         -5.7327    6.0465    0.5028 H         1 <0>         0.1225
     30 H4         -4.7098    5.5170    2.6791 H         1 <0>         0.1238
     31 H5         -2.6006    4.2497    2.7724 H         1 <0>         0.1241
     32 H6         -2.5331    4.0484   -1.4872 H         1 <0>         0.1229
     33 H7         -4.6466    5.3084   -1.5802 H         1 <0>         0.1235
     34 H8         -0.3641    4.2218   -1.0806 H         1 <0>         0.1105
     35 H9          0.1090    5.0308    0.4518 H         1 <0>         0.1058
     36 H10         4.4972    5.2061   -0.8272 H         1 <0>         0.4337
     37 H11         5.5052    3.6280   -1.1787 H         1 <0>         0.4509
     38 H12         2.8468    2.5799    2.2557 H         1 <0>         0.1120
     39 H13         3.2763    1.7574    4.5366 H         1 <0>         0.1197
     40 H14         3.4394   -0.6623    4.9624 H         1 <0>         0.1201
     41 H15         3.1644   -2.2599    3.1090 H         1 <0>         0.1213
     42 H16         2.7265   -1.4378    0.8296 H         1 <0>         0.1212
     43 H17        -2.0789    1.3395    0.5729 H         1 <0>         0.1059
     44 H18        -1.6841    2.0857   -1.0126 H         1 <0>         0.1083
@<TRIPOS>BOND
     1    1    6 ar
     2    1    2 ar
     3    1   29 1
     4    2    3 ar
     5    2   30 1
     6    3    4 ar
     7    3   31 1
     8    4    5 ar
     9    4    7 1
    10    5    6 ar
    11    5   32 1
    12    6   33 1
    13    7    8 1
    14    7   28 1
    15    7    9 1
    16    9   10 1
    17    9   34 1
    18    9   35 1
    19   10   16 1
    20   10   11 2
    21   11   12 1
    22   11   26 1
    23   12   13 1
    24   12   14 1
    25   12   20 1
    26   14   15 2
    27   14   18 1
    28   15   16 1
    29   15   17 1
    30   17   36 1
    31   17   37 1
    32   18   19 3
    33   20   25 ar
    34   20   21 ar
    35   21   22 ar
    36   21   38 1
    37   22   23 ar
    38   22   39 1
    39   23   24 ar
    40   23   40 1
    41   24   25 ar
    42   24   41 1
    43   25   42 1
    44   26   27 2
    45   26   28 1
    46   28   43 1
    47   28   44 1
@<TRIPOS>MOLECULE
ZINC12321008
   44    47     0     0     0
SMALL
USER_CHARGES
(4S,7R)-2-amino-5-oxo-4,7-diphenyl-4,6,7,8-tetrahydrochromene-3-carbonitrile
@<TRIPOS>ATOM
      1 C1          6.1732   -5.0445   -3.2186 C.ar      1 <0>        -0.1175
      2 C2          5.3607   -4.4078   -4.1380 C.ar      1 <0>        -0.1169
      3 C3          4.1354   -3.9031   -3.7447 C.ar      1 <0>        -0.1100
      4 C4          3.7221   -4.0360   -2.4323 C.ar      1 <0>        -0.0840
      5 C5          4.5367   -4.6684   -1.5118 C.ar      1 <0>        -0.1134
      6 C6          5.7602   -5.1770   -1.9060 C.ar      1 <0>        -0.1164
      7 C7          2.3862   -3.4858   -2.0036 C.3       1 <0>        -0.0372
      8 H1          1.9060   -3.0316   -2.8829 H         1 <0>         0.0959
      9 C8          2.5893   -2.4397   -0.9059 C.3       1 <0>        -0.0739
     10 C9          1.2479   -1.9170   -0.4477 C.2       1 <0>         0.1667
     11 C10         0.1589   -2.7071   -0.4720 C.2       1 <0>        -0.2591
     12 C11        -1.1786   -2.1864   -0.0039 C.3       1 <0>         0.0930
     13 H2         -1.9623   -2.5318   -0.6942 H         1 <0>         0.0975
     14 C12        -1.1706   -0.6833    0.0152 C.2       1 <0>        -0.2764
     15 C13         0.0021   -0.0041    0.0020 C.2       1 <0>         0.4353
     16 O1          1.1812   -0.6448   -0.0127 O.3       1 <0>        -0.2412
     17 N1         -0.0165    1.3686    0.0096 N.pl3     1 <0>        -0.8547
     18 C14        -2.4091    0.0350    0.0424 C.1       1 <0>         0.2754
     19 N2         -3.3916    0.6049    0.0640 N.1       1 <0>        -0.4460
     20 C15        -1.4553   -2.6978    1.3864 C.ar      1 <0>        -0.0699
     21 C16        -0.5903   -2.3916    2.4203 C.ar      1 <0>        -0.1073
     22 C17        -0.8465   -2.8571    3.6965 C.ar      1 <0>        -0.1218
     23 C18        -1.9627   -3.6363    3.9369 C.ar      1 <0>        -0.1219
     24 C19        -2.8248   -3.9469    2.9019 C.ar      1 <0>        -0.1190
     25 C20        -2.5710   -3.4778    1.6266 C.ar      1 <0>        -0.1006
     26 C21         0.2284   -4.0356   -0.9337 C.2       1 <0>         0.4042
     27 O2         -0.7722   -4.7242   -0.9218 O.2       1 <0>        -0.4455
     28 C22         1.5196   -4.6177   -1.4413 C.3       1 <0>        -0.1620
     29 H3          7.1306   -5.4389   -3.5258 H         1 <0>         0.1227
     30 H4          5.6834   -4.3044   -5.1634 H         1 <0>         0.1238
     31 H5          3.5007   -3.4054   -4.4629 H         1 <0>         0.1238
     32 H6          4.2158   -4.7683   -0.4855 H         1 <0>         0.1234
     33 H7          6.3949   -5.6747   -1.1878 H         1 <0>         0.1238
     34 H8          3.1125   -2.8988   -0.0541 H         1 <0>         0.1110
     35 H9          3.1904   -1.6069   -1.2997 H         1 <0>         0.1048
     36 H10         0.9285    1.9315   -0.0010 H         1 <0>         0.4336
     37 H11        -0.9764    1.9056    0.0262 H         1 <0>         0.4509
     38 H12         0.2838   -1.7860    2.2317 H         1 <0>         0.1119
     39 H13        -0.1731   -2.6142    4.5052 H         1 <0>         0.1197
     40 H14        -2.1614   -4.0022    4.9335 H         1 <0>         0.1201
     41 H15        -3.6969   -4.5556    3.0898 H         1 <0>         0.1214
     42 H16        -3.2445   -3.7204    0.8180 H         1 <0>         0.1212
     43 H17         1.3111   -5.3492   -2.2359 H         1 <0>         0.1060
     44 H18         2.0536   -5.1136   -0.6173 H         1 <0>         0.1086
@<TRIPOS>BOND
     1    1    6 ar
     2    1    2 ar
     3    1   29 1
     4    2    3 ar
     5    2   30 1
     6    3    4 ar
     7    3   31 1
     8    4    5 ar
     9    4    7 1
    10    5    6 ar
    11    5   32 1
    12    6   33 1
    13    7    8 1
    14    7   28 1
    15    7    9 1
    16    9   10 1
    17    9   34 1
    18    9   35 1
    19   10   16 1
    20   10   11 2
    21   11   12 1
    22   11   26 1
    23   12   13 1
    24   12   14 1
    25   12   20 1
    26   14   15 2
    27   14   18 1
    28   15   16 1
    29   15   17 1
    30   17   36 1
    31   17   37 1
    32   18   19 3
    33   20   25 ar
    34   20   21 ar
    35   21   22 ar
    36   21   38 1
    37   22   23 ar
    38   22   39 1
    39   23   24 ar
    40   23   40 1
    41   24   25 ar
    42   24   41 1
    43   25   42 1
    44   26   27 2
    45   26   28 1
    46   28   43 1
    47   28   44 1
@<TRIPOS>MOLECULE
ZINC12321009
   44    47     0     0     0
SMALL
USER_CHARGES
(4R,7S)-2-amino-5-oxo-4,7-diphenyl-4,6,7,8-tetrahydrochromene-3-carbonitrile
@<TRIPOS>ATOM
      1 C1         -1.2190    1.7506    0.0173 C.ar      1 <0>        -0.1175
      2 C2         -0.0126    1.0758    0.0080 C.ar      1 <0>        -0.1168
      3 C3          1.1750    1.7832    0.0004 C.ar      1 <0>        -0.1100
      4 C4          1.1563    3.1654    0.0081 C.ar      1 <0>        -0.0840
      5 C5         -0.0501    3.8402    0.0223 C.ar      1 <0>        -0.1134
      6 C6         -1.2377    3.1328    0.0294 C.ar      1 <0>        -0.1164
      7 C7          2.4510    3.9366    0.0003 C.3       1 <0>        -0.0371
      8 H1          3.2791    3.2129   -0.0222 H         1 <0>         0.0959
      9 C8          2.5014    4.8443   -1.2301 C.3       1 <0>        -0.0739
     10 C9          3.7808    5.6478   -1.2170 C.2       1 <0>         0.1669
     11 C10         4.3521    6.0095   -0.0536 C.2       1 <0>        -0.2592
     12 C11         5.6227    6.8247   -0.0425 C.3       1 <0>         0.0930
     13 H2          6.2970    6.4347    0.7342 H         1 <0>         0.0976
     14 C12         6.3075    6.7302   -1.3774 C.2       1 <0>        -0.2765
     15 C13         5.6220    6.3183   -2.4715 C.2       1 <0>         0.4354
     16 O1          4.3225    5.9909   -2.4003 O.3       1 <0>        -0.2412
     17 N1          6.2709    6.2335   -3.6782 N.pl3     1 <0>        -0.8547
     18 C14         7.6920    7.0771   -1.4935 C.1       1 <0>         0.2754
     19 N2          8.7903    7.3522   -1.5856 N.1       1 <0>        -0.4460
     20 C15         5.2893    8.2661    0.2447 C.ar      1 <0>        -0.0701
     21 C16         4.4550    8.9655   -0.6071 C.ar      1 <0>        -0.1073
     22 C17         4.1457   10.2863   -0.3412 C.ar      1 <0>        -0.1218
     23 C18         4.6785   10.9105    0.7712 C.ar      1 <0>        -0.1218
     24 C19         5.5166   10.2125    1.6204 C.ar      1 <0>        -0.1190
     25 C20         5.8224    8.8904    1.3569 C.ar      1 <0>        -0.1006
     26 C21         3.7886    5.6432    1.1839 C.2       1 <0>         0.4042
     27 O2          4.3241    6.0035    2.2130 O.2       1 <0>        -0.4456
     28 C22         2.5357    4.8134    1.2544 C.3       1 <0>        -0.1619
     29 H3         -2.1469    1.1980    0.0188 H         1 <0>         0.1227
     30 H4          0.0021   -0.0041    0.0020 H         1 <0>         0.1238
     31 H5          2.1175    1.2560   -0.0111 H         1 <0>         0.1238
     32 H6         -0.0647    4.9201    0.0283 H         1 <0>         0.1234
     33 H7         -2.1802    3.6601    0.0409 H         1 <0>         0.1238
     34 H8          2.4661    4.2291   -2.1413 H         1 <0>         0.1048
     35 H9          1.6404    5.5288   -1.2163 H         1 <0>         0.1110
     36 H10         5.7257    5.9005   -4.5737 H         1 <0>         0.4337
     37 H11         7.3361    6.4985   -3.7497 H         1 <0>         0.4510
     38 H12         4.0420    8.4790   -1.4784 H         1 <0>         0.1118
     39 H13         3.4906   10.8316   -1.0045 H         1 <0>         0.1197
     40 H14         4.4395   11.9434    0.9771 H         1 <0>         0.1201
     41 H15         5.9329   10.7001    2.4895 H         1 <0>         0.1214
     42 H16         6.4776    8.3451    2.0201 H         1 <0>         0.1213
     43 H17         1.6556    5.4715    1.3018 H         1 <0>         0.1086
     44 H18         2.5632    4.1730    2.1484 H         1 <0>         0.1059
@<TRIPOS>BOND
     1    1    6 ar
     2    1    2 ar
     3    1   29 1
     4    2    3 ar
     5    2   30 1
     6    3    4 ar
     7    3   31 1
     8    4    5 ar
     9    4    7 1
    10    5    6 ar
    11    5   32 1
    12    6   33 1
    13    7    8 1
    14    7   28 1
    15    7    9 1
    16    9   10 1
    17    9   34 1
    18    9   35 1
    19   10   16 1
    20   10   11 2
    21   11   12 1
    22   11   26 1
    23   12   13 1
    24   12   14 1
    25   12   20 1
    26   14   15 2
    27   14   18 1
    28   15   16 1
    29   15   17 1
    30   17   36 1
    31   17   37 1
    32   18   19 3
    33   20   25 ar
    34   20   21 ar
    35   21   22 ar
    36   21   38 1
    37   22   23 ar
    38   22   39 1
    39   23   24 ar
    40   23   40 1
    41   24   25 ar
    42   24   41 1
    43   25   42 1
    44   26   27 2
    45   26   28 1
    46   28   43 1
    47   28   44 1
@<TRIPOS>MOLECULE
ZINC12321010
   44    47     0     0     0
SMALL
USER_CHARGES
(4S,7S)-2-amino-5-oxo-4,7-diphenyl-4,6,7,8-tetrahydrochromene-3-carbonitrile
@<TRIPOS>ATOM
      1 C1         -1.0655   -5.4954    7.0982 C.ar      1 <0>        -0.1178
      2 C2          0.1449   -4.9181    6.7626 C.ar      1 <0>        -0.1166
      3 C3          0.2428   -4.1230    5.6361 C.ar      1 <0>        -0.1095
      4 C4         -0.8696   -3.9060    4.8445 C.ar      1 <0>        -0.0835
      5 C5         -2.0811   -4.4794    5.1827 C.ar      1 <0>        -0.1142
      6 C6         -2.1780   -5.2776    6.3071 C.ar      1 <0>        -0.1167
      7 C7         -0.7629   -3.0392    3.6163 C.3       1 <0>        -0.0374
      8 H1          0.2780   -2.6939    3.5315 H         1 <0>         0.0971
      9 C8         -1.1596   -3.8483    2.3801 C.3       1 <0>        -0.0738
     10 C9         -1.0925   -2.9686    1.1537 C.2       1 <0>         0.1662
     11 C10        -1.3460   -1.6498    1.2401 C.2       1 <0>        -0.2588
     12 C11        -1.2926   -0.7753    0.0108 C.3       1 <0>         0.0928
     13 H2         -2.1428   -0.0775    0.0249 H         1 <0>         0.0976
     14 C12        -1.3774   -1.6211   -1.2289 C.2       1 <0>        -0.2759
     15 C13        -1.1145   -2.9494   -1.1721 C.2       1 <0>         0.4346
     16 O1         -0.7700   -3.5446   -0.0196 O.3       1 <0>        -0.2407
     17 N1         -1.2019   -3.7015   -2.3172 N.pl3     1 <0>        -0.8548
     18 C14        -1.7382   -1.0198   -2.4775 C.1       1 <0>         0.2753
     19 N2         -2.0244   -0.5428   -3.4680 N.1       1 <0>        -0.4459
     20 C15         0.0021   -0.0041    0.0020 C.ar      1 <0>        -0.0703
     21 C16        -0.0167    1.3781    0.0096 C.ar      1 <0>        -0.1008
     22 C17         1.1710    2.0855    0.0021 C.ar      1 <0>        -0.1190
     23 C18         2.3773    1.4107   -0.0145 C.ar      1 <0>        -0.1218
     24 C19         2.3960    0.0285   -0.0212 C.ar      1 <0>        -0.1218
     25 C20         1.2084   -0.6789   -0.0132 C.ar      1 <0>        -0.1069
     26 C21        -1.6654   -1.0450    2.4710 C.2       1 <0>         0.4042
     27 O2         -1.9031    0.1457    2.5065 O.2       1 <0>        -0.4458
     28 C22        -1.7170   -1.8468    3.7431 C.3       1 <0>        -0.1621
     29 H3         -1.1420   -6.1163    7.9785 H         1 <0>         0.1225
     30 H4          1.0140   -5.0880    7.3808 H         1 <0>         0.1238
     31 H5          1.1883   -3.6717    5.3741 H         1 <0>         0.1241
     32 H6         -2.9511   -4.3062    4.5667 H         1 <0>         0.1229
     33 H7         -3.1238   -5.7283    6.5695 H         1 <0>         0.1235
     34 H8         -0.4689   -4.6959    2.2595 H         1 <0>         0.1059
     35 H9         -2.1855   -4.2259    2.5027 H         1 <0>         0.1105
     36 H10        -0.9909   -4.7806   -2.2839 H         1 <0>         0.4337
     37 H11        -1.4829   -3.2251   -3.2680 H         1 <0>         0.4509
     38 H12        -0.9592    1.9054    0.0170 H         1 <0>         0.1212
     39 H13         1.1563    3.1654    0.0077 H         1 <0>         0.1213
     40 H14         3.3052    1.9634   -0.0201 H         1 <0>         0.1201
     41 H15         3.3386   -0.4987   -0.0324 H         1 <0>         0.1197
     42 H16         1.2231   -1.7588   -0.0184 H         1 <0>         0.1120
     43 H17        -2.7407   -2.2126    3.9112 H         1 <0>         0.1081
     44 H18        -1.4082   -1.2187    4.5917 H         1 <0>         0.1059
@<TRIPOS>BOND
     1    1    6 ar
     2    1    2 ar
     3    1   29 1
     4    2    3 ar
     5    2   30 1
     6    3    4 ar
     7    3   31 1
     8    4    5 ar
     9    4    7 1
    10    5    6 ar
    11    5   32 1
    12    6   33 1
    13    7    8 1
    14    7   28 1
    15    7    9 1
    16    9   10 1
    17    9   34 1
    18    9   35 1
    19   10   16 1
    20   10   11 2
    21   11   12 1
    22   11   26 1
    23   12   13 1
    24   12   14 1
    25   12   20 1
    26   14   15 2
    27   14   18 1
    28   15   16 1
    29   15   17 1
    30   17   36 1
    31   17   37 1
    32   18   19 3
    33   20   25 ar
    34   20   21 ar
    35   21   22 ar
    36   21   38 1
    37   22   23 ar
    38   22   39 1
    39   23   24 ar
    40   23   40 1
    41   24   25 ar
    42   24   41 1
    43   25   42 1
    44   26   27 2
    45   26   28 1
    46   28   43 1
    47   28   44 1
@<TRIPOS>MOLECULE
ZINC13831242
   38    39     0     0     0
SMALL
USER_CHARGES

@<TRIPOS>ATOM
      1 C1          0.0520    1.4663   -0.7361 C.ar      1 <0>        -0.1242
      2 C2          1.2725    2.1064   -0.6521 C.ar      1 <0>        -0.1071
      3 C3          2.3638    1.4503   -0.1009 C.ar      1 <0>         0.0603
      4 C4          2.2294    0.1505    0.3657 C.ar      1 <0>        -0.0944
      5 C5          1.0094   -0.4906    0.2822 C.ar      1 <0>        -0.1044
      6 C6         -0.0832    0.1657   -0.2689 C.ar      1 <0>         0.1418
      7 N1         -1.3214   -0.4843   -0.3539 N.am      1 <0>        -0.6616
      8 C7         -1.3716   -1.8095   -0.5941 C.2       1 <0>         0.5141
      9 O1         -0.3465   -2.4557   -0.6469 O.2       1 <0>        -0.5366
     10 C8         -2.7016   -2.4886   -0.7971 C.3       1 <0>        -0.1504
     11 C9         -2.4788   -3.9809   -1.0505 C.3       1 <0>        -0.0303
     12 H1         -1.8946   -4.4049   -0.2338 H         1 <0>         0.1411
     13 C10        -3.8109   -4.6810   -1.1313 C.2       1 <0>         0.4882
     14 O2         -4.3772   -4.7916   -2.2054 O.co2     1 <0>        -0.6632
     15 O3         -4.3222   -5.1369   -0.1228 O.co2     1 <0>        -0.6311
     16 N2         -1.7539   -4.1600   -2.3155 N.4       1 <0>        -0.6147
     17 O4          3.5652    2.0811   -0.0184 O.3       1 <0>        -0.2310
     18 C11         3.7402    2.9935    0.9739 C.ar      1 <0>         0.1722
     19 C12         2.7144    3.2468    1.8728 C.ar      1 <0>        -0.2030
     20 C13         2.8941    4.1756    2.8819 C.ar      1 <0>         0.1281
     21 C14         4.0991    4.8529    2.9946 C.ar      1 <0>         0.0439
     22 C15         5.1224    4.6005    2.0980 C.ar      1 <0>        -0.0582
     23 C16         4.9472    3.6684    1.0920 C.ar      1 <0>        -0.1098
     24 Br1         6.3495    3.3182   -0.1274 Br        1 <0>        -0.0043
     25 F1          4.2737    5.7603    3.9802 F         1 <0>        -0.1184
     26 F2          1.8955    4.4232    3.7576 F         1 <0>        -0.1146
     27 H2         -0.7985    1.9786   -1.1611 H         1 <0>         0.1395
     28 H3          1.3778    3.1179   -1.0158 H         1 <0>         0.1408
     29 H4          3.0793   -0.3599    0.7940 H         1 <0>         0.1416
     30 H5          0.9050   -1.5024    0.6451 H         1 <0>         0.1519
     31 H6         -2.1424    0.0194   -0.2399 H         1 <0>         0.4211
     32 H7         -3.3155   -2.3590    0.0942 H         1 <0>         0.1424
     33 H8         -3.2083   -2.0461   -1.6548 H         1 <0>         0.1220
     34 H9         -2.2948   -3.7676   -3.0715 H         1 <0>         0.4289
     35 H10        -0.8621   -3.6913   -2.2614 H         1 <0>         0.4208
     36 H11         1.7761    2.7194    1.7846 H         1 <0>         0.1597
     37 H12         6.0601    5.1289    2.1867 H         1 <0>         0.1668
     38 H13        -1.6070   -5.1442   -2.4826 H         1 <0>         0.4324
@<TRIPOS>BOND
     1    1    6 ar
     2    1    2 ar
     3    1   27 1
     4    2    3 ar
     5    2   28 1
     6    3    4 ar
     7    3   17 1
     8    4    5 ar
     9    4   29 1
    10    5    6 ar
    11    5   30 1
    12    6    7 1
    13    7    8 am
    14    7   31 1
    15    8    9 2
    16    8   10 1
    17   10   11 1
    18   10   32 1
    19   10   33 1
    20   11   12 1
    21   11   13 1
    22   11   16 1
    23   13   14 2
    24   13   15 1
    25   16   34 1
    26   16   35 1
    27   16   38 1
    28   17   18 1
    29   18   23 ar
    30   18   19 ar
    31   19   20 ar
    32   19   36 1
    33   20   21 ar
    34   20   26 1
    35   21   22 ar
    36   21   25 1
    37   22   23 ar
    38   22   37 1
    39   23   24 1
@<TRIPOS>MOLECULE
ZINC00752549
   48    51     0     0     0
SMALL
USER_CHARGES
2-amino-4-(4-methoxyphenyl)-5-oxo-7-phenyl-4,6,7,8-tetrahydrochromene-3-carbonitrile
@<TRIPOS>ATOM
      1 C1          3.5156    0.2940   -6.3109 C.3       1 <0>         0.0275
      2 O1          3.3869   -0.6997   -5.2920 O.3       1 <0>        -0.3180
      3 C2          3.1702   -0.2595   -4.0247 C.ar      1 <0>         0.1264
      4 C3          3.0356   -1.1697   -2.9864 C.ar      1 <0>        -0.1499
      5 C4          2.8149   -0.7197   -1.6991 C.ar      1 <0>        -0.0593
      6 C5          2.7277    0.6366   -1.4451 C.ar      1 <0>        -0.1104
      7 C6          2.8559    1.5457   -2.4790 C.ar      1 <0>        -0.0660
      8 C7          3.0828    1.1009   -3.7671 C.ar      1 <0>        -0.2084
      9 C8          2.4865    1.1248   -0.0399 C.3       1 <0>         0.0964
     10 H1          2.4031    0.2682    0.6289 H         1 <0>         0.0999
     11 C9          3.6401    1.9855    0.3934 C.2       1 <0>        -0.2576
     12 C10         3.5264    3.3359    0.3931 C.2       1 <0>         0.4225
     13 O2          2.3928    3.9416    0.0065 O.3       1 <0>        -0.2382
     14 C11         1.2301    3.2634    0.0297 C.2       1 <0>         0.1644
     15 C12         1.2030    1.9184    0.0009 C.2       1 <0>        -0.2575
     16 C13        -0.0144    1.2105    0.0087 C.2       1 <0>         0.4031
     17 O3          0.0021   -0.0041    0.0020 O.2       1 <0>        -0.4432
     18 C14        -1.3351    1.9311    0.0190 C.3       1 <0>        -0.1511
     19 C15        -1.1620    3.2987   -0.6440 C.3       1 <0>        -0.0376
     20 H2         -0.8869    3.1657   -1.6903 H         1 <0>         0.0962
     21 C16        -0.0532    4.0588    0.0865 C.3       1 <0>        -0.0723
     22 C17        -2.4514    4.0735   -0.5540 C.ar      1 <0>        -0.0832
     23 C18        -3.0054    4.3522    0.6814 C.ar      1 <0>        -0.1137
     24 C19        -4.1859    5.0667    0.7642 C.ar      1 <0>        -0.1165
     25 C20        -4.8173    5.4943   -0.3888 C.ar      1 <0>        -0.1172
     26 C21        -4.2657    5.2115   -1.6244 C.ar      1 <0>        -0.1167
     27 C22        -3.0830    4.5008   -1.7070 C.ar      1 <0>        -0.1089
     28 N1          4.5930    4.1002    0.7961 N.pl3     1 <0>        -0.8302
     29 C23         4.8668    1.3747    0.8092 C.1       1 <0>         0.2715
     30 N2          5.8399    0.8902    1.1390 N.1       1 <0>        -0.4377
     31 H3          2.6015    0.8859   -6.3587 H         1 <0>         0.0551
     32 H4          4.3584    0.9452   -6.0789 H         1 <0>         0.0548
     33 H5          3.6850   -0.1911   -7.2722 H         1 <0>         0.1002
     34 H6          3.1028   -2.2293   -3.1845 H         1 <0>         0.1309
     35 H7          2.7100   -1.4279   -0.8905 H         1 <0>         0.1299
     36 H8          2.7827    2.6044   -2.2788 H         1 <0>         0.1158
     37 H9          3.1869    1.8115   -4.5737 H         1 <0>         0.1265
     38 H10        -2.0120    1.3935   -0.4837 H         1 <0>         0.0941
     39 H11        -1.6685    2.0677    1.0477 H         1 <0>         0.1068
     40 H12        -0.3412    4.2091    1.1269 H         1 <0>         0.1102
     41 H13         0.0984    5.0268   -0.3910 H         1 <0>         0.1054
     42 H14        -2.5143    4.0145    1.5821 H         1 <0>         0.1234
     43 H15        -4.6167    5.2879    1.7296 H         1 <0>         0.1239
     44 H16        -5.7414    6.0496   -0.3242 H         1 <0>         0.1227
     45 H17        -4.7590    5.5456   -2.5252 H         1 <0>         0.1239
     46 H18        -2.6522    4.2795   -2.6723 H         1 <0>         0.1240
     47 H19         4.5227    5.0677    0.7994 H         1 <0>         0.4117
     48 H20         5.4171    3.6729    1.0775 H         1 <0>         0.4265
@<TRIPOS>BOND
     1    1    2 1
     2    1   31 1
     3    1   32 1
     4    1   33 1
     5    2    3 1
     6    3    8 ar
     7    3    4 ar
     8    4    5 ar
     9    4   34 1
    10    5    6 ar
    11    5   35 1
    12    6    7 ar
    13    6    9 1
    14    7    8 ar
    15    7   36 1
    16    8   37 1
    17    9   10 1
    18    9   15 1
    19    9   11 1
    20   11   12 2
    21   11   29 1
    22   12   13 1
    23   12   28 1
    24   13   14 1
    25   14   21 1
    26   14   15 2
    27   15   16 1
    28   16   17 2
    29   16   18 1
    30   18   19 1
    31   18   38 1
    32   18   39 1
    33   19   20 1
    34   19   21 1
    35   19   22 1
    36   21   40 1
    37   21   41 1
    38   22   27 ar
    39   22   23 ar
    40   23   24 ar
    41   23   42 1
    42   24   25 ar
    43   24   43 1
    44   25   26 ar
    45   25   44 1
    46   26   27 ar
    47   26   45 1
    48   27   46 1
    49   28   47 1
    50   28   48 1
    51   29   30 3
@<TRIPOS>MOLECULE
ZINC00752550
   48    51     0     0     0
SMALL
USER_CHARGES
(4R,7S)-2-amino-4-(4-methoxyphenyl)-5-oxo-7-phenyl-4,6,7,8-tetrahydrochromene-3-carbonitrile
@<TRIPOS>ATOM
      1 C1         -1.4019   -3.6742   -6.2209 C.3       1 <0>         0.0274
      2 O1         -2.3144   -4.0445   -5.1854 O.3       1 <0>        -0.3180
      3 C2         -2.0400   -3.5966   -3.9320 C.ar      1 <0>         0.1264
      4 C3         -2.8839   -3.9184   -2.8789 C.ar      1 <0>        -0.1500
      5 C4         -2.6030   -3.4616   -1.6058 C.ar      1 <0>        -0.0588
      6 C5         -1.4822   -2.6839   -1.3808 C.ar      1 <0>        -0.1101
      7 C6         -0.6426   -2.3571   -2.4296 C.ar      1 <0>        -0.0664
      8 C7         -0.9158   -2.8165   -3.7035 C.ar      1 <0>        -0.2084
      9 C8         -1.1784   -2.1865    0.0090 C.3       1 <0>         0.0967
     10 H1         -1.9461   -2.5444    0.6950 H         1 <0>         0.0996
     11 C9         -1.1706   -0.6833    0.0152 C.2       1 <0>        -0.2585
     12 C10         0.0021   -0.0041    0.0020 C.2       1 <0>         0.4234
     13 O2          1.1812   -0.6448   -0.0127 O.3       1 <0>        -0.2388
     14 C11         1.2562   -1.9213    0.4081 C.2       1 <0>         0.1648
     15 C12         0.1678   -2.7117    0.4457 C.2       1 <0>        -0.2575
     16 C13         0.2462   -4.0448    0.8925 C.2       1 <0>         0.4032
     17 O3         -0.7545   -4.7333    0.8932 O.2       1 <0>        -0.4428
     18 C14         1.5469   -4.6318    1.3690 C.3       1 <0>        -0.1520
     19 C15         2.4245   -3.5056    1.9257 C.3       1 <0>        -0.0371
     20 H2          1.9424   -3.0566    2.7941 H         1 <0>         0.0961
     21 C16         2.6063   -2.4485    0.8348 C.3       1 <0>        -0.0731
     22 C17         3.7684   -4.0599    2.3228 C.ar      1 <0>        -0.0840
     23 C18         4.5600   -4.6930    1.3829 C.ar      1 <0>        -0.1129
     24 C19         5.7947   -5.1976    1.7461 C.ar      1 <0>        -0.1165
     25 C20         6.2336   -5.0775    3.0514 C.ar      1 <0>        -0.1170
     26 C21         5.4399   -4.4487    3.9924 C.ar      1 <0>        -0.1170
     27 C22         4.2071   -3.9402    3.6282 C.ar      1 <0>        -0.1089
     28 N1         -0.0165    1.3686    0.0096 N.pl3     1 <0>        -0.8300
     29 C23        -2.4092    0.0351    0.0301 C.1       1 <0>         0.2716
     30 N2         -3.3919    0.6050    0.0419 N.1       1 <0>        -0.4378
     31 H3         -1.7371   -4.0958   -7.1685 H         1 <0>         0.1002
     32 H4         -1.3634   -2.5878   -6.2999 H         1 <0>         0.0548
     33 H5         -0.4090   -4.0567   -5.9840 H         1 <0>         0.0551
     34 H6         -3.7595   -4.5259   -3.0542 H         1 <0>         0.1310
     35 H7         -3.2596   -3.7119   -0.7857 H         1 <0>         0.1300
     36 H8          0.2296   -1.7455   -2.2521 H         1 <0>         0.1156
     37 H9         -0.2575   -2.5643   -4.5217 H         1 <0>         0.1265
     38 H10         2.0118   -5.0772    0.6038 H         1 <0>         0.0969
     39 H11         1.3536   -5.3651    2.1520 H         1 <0>         0.1052
     40 H12         3.1089   -2.8952   -0.0230 H         1 <0>         0.1098
     41 H13         3.2104   -1.6279    1.2218 H         1 <0>         0.1047
     42 H14         4.2153   -4.7904    0.3640 H         1 <0>         0.1233
     43 H15         6.4149   -5.6886    1.0108 H         1 <0>         0.1239
     44 H16         7.1967   -5.4748    3.3359 H         1 <0>         0.1228
     45 H17         5.7828   -4.3549    5.0122 H         1 <0>         0.1240
     46 H18         3.5869   -3.4492    4.3635 H         1 <0>         0.1243
     47 H19         0.8168    1.8649    0.0043 H         1 <0>         0.4116
     48 H20        -0.8631    1.8421    0.0162 H         1 <0>         0.4266
@<TRIPOS>BOND
     1    1    2 1
     2    1   31 1
     3    1   32 1
     4    1   33 1
     5    2    3 1
     6    3    8 ar
     7    3    4 ar
     8    4    5 ar
     9    4   34 1
    10    5    6 ar
    11    5   35 1
    12    6    7 ar
    13    6    9 1
    14    7    8 ar
    15    7   36 1
    16    8   37 1
    17    9   10 1
    18    9   15 1
    19    9   11 1
    20   11   12 2
    21   11   29 1
    22   12   13 1
    23   12   28 1
    24   13   14 1
    25   14   21 1
    26   14   15 2
    27   15   16 1
    28   16   17 2
    29   16   18 1
    30   18   19 1
    31   18   38 1
    32   18   39 1
    33   19   20 1
    34   19   21 1
    35   19   22 1
    36   21   40 1
    37   21   41 1
    38   22   27 ar
    39   22   23 ar
    40   23   24 ar
    41   23   42 1
    42   24   25 ar
    43   24   43 1
    44   25   26 ar
    45   25   44 1
    46   26   27 ar
    47   26   45 1
    48   27   46 1
    49   28   47 1
    50   28   48 1
    51   29   30 3
@<TRIPOS>MOLECULE
ZINC00752551
   48    51     0     0     0
SMALL
USER_CHARGES
2-amino-4-(4-methoxyphenyl)-5-oxo-7-phenyl-4,6,7,8-tetrahydrochromene-3-carbonitrile
@<TRIPOS>ATOM
      1 C1         -3.6105    3.0091    0.0518 C.3       1 <0>         0.0268
      2 O1         -2.4216    3.8019    0.0452 O.3       1 <0>        -0.3186
      3 C2         -1.2366    3.1368    0.0307 C.ar      1 <0>         0.1265
      4 C3         -1.2185    1.7496    0.0173 C.ar      1 <0>        -0.2064
      5 C4         -0.0126    1.0758    0.0080 C.ar      1 <0>        -0.0581
      6 C5          1.1757    1.7828    0.0004 C.ar      1 <0>        -0.1102
      7 C6          1.1603    3.1653    0.0084 C.ar      1 <0>        -0.0670
      8 C7         -0.0430    3.8438    0.0236 C.ar      1 <0>        -0.1522
      9 C8          2.4897    1.0452   -0.0161 C.3       1 <0>         0.0973
     10 H1          2.3017   -0.0284   -0.0201 H         1 <0>         0.0988
     11 C9          3.2573    1.4216   -1.2526 C.2       1 <0>        -0.2596
     12 C10         4.2768    2.3116   -1.1819 C.2       1 <0>         0.4245
     13 O2          4.6264    2.8836   -0.0193 O.3       1 <0>        -0.2387
     14 C11         4.2908    2.2967    1.1448 C.2       1 <0>         0.1661
     15 C12         3.2842    1.4099    1.2147 C.2       1 <0>        -0.2584
     16 C13         2.9384    0.7880    2.4328 C.2       1 <0>         0.4035
     17 O3          2.0120    0.0027    2.4606 O.2       1 <0>        -0.4442
     18 C14         3.6965    1.0811    3.6988 C.3       1 <0>        -0.1510
     19 C15         5.1315    1.4782    3.3362 C.3       1 <0>        -0.0372
     20 H2          5.6348    0.6418    2.8510 H         1 <0>         0.0956
     21 C16         5.0774    2.6706    2.3793 C.3       1 <0>        -0.0728
     22 C17         5.8810    1.8647    4.5851 C.ar      1 <0>        -0.0838
     23 C18         5.4240    2.9059    5.3712 C.ar      1 <0>        -0.1130
     24 C19         6.1091    3.2576    6.5192 C.ar      1 <0>        -0.1163
     25 C20         7.2566    2.5742    6.8760 C.ar      1 <0>        -0.1171
     26 C21         7.7163    1.5361    6.0874 C.ar      1 <0>        -0.1169
     27 C22         7.0288    1.1816    4.9417 C.ar      1 <0>        -0.1093
     28 N1          4.9664    2.6354   -2.3239 N.pl3     1 <0>        -0.8297
     29 C23         2.9089    0.8367   -2.5124 C.1       1 <0>         0.2722
     30 N2          2.6326    0.3727   -3.5119 N.1       1 <0>        -0.4390
     31 H3         -4.4829    3.6626    0.0633 H         1 <0>         0.1003
     32 H4         -3.6359    2.3849   -0.8414 H         1 <0>         0.0555
     33 H5         -3.6196    2.3753    0.9385 H         1 <0>         0.0561
     34 H6         -2.1464    1.1970    0.0184 H         1 <0>         0.1279
     35 H7          0.0021   -0.0041    0.0020 H         1 <0>         0.1252
     36 H8          2.0897    3.7153    0.0025 H         1 <0>         0.1200
     37 H9         -0.0545    4.9237    0.0295 H         1 <0>         0.1294
     38 H10         3.7057    0.2660    4.2781 H         1 <0>         0.0938
     39 H11         3.2144    1.9007    4.2317 H         1 <0>         0.1076
     40 H12         6.0906    2.9518    2.0925 H         1 <0>         0.1046
     41 H13         4.5943    3.5120    2.8762 H         1 <0>         0.1108
     42 H14         4.5298    3.4424    5.0902 H         1 <0>         0.1240
     43 H15         5.7498    4.0684    7.1355 H         1 <0>         0.1241
     44 H16         7.7937    2.8512    7.7711 H         1 <0>         0.1228
     45 H17         8.6127    1.0023    6.3661 H         1 <0>         0.1238
     46 H18         7.3881    0.3708    4.3254 H         1 <0>         0.1240
     47 H19         4.7221    2.2283   -3.1698 H         1 <0>         0.4265
     48 H20         5.6979    3.2712   -2.2849 H         1 <0>         0.4119
@<TRIPOS>BOND
     1    1    2 1
     2    1   31 1
     3    1   32 1
     4    1   33 1
     5    2    3 1
     6    3    8 ar
     7    3    4 ar
     8    4    5 ar
     9    4   34 1
    10    5    6 ar
    11    5   35 1
    12    6    7 ar
    13    6    9 1
    14    7    8 ar
    15    7   36 1
    16    8   37 1
    17    9   10 1
    18    9   15 1
    19    9   11 1
    20   11   12 2
    21   11   29 1
    22   12   13 1
    23   12   28 1
    24   13   14 1
    25   14   21 1
    26   14   15 2
    27   15   16 1
    28   16   17 2
    29   16   18 1
    30   18   19 1
    31   18   38 1
    32   18   39 1
    33   19   20 1
    34   19   21 1
    35   19   22 1
    36   21   40 1
    37   21   41 1
    38   22   27 ar
    39   22   23 ar
    40   23   24 ar
    41   23   42 1
    42   24   25 ar
    43   24   43 1
    44   25   26 ar
    45   25   44 1
    46   26   27 ar
    47   26   45 1
    48   27   46 1
    49   28   47 1
    50   28   48 1
    51   29   30 3
@<TRIPOS>MOLECULE
ZINC00752552
   48    51     0     0     0
SMALL
USER_CHARGES
2-amino-4-(4-methoxyphenyl)-5-oxo-7-phenyl-4,6,7,8-tetrahydrochromene-3-carbonitrile
@<TRIPOS>ATOM
      1 C1          0.7684    5.1496   -6.2606 C.3       1 <0>         0.0275
      2 O1         -0.1619    5.4837   -5.2286 O.3       1 <0>        -0.3180
      3 C2          0.1364    5.0662   -3.9702 C.ar      1 <0>         0.1265
      4 C3         -0.7228    5.3558   -2.9202 C.ar      1 <0>        -0.1500
      5 C4         -0.4176    4.9299   -1.6420 C.ar      1 <0>        -0.0592
      6 C5          0.7430    4.2156   -1.4087 C.ar      1 <0>        -0.1104
      7 C6          1.6038    3.9306   -2.4526 C.ar      1 <0>        -0.0658
      8 C7          1.3003    4.3493   -3.7336 C.ar      1 <0>        -0.2084
      9 C8          1.0735    3.7522   -0.0133 C.3       1 <0>         0.0965
     10 H1          0.2827    4.0679    0.6672 H         1 <0>         0.0999
     11 C9          2.3769    4.3635    0.4193 C.2       1 <0>        -0.2577
     12 C10         3.5178    3.6325    0.3975 C.2       1 <0>         0.4225
     13 O2          3.5207    2.3536   -0.0097 O.3       1 <0>        -0.2382
     14 C11         2.3783    1.6417    0.0111 C.2       1 <0>         0.1644
     15 C12         1.1761    2.2462    0.0029 C.2       1 <0>        -0.2576
     16 C13        -0.0183    1.5003    0.0103 C.2       1 <0>         0.4031
     17 O3         -1.0846    2.0821    0.0185 O.2       1 <0>        -0.4432
     18 C14         0.0021   -0.0041    0.0020 C.3       1 <0>        -0.1522
     19 C15         1.2857   -0.4785   -0.6877 C.3       1 <0>        -0.0372
     20 H2          1.2828   -0.1561   -1.7289 H         1 <0>         0.0969
     21 C16         2.4826    0.1348    0.0417 C.3       1 <0>        -0.0730
     22 C17         1.3693   -1.9818   -0.6232 C.ar      1 <0>        -0.0833
     23 C18         1.4016   -2.6204    0.6024 C.ar      1 <0>        -0.1136
     24 C19         1.4744   -3.9996    0.6614 C.ar      1 <0>        -0.1165
     25 C20         1.5235   -4.7397   -0.5050 C.ar      1 <0>        -0.1172
     26 C21         1.4960   -4.1009   -1.7306 C.ar      1 <0>        -0.1168
     27 C22         1.4194   -2.7219   -1.7897 C.ar      1 <0>        -0.1088
     28 N1          4.6951    4.2120    0.8009 N.pl3     1 <0>        -0.8302
     29 C23         2.4132    5.7265    0.8567 C.1       1 <0>         0.2715
     30 N2          2.4421    6.8079    1.2036 N.1       1 <0>        -0.4376
     31 H3          1.7398    5.5868   -6.0295 H         1 <0>         0.0547
     32 H4          0.8642    4.0658   -6.3265 H         1 <0>         0.0552
     33 H5          0.4110    5.5414   -7.2128 H         1 <0>         0.1001
     34 H6         -1.6297    5.9134   -3.1019 H         1 <0>         0.1309
     35 H7         -1.0860    5.1554   -0.8241 H         1 <0>         0.1299
     36 H8          2.5121    3.3766   -2.2670 H         1 <0>         0.1158
     37 H9          1.9707    4.1226   -4.5493 H         1 <0>         0.1265
     38 H10        -0.0221   -0.3430    0.9425 H         1 <0>         0.0967
     39 H11        -0.8660   -0.3780   -0.5409 H         1 <0>         0.1051
     40 H12         2.4910   -0.2074    1.0766 H         1 <0>         0.1100
     41 H13         3.4047   -0.1746   -0.4503 H         1 <0>         0.1057
     42 H14         1.3670   -2.0419    1.5137 H         1 <0>         0.1231
     43 H15         1.4962   -4.4986    1.6190 H         1 <0>         0.1238
     44 H16         1.5838   -5.8170   -0.4589 H         1 <0>         0.1227
     45 H17         1.5348   -4.6791   -2.6420 H         1 <0>         0.1239
     46 H18         1.3983   -2.2228   -2.7472 H         1 <0>         0.1242
     47 H19         4.7044    5.1355    1.0975 H         1 <0>         0.4265
     48 H20         5.5176    3.6980    0.7894 H         1 <0>         0.4117
@<TRIPOS>BOND
     1    1    2 1
     2    1   31 1
     3    1   32 1
     4    1   33 1
     5    2    3 1
     6    3    8 ar
     7    3    4 ar
     8    4    5 ar
     9    4   34 1
    10    5    6 ar
    11    5   35 1
    12    6    7 ar
    13    6    9 1
    14    7    8 ar
    15    7   36 1
    16    8   37 1
    17    9   10 1
    18    9   15 1
    19    9   11 1
    20   11   12 2
    21   11   29 1
    22   12   13 1
    23   12   28 1
    24   13   14 1
    25   14   21 1
    26   14   15 2
    27   15   16 1
    28   16   17 2
    29   16   18 1
    30   18   19 1
    31   18   38 1
    32   18   39 1
    33   19   20 1
    34   19   21 1
    35   19   22 1
    36   21   40 1
    37   21   41 1
    38   22   27 ar
    39   22   23 ar
    40   23   24 ar
    41   23   42 1
    42   24   25 ar
    43   24   43 1
    44   25   26 ar
    45   25   44 1
    46   26   27 ar
    47   26   45 1
    48   27   46 1
    49   28   47 1
    50   28   48 1
    51   29   30 3
@<TRIPOS>MOLECULE
ZINC00752465
   46    49     0     0     0
SMALL
USER_CHARGES
2-amino-4-(4-nitrophenyl)-5-oxo-7-phenyl-4,6,7,8-tetrahydrochromene-3-carbonitrile
@<TRIPOS>ATOM
      1 C1         -4.1100    7.9169    7.2143 C.ar      1 <0>        -0.1159
      2 C2         -4.2230    6.5797    6.8826 C.ar      1 <0>        -0.1161
      3 C3         -3.6099    6.0964    5.7418 C.ar      1 <0>        -0.1083
      4 C4         -2.8846    6.9505    4.9322 C.ar      1 <0>        -0.0855
      5 C5         -2.7677    8.2867    5.2665 C.ar      1 <0>        -0.1138
      6 C6         -3.3843    8.7709    6.4050 C.ar      1 <0>        -0.1162
      7 C7         -2.2163    6.4236    3.6885 C.3       1 <0>        -0.0378
      8 H1         -2.4190    5.3574    3.5875 H         1 <0>         0.0970
      9 C8         -2.7476    7.1706    2.4637 C.3       1 <0>        -0.0751
     10 C9         -2.0482    6.6713    1.2211 C.2       1 <0>         0.1780
     11 C10        -0.7776    6.2319    1.2780 C.2       1 <0>        -0.2684
     12 C11        -0.0759    5.7472    0.0324 C.3       1 <0>         0.0884
     13 H2          0.9473    6.1226    0.0247 H         1 <0>         0.1097
     14 C12        -0.7977    6.2423   -1.1897 C.2       1 <0>        -0.2671
     15 C13        -2.0752    6.6786   -1.1048 C.2       1 <0>         0.4326
     16 O1         -2.7357    6.6788    0.0636 O.3       1 <0>        -0.2367
     17 N1         -2.7096    7.1292   -2.2356 N.pl3     1 <0>        -0.8255
     18 C14        -0.1287    6.2534   -2.4558 C.1       1 <0>         0.2660
     19 N2          0.4020    6.2622   -3.4601 N.1       1 <0>        -0.4292
     20 C15        -0.0555    4.2404    0.0245 C.ar      1 <0>        -0.0208
     21 C16         1.1509    3.5656    0.0098 C.ar      1 <0>        -0.0990
     22 C17         1.1696    2.1834    0.0026 C.ar      1 <0>        -0.0507
     23 C18        -0.0180    1.4760    0.0102 C.ar      1 <0>        -0.0463
     24 C19        -1.2244    2.1508    0.0195 C.ar      1 <0>        -0.0534
     25 C20        -1.2431    3.5330    0.0325 C.ar      1 <0>        -0.1076
     26 N3          0.0021   -0.0041    0.0020 N.pl3     1 <0>         0.0280
     27 O2          1.0650   -0.5986   -0.0113 O.2       1 <0>        -0.1588
     28 O3         -1.0443   -0.6274    0.0087 O.3       1 <0>        -0.1605
     29 C21        -0.0655    6.2072    2.4926 C.2       1 <0>         0.4037
     30 O4          1.0854    5.8186    2.5014 O.2       1 <0>        -0.4450
     31 C22        -0.7040    6.6540    3.7796 C.3       1 <0>        -0.1513
     32 H3         -4.5890    8.2945    8.1056 H         1 <0>         0.1234
     33 H4         -4.7899    5.9125    7.5149 H         1 <0>         0.1247
     34 H5         -3.6979    5.0516    5.4828 H         1 <0>         0.1244
     35 H6         -2.1973    8.9531    4.6364 H         1 <0>         0.1233
     36 H7         -3.2964    9.8157    6.6640 H         1 <0>         0.1244
     37 H8         -3.8198    6.9982    2.3706 H         1 <0>         0.1087
     38 H9         -2.5611    8.2381    2.5808 H         1 <0>         0.1137
     39 H10        -3.6259    7.4434   -2.1851 H         1 <0>         0.4143
     40 H11        -2.2416    7.1334   -3.0853 H         1 <0>         0.4282
     41 H12         2.0787    4.1182    0.0036 H         1 <0>         0.1491
     42 H13         2.1121    1.6561   -0.0093 H         1 <0>         0.1551
     43 H14        -2.1523    1.5981    0.0210 H         1 <0>         0.1535
     44 H15        -2.1856    4.0602    0.0444 H         1 <0>         0.1383
     45 H16        -0.3320    6.1273    4.5440 H         1 <0>         0.0953
     46 H17        -0.5050    7.7140    3.9372 H         1 <0>         0.1092
@<TRIPOS>BOND
     1    1    6 ar
     2    1    2 ar
     3    1   32 1
     4    2    3 ar
     5    2   33 1
     6    3    4 ar
     7    3   34 1
     8    4    5 ar
     9    4    7 1
    10    5    6 ar
    11    5   35 1
    12    6   36 1
    13    7    8 1
    14    7   31 1
    15    7    9 1
    16    9   10 1
    17    9   37 1
    18    9   38 1
    19   10   16 1
    20   10   11 2
    21   11   12 1
    22   11   29 1
    23   12   13 1
    24   12   14 1
    25   12   20 1
    26   14   15 2
    27   14   18 1
    28   15   16 1
    29   15   17 1
    30   17   39 1
    31   17   40 1
    32   18   19 3
    33   20   25 ar
    34   20   21 ar
    35   21   22 ar
    36   21   41 1
    37   22   23 ar
    38   22   42 1
    39   23   24 ar
    40   23   26 1
    41   24   25 ar
    42   24   43 1
    43   25   44 1
    44   26   27 2
    45   26   28 1
    46   29   30 2
    47   29   31 1
    48   31   45 1
    49   31   46 1
@<TRIPOS>MOLECULE
ZINC00752466
   46    49     0     0     0
SMALL
USER_CHARGES
2-amino-4-(4-nitrophenyl)-5-oxo-7-phenyl-4,6,7,8-tetrahydrochromene-3-carbonitrile
@<TRIPOS>ATOM
      1 C1         -1.2190    1.7506    0.0173 C.ar      1 <0>        -0.1156
      2 C2         -0.0126    1.0758    0.0080 C.ar      1 <0>        -0.1165
      3 C3          1.1750    1.7832    0.0004 C.ar      1 <0>        -0.1086
      4 C4          1.1563    3.1654    0.0081 C.ar      1 <0>        -0.0860
      5 C5         -0.0501    3.8402    0.0223 C.ar      1 <0>        -0.1131
      6 C6         -1.2377    3.1328    0.0294 C.ar      1 <0>        -0.1159
      7 C7          2.4510    3.9366    0.0003 C.3       1 <0>        -0.0372
      8 H1          3.2909    3.2421   -0.0185 H         1 <0>         0.0968
      9 C8          2.5355    4.8119    1.2522 C.3       1 <0>        -0.0755
     10 C9          3.8146    5.6156    1.2251 C.2       1 <0>         0.1781
     11 C10         4.3553    6.0055    0.0562 C.2       1 <0>        -0.2680
     12 C11         5.6316    6.8115    0.0312 C.3       1 <0>         0.0882
     13 H2          6.2726    6.4454   -0.7708 H         1 <0>         0.1092
     14 C12         6.3511    6.6792    1.3444 C.2       1 <0>        -0.2682
     15 C13         5.6921    6.2454    2.4463 C.2       1 <0>         0.4333
     16 O1          4.3888    5.9285    2.4018 O.3       1 <0>        -0.2370
     17 N1          6.3722    6.1272    3.6329 N.pl3     1 <0>        -0.8250
     18 C14         7.7409    7.0130    1.4315 C.1       1 <0>         0.2665
     19 N2          8.8435    7.2778    1.5005 N.1       1 <0>        -0.4295
     20 C15         5.3024    8.2614   -0.2145 C.ar      1 <0>        -0.0202
     21 C16         4.4965    8.9475    0.6747 C.ar      1 <0>        -0.1078
     22 C17         4.1985   10.2789    0.4519 C.ar      1 <0>        -0.0535
     23 C18         4.6981   10.9213   -0.6655 C.ar      1 <0>        -0.0465
     24 C19         5.4993   10.2336   -1.5578 C.ar      1 <0>        -0.0507
     25 C20         5.8016    8.9037   -1.3322 C.ar      1 <0>        -0.0986
     26 N3          4.3748   12.3455   -0.9068 N.pl3     1 <0>         0.0281
     27 O2          4.8146   12.9114   -1.8916 O.2       1 <0>        -0.1589
     28 O3          3.6689   12.9514   -0.1207 O.3       1 <0>        -0.1605
     29 C21         3.7565    5.6738   -1.1744 C.2       1 <0>         0.4037
     30 O4          4.2623    6.0630   -2.2080 O.2       1 <0>        -0.4445
     31 C22         2.5014    4.8461   -1.2321 C.3       1 <0>        -0.1510
     32 H3         -2.1469    1.1980    0.0188 H         1 <0>         0.1235
     33 H4          0.0021   -0.0041    0.0020 H         1 <0>         0.1245
     34 H5          2.1175    1.2560   -0.0111 H         1 <0>         0.1242
     35 H6         -0.0647    4.9201    0.0283 H         1 <0>         0.1236
     36 H7         -2.1802    3.6601    0.0409 H         1 <0>         0.1247
     37 H8          1.6820    5.4892    1.2796 H         1 <0>         0.1136
     38 H9          2.5246    4.1785    2.1392 H         1 <0>         0.1075
     39 H10         5.9105    5.8174    4.4277 H         1 <0>         0.4143
     40 H11         7.3144    6.3535    3.6764 H         1 <0>         0.4283
     41 H12         4.1029    8.4445    1.5456 H         1 <0>         0.1380
     42 H13         3.5723   10.8161    1.1488 H         1 <0>         0.1535
     43 H14         5.8893   10.7355   -2.4310 H         1 <0>         0.1551
     44 H15         6.4275    8.3665   -2.0293 H         1 <0>         0.1491
     45 H16         2.5019    4.2856   -2.0602 H         1 <0>         0.0958
     46 H17         1.6311    5.5023   -1.2375 H         1 <0>         0.1088
@<TRIPOS>BOND
     1    1    6 ar
     2    1    2 ar
     3    1   32 1
     4    2    3 ar
     5    2   33 1
     6    3    4 ar
     7    3   34 1
     8    4    5 ar
     9    4    7 1
    10    5    6 ar
    11    5   35 1
    12    6   36 1
    13    7    8 1
    14    7   31 1
    15    7    9 1
    16    9   10 1
    17    9   37 1
    18    9   38 1
    19   10   16 1
    20   10   11 2
    21   11   12 1
    22   11   29 1
    23   12   13 1
    24   12   14 1
    25   12   20 1
    26   14   15 2
    27   14   18 1
    28   15   16 1
    29   15   17 1
    30   17   39 1
    31   17   40 1
    32   18   19 3
    33   20   25 ar
    34   20   21 ar
    35   21   22 ar
    36   21   41 1
    37   22   23 ar
    38   22   42 1
    39   23   24 ar
    40   23   26 1
    41   24   25 ar
    42   24   43 1
    43   25   44 1
    44   26   27 2
    45   26   28 1
    46   29   30 2
    47   29   31 1
    48   31   45 1
    49   31   46 1
@<TRIPOS>MOLECULE
ZINC00752467
   46    49     0     0     0
SMALL
USER_CHARGES
2-amino-4-(4-nitrophenyl)-5-oxo-7-phenyl-4,6,7,8-tetrahydrochromene-3-carbonitrile
@<TRIPOS>ATOM
      1 C1          6.2336   -5.0775    3.0514 C.ar      1 <0>        -0.1156
      2 C2          5.4399   -4.4487    3.9924 C.ar      1 <0>        -0.1166
      3 C3          4.2071   -3.9402    3.6282 C.ar      1 <0>        -0.1084
      4 C4          3.7684   -4.0599    2.3228 C.ar      1 <0>        -0.0861
      5 C5          4.5600   -4.6930    1.3829 C.ar      1 <0>        -0.1129
      6 C6          5.7947   -5.1976    1.7461 C.ar      1 <0>        -0.1160
      7 C7          2.4245   -3.5056    1.9257 C.3       1 <0>        -0.0370
      8 H1          1.9424   -3.0566    2.7941 H         1 <0>         0.0970
      9 C8          2.6063   -2.4485    0.8348 C.3       1 <0>        -0.0759
     10 C9          1.2562   -1.9213    0.4081 C.2       1 <0>         0.1781
     11 C10         0.1678   -2.7117    0.4457 C.2       1 <0>        -0.2682
     12 C11        -1.1784   -2.1865    0.0090 C.3       1 <0>         0.0883
     13 H2         -1.9461   -2.5444    0.6950 H         1 <0>         0.1092
     14 C12        -1.1706   -0.6833    0.0152 C.2       1 <0>        -0.2682
     15 C13         0.0021   -0.0041    0.0020 C.2       1 <0>         0.4334
     16 O1          1.1812   -0.6448   -0.0127 O.3       1 <0>        -0.2369
     17 N1         -0.0165    1.3686    0.0096 N.pl3     1 <0>        -0.8250
     18 C14        -2.4092    0.0351    0.0301 C.1       1 <0>         0.2666
     19 N2         -3.3919    0.6050    0.0419 N.1       1 <0>        -0.4295
     20 C15        -1.4822   -2.6839   -1.3808 C.ar      1 <0>        -0.0204
     21 C16        -0.6436   -2.3578   -2.4302 C.ar      1 <0>        -0.1080
     22 C17        -0.9194   -2.8185   -3.7041 C.ar      1 <0>        -0.0534
     23 C18        -2.0399   -3.5958   -3.9305 C.ar      1 <0>        -0.0465
     24 C19        -2.8813   -3.9175   -2.8819 C.ar      1 <0>        -0.0506
     25 C20        -2.6024   -3.4615   -1.6071 C.ar      1 <0>        -0.0987
     26 N3         -2.3385   -4.0840   -5.2956 N.pl3     1 <0>         0.0281
     27 O2         -3.3255   -4.7691   -5.4950 O.2       1 <0>        -0.1587
     28 O3         -1.5971   -3.8005   -6.2194 O.3       1 <0>        -0.1606
     29 C21         0.2462   -4.0448    0.8925 C.2       1 <0>         0.4040
     30 O4         -0.7545   -4.7333    0.8932 O.2       1 <0>        -0.4444
     31 C22         1.5469   -4.6318    1.3690 C.3       1 <0>        -0.1522
     32 H3          7.1967   -5.4748    3.3359 H         1 <0>         0.1235
     33 H4          5.7828   -4.3549    5.0122 H         1 <0>         0.1245
     34 H5          3.5869   -3.4492    4.3635 H         1 <0>         0.1244
     35 H6          4.2153   -4.7904    0.3640 H         1 <0>         0.1233
     36 H7          6.4149   -5.6886    1.0108 H         1 <0>         0.1246
     37 H8          3.1089   -2.8952   -0.0230 H         1 <0>         0.1132
     38 H9          3.2104   -1.6279    1.2218 H         1 <0>         0.1079
     39 H10         0.8168    1.8649    0.0043 H         1 <0>         0.4143
     40 H11        -0.8631    1.8421    0.0162 H         1 <0>         0.4284
     41 H12         0.2292   -1.7466   -2.2542 H         1 <0>         0.1379
     42 H13        -0.2618   -2.5675   -4.5232 H         1 <0>         0.1535
     43 H14        -3.7567   -4.5247   -3.0588 H         1 <0>         0.1551
     44 H15        -3.2600   -3.7126   -0.7879 H         1 <0>         0.1491
     45 H16         2.0178   -5.0753    0.6064 H         1 <0>         0.0982
     46 H17         1.3536   -5.3651    2.1520 H         1 <0>         0.1074
@<TRIPOS>BOND
     1    1    6 ar
     2    1    2 ar
     3    1   32 1
     4    2    3 ar
     5    2   33 1
     6    3    4 ar
     7    3   34 1
     8    4    5 ar
     9    4    7 1
    10    5    6 ar
    11    5   35 1
    12    6   36 1
    13    7    8 1
    14    7   31 1
    15    7    9 1
    16    9   10 1
    17    9   37 1
    18    9   38 1
    19   10   16 1
    20   10   11 2
    21   11   12 1
    22   11   29 1
    23   12   13 1
    24   12   14 1
    25   12   20 1
    26   14   15 2
    27   14   18 1
    28   15   16 1
    29   15   17 1
    30   17   39 1
    31   17   40 1
    32   18   19 3
    33   20   25 ar
    34   20   21 ar
    35   21   22 ar
    36   21   41 1
    37   22   23 ar
    38   22   42 1
    39   23   24 ar
    40   23   26 1
    41   24   25 ar
    42   24   43 1
    43   25   44 1
    44   26   27 2
    45   26   28 1
    46   29   30 2
    47   29   31 1
    48   31   45 1
    49   31   46 1
@<TRIPOS>MOLECULE
ZINC00752468
   46    49     0     0     0
SMALL
USER_CHARGES
2-amino-4-(4-nitrophenyl)-5-oxo-7-phenyl-4,6,7,8-tetrahydrochromene-3-carbonitrile
@<TRIPOS>ATOM
      1 C1          1.5235   -4.7397   -0.5050 C.ar      1 <0>        -0.1158
      2 C2          1.4960   -4.1009   -1.7306 C.ar      1 <0>        -0.1162
      3 C3          1.4194   -2.7219   -1.7897 C.ar      1 <0>        -0.1081
      4 C4          1.3693   -1.9818   -0.6232 C.ar      1 <0>        -0.0856
      5 C5          1.4016   -2.6204    0.6024 C.ar      1 <0>        -0.1137
      6 C6          1.4744   -3.9996    0.6614 C.ar      1 <0>        -0.1162
      7 C7          1.2857   -0.4785   -0.6877 C.3       1 <0>        -0.0376
      8 H1          1.2828   -0.1561   -1.7289 H         1 <0>         0.0972
      9 C8          2.4826    0.1348    0.0417 C.3       1 <0>        -0.0757
     10 C9          2.3783    1.6417    0.0111 C.2       1 <0>         0.1777
     11 C10         1.1761    2.2462    0.0029 C.2       1 <0>        -0.2682
     12 C11         1.0735    3.7522   -0.0133 C.3       1 <0>         0.0881
     13 H2          0.2827    4.0679    0.6672 H         1 <0>         0.1095
     14 C12         2.3769    4.3635    0.4193 C.2       1 <0>        -0.2675
     15 C13         3.5178    3.6325    0.3975 C.2       1 <0>         0.4325
     16 O1          3.5207    2.3536   -0.0097 O.3       1 <0>        -0.2363
     17 N1          4.6951    4.2120    0.8009 N.pl3     1 <0>        -0.8251
     18 C14         2.4132    5.7265    0.8567 C.1       1 <0>         0.2664
     19 N2          2.4421    6.8079    1.2036 N.1       1 <0>        -0.4293
     20 C15         0.7430    4.2156   -1.4087 C.ar      1 <0>        -0.0206
     21 C16         1.6028    3.9313   -2.4532 C.ar      1 <0>        -0.1075
     22 C17         1.2970    4.3518   -3.7340 C.ar      1 <0>        -0.0534
     23 C18         0.1371    5.0664   -3.9685 C.ar      1 <0>        -0.0464
     24 C19        -0.7200    5.3552   -2.9231 C.ar      1 <0>        -0.0506
     25 C20        -0.4170    4.9298   -1.6432 C.ar      1 <0>        -0.0991
     26 N3         -0.1873    5.5219   -5.3390 N.pl3     1 <0>         0.0280
     27 O2         -1.2094    6.1512   -5.5456 O.2       1 <0>        -0.1588
     28 O3          0.5680    5.2674   -6.2601 O.3       1 <0>        -0.1606
     29 C21        -0.0183    1.5003    0.0103 C.2       1 <0>         0.4038
     30 O4         -1.0846    2.0821    0.0185 O.2       1 <0>        -0.4448
     31 C22         0.0021   -0.0041    0.0020 C.3       1 <0>        -0.1524
     32 H3          1.5838   -5.8170   -0.4589 H         1 <0>         0.1234
     33 H4          1.5348   -4.6791   -2.6420 H         1 <0>         0.1247
     34 H5          1.3983   -2.2228   -2.7472 H         1 <0>         0.1246
     35 H6          1.3669   -2.0419    1.5137 H         1 <0>         0.1229
     36 H7          1.4962   -4.4986    1.6190 H         1 <0>         0.1243
     37 H8          2.4910   -0.2074    1.0766 H         1 <0>         0.1134
     38 H9          3.4047   -0.1746   -0.4503 H         1 <0>         0.1091
     39 H10         4.7044    5.1355    1.0975 H         1 <0>         0.4283
     40 H11         5.5176    3.6980    0.7894 H         1 <0>         0.4143
     41 H12         2.5113    3.3771   -2.2692 H         1 <0>         0.1382
     42 H13         1.9664    4.1258   -4.5508 H         1 <0>         0.1535
     43 H14        -1.6261    5.9135   -3.1063 H         1 <0>         0.1550
     44 H15        -1.0865    5.1558   -0.8264 H         1 <0>         0.1490
     45 H16        -0.0189   -0.3487    0.9405 H         1 <0>         0.0985
     46 H17        -0.8660   -0.3780   -0.5409 H         1 <0>         0.1069
@<TRIPOS>BOND
     1    1    6 ar
     2    1    2 ar
     3    1   32 1
     4    2    3 ar
     5    2   33 1
     6    3    4 ar
     7    3   34 1
     8    4    5 ar
     9    4    7 1
    10    5    6 ar
    11    5   35 1
    12    6   36 1
    13    7    8 1
    14    7   31 1
    15    7    9 1
    16    9   10 1
    17    9   37 1
    18    9   38 1
    19   10   16 1
    20   10   11 2
    21   11   12 1
    22   11   29 1
    23   12   13 1
    24   12   14 1
    25   12   20 1
    26   14   15 2
    27   14   18 1
    28   15   16 1
    29   15   17 1
    30   17   39 1
    31   17   40 1
    32   18   19 3
    33   20   25 ar
    34   20   21 ar
    35   21   22 ar
    36   21   41 1
    37   22   23 ar
    38   22   42 1
    39   23   24 ar
    40   23   26 1
    41   24   25 ar
    42   24   43 1
    43   25   44 1
    44   26   27 2
    45   26   28 1
    46   29   30 2
    47   29   31 1
    48   31   45 1
    49   31   46 1
@<TRIPOS>MOLECULE
ZINC00752405
   48    51     0     0     0
SMALL
USER_CHARGES
2-amino-4-(4-methylsulfanylphenyl)-5-oxo-7-phenyl-4,6,7,8-tetrahydrochromene-3-carbonitrile
@<TRIPOS>ATOM
      1 C1          3.5570    0.6916   -6.6498 C.3       1 <0>        -0.1431
      2 S1          3.4523   -0.8304   -5.6684 S.3       1 <0>        -0.1218
      3 C2          3.1708   -0.2597   -4.0253 C.ar      1 <0>        -0.0823
      4 C3          3.0358   -1.1711   -2.9849 C.ar      1 <0>        -0.0971
      5 C4          2.8148   -0.7202   -1.6986 C.ar      1 <0>        -0.0798
      6 C5          2.7277    0.6366   -1.4451 C.ar      1 <0>        -0.0763
      7 C6          2.8559    1.5464   -2.4789 C.ar      1 <0>        -0.0863
      8 C7          3.0827    1.1030   -3.7668 C.ar      1 <0>        -0.1335
      9 C8          2.4865    1.1248   -0.0399 C.3       1 <0>         0.0930
     10 H1          2.4031    0.2682    0.6289 H         1 <0>         0.1013
     11 C9          3.6401    1.9855    0.3934 C.2       1 <0>        -0.2587
     12 C10         3.5264    3.3359    0.3931 C.2       1 <0>         0.4241
     13 O1          2.3928    3.9416    0.0065 O.3       1 <0>        -0.2379
     14 C11         1.2301    3.2634    0.0297 C.2       1 <0>         0.1664
     15 C12         1.2030    1.9184    0.0009 C.2       1 <0>        -0.2586
     16 C13        -0.0144    1.2105    0.0087 C.2       1 <0>         0.4030
     17 O2          0.0021   -0.0041    0.0020 O.2       1 <0>        -0.4431
     18 C14        -1.3351    1.9311    0.0190 C.3       1 <0>        -0.1510
     19 C15        -1.1620    3.2987   -0.6440 C.3       1 <0>        -0.0375
     20 H2         -0.8869    3.1657   -1.6903 H         1 <0>         0.0962
     21 C16        -0.0532    4.0588    0.0865 C.3       1 <0>        -0.0726
     22 C17        -2.4514    4.0735   -0.5540 C.ar      1 <0>        -0.0835
     23 C18        -3.0054    4.3522    0.6814 C.ar      1 <0>        -0.1137
     24 C19        -4.1859    5.0667    0.7642 C.ar      1 <0>        -0.1164
     25 C20        -4.8173    5.4943   -0.3888 C.ar      1 <0>        -0.1170
     26 C21        -4.2657    5.2115   -1.6244 C.ar      1 <0>        -0.1166
     27 C22        -3.0830    4.5008   -1.7070 C.ar      1 <0>        -0.1088
     28 N1          4.5930    4.1002    0.7961 N.pl3     1 <0>        -0.8294
     29 C23         4.8668    1.3747    0.8092 C.1       1 <0>         0.2706
     30 N2          5.8399    0.8902    1.1390 N.1       1 <0>        -0.4362
     31 H3          2.6224    1.2456   -6.5619 H         1 <0>         0.0835
     32 H4          4.3791    1.3054   -6.2817 H         1 <0>         0.0831
     33 H5          3.7324    0.4384   -7.6953 H         1 <0>         0.1094
     34 H6          3.1034   -2.2308   -3.1822 H         1 <0>         0.1284
     35 H7          2.7095   -1.4278   -0.8896 H         1 <0>         0.1289
     36 H8          2.7829    2.6050   -2.2779 H         1 <0>         0.1167
     37 H9          3.1870    1.8141   -4.5729 H         1 <0>         0.1218
     38 H10        -2.0120    1.3935   -0.4837 H         1 <0>         0.0943
     39 H11        -1.6685    2.0677    1.0477 H         1 <0>         0.1071
     40 H12        -0.3412    4.2091    1.1269 H         1 <0>         0.1107
     41 H13         0.0984    5.0268   -0.3910 H         1 <0>         0.1058
     42 H14        -2.5143    4.0145    1.5821 H         1 <0>         0.1234
     43 H15        -4.6167    5.2879    1.7296 H         1 <0>         0.1240
     44 H16        -5.7414    6.0496   -0.3242 H         1 <0>         0.1228
     45 H17        -4.7590    5.5456   -2.5252 H         1 <0>         0.1240
     46 H18        -2.6522    4.2795   -2.6723 H         1 <0>         0.1240
     47 H19         4.5227    5.0677    0.7994 H         1 <0>         0.4120
     48 H20         5.4171    3.6729    1.0775 H         1 <0>         0.4268
@<TRIPOS>BOND
     1    1    2 1
     2    1   31 1
     3    1   32 1
     4    1   33 1
     5    2    3 1
     6    3    8 ar
     7    3    4 ar
     8    4    5 ar
     9    4   34 1
    10    5    6 ar
    11    5   35 1
    12    6    7 ar
    13    6    9 1
    14    7    8 ar
    15    7   36 1
    16    8   37 1
    17    9   10 1
    18    9   15 1
    19    9   11 1
    20   11   12 2
    21   11   29 1
    22   12   13 1
    23   12   28 1
    24   13   14 1
    25   14   21 1
    26   14   15 2
    27   15   16 1
    28   16   17 2
    29   16   18 1
    30   18   19 1
    31   18   38 1
    32   18   39 1
    33   19   20 1
    34   19   21 1
    35   19   22 1
    36   21   40 1
    37   21   41 1
    38   22   27 ar
    39   22   23 ar
    40   23   24 ar
    41   23   42 1
    42   24   25 ar
    43   24   43 1
    44   25   26 ar
    45   25   44 1
    46   26   27 ar
    47   26   45 1
    48   27   46 1
    49   28   47 1
    50   28   48 1
    51   29   30 3
@<TRIPOS>MOLECULE
ZINC00752406
   48    51     0     0     0
SMALL
USER_CHARGES
(4R,7S)-2-amino-4-(4-methylsulfanylphenyl)-5-oxo-7-phenyl-4,6,7,8-tetrahydrochromene-3-carbonitrile
@<TRIPOS>ATOM
      1 C1         -1.0415   -3.5155   -6.5667 C.3       1 <0>        -0.1431
      2 S1         -2.3954   -4.1784   -5.5576 S.3       1 <0>        -0.1216
      3 C2         -2.0399   -3.5973   -3.9326 C.ar      1 <0>        -0.0824
      4 C3         -2.8849   -3.9193   -2.8773 C.ar      1 <0>        -0.0971
      5 C4         -2.6034   -3.4618   -1.6053 C.ar      1 <0>        -0.0793
      6 C5         -1.4822   -2.6839   -1.3808 C.ar      1 <0>        -0.0760
      7 C6         -0.6421   -2.3567   -2.4295 C.ar      1 <0>        -0.0867
      8 C7         -0.9141   -2.8154   -3.7032 C.ar      1 <0>        -0.1336
      9 C8         -1.1784   -2.1865    0.0090 C.3       1 <0>         0.0934
     10 H1         -1.9461   -2.5444    0.6950 H         1 <0>         0.1010
     11 C9         -1.1706   -0.6833    0.0152 C.2       1 <0>        -0.2596
     12 C10         0.0021   -0.0041    0.0020 C.2       1 <0>         0.4250
     13 O1          1.1812   -0.6448   -0.0127 O.3       1 <0>        -0.2385
     14 C11         1.2562   -1.9213    0.4081 C.2       1 <0>         0.1668
     15 C12         0.1678   -2.7117    0.4457 C.2       1 <0>        -0.2586
     16 C13         0.2462   -4.0448    0.8925 C.2       1 <0>         0.4031
     17 O2         -0.7545   -4.7333    0.8932 O.2       1 <0>        -0.4427
     18 C14         1.5469   -4.6318    1.3690 C.3       1 <0>        -0.1519
     19 C15         2.4245   -3.5056    1.9257 C.3       1 <0>        -0.0371
     20 H2          1.9424   -3.0566    2.7941 H         1 <0>         0.0962
     21 C16         2.6063   -2.4485    0.8348 C.3       1 <0>        -0.0734
     22 C17         3.7684   -4.0599    2.3228 C.ar      1 <0>        -0.0842
     23 C18         4.5600   -4.6930    1.3829 C.ar      1 <0>        -0.1128
     24 C19         5.7947   -5.1976    1.7461 C.ar      1 <0>        -0.1164
     25 C20         6.2336   -5.0775    3.0514 C.ar      1 <0>        -0.1168
     26 C21         5.4399   -4.4487    3.9924 C.ar      1 <0>        -0.1169
     27 C22         4.2071   -3.9402    3.6282 C.ar      1 <0>        -0.1089
     28 N1         -0.0165    1.3686    0.0096 N.pl3     1 <0>        -0.8293
     29 C23        -2.4092    0.0351    0.0301 C.1       1 <0>         0.2707
     30 N2         -3.3919    0.6050    0.0419 N.1       1 <0>        -0.4363
     31 H3         -1.1752   -3.8256   -7.6030 H         1 <0>         0.1094
     32 H4         -1.0453   -2.4270   -6.5098 H         1 <0>         0.0831
     33 H5         -0.0905   -3.8955   -6.1935 H         1 <0>         0.0835
     34 H6         -3.7605   -4.5270   -3.0519 H         1 <0>         0.1285
     35 H7         -3.2598   -3.7114   -0.7848 H         1 <0>         0.1291
     36 H8          0.2302   -1.7453   -2.2513 H         1 <0>         0.1165
     37 H9         -0.2553   -2.5631   -4.5209 H         1 <0>         0.1218
     38 H10         2.0118   -5.0772    0.6038 H         1 <0>         0.0970
     39 H11         1.3536   -5.3651    2.1520 H         1 <0>         0.1055
     40 H12         3.1089   -2.8952   -0.0230 H         1 <0>         0.1102
     41 H13         3.2104   -1.6279    1.2218 H         1 <0>         0.1051
     42 H14         4.2153   -4.7904    0.3640 H         1 <0>         0.1233
     43 H15         6.4149   -5.6886    1.0108 H         1 <0>         0.1240
     44 H16         7.1967   -5.4748    3.3359 H         1 <0>         0.1229
     45 H17         5.7828   -4.3549    5.0122 H         1 <0>         0.1241
     46 H18         3.5869   -3.4492    4.3635 H         1 <0>         0.1243
     47 H19         0.8168    1.8649    0.0043 H         1 <0>         0.4120
     48 H20        -0.8631    1.8421    0.0162 H         1 <0>         0.4268
@<TRIPOS>BOND
     1    1    2 1
     2    1   31 1
     3    1   32 1
     4    1   33 1
     5    2    3 1
     6    3    8 ar
     7    3    4 ar
     8    4    5 ar
     9    4   34 1
    10    5    6 ar
    11    5   35 1
    12    6    7 ar
    13    6    9 1
    14    7    8 ar
    15    7   36 1
    16    8   37 1
    17    9   10 1
    18    9   15 1
    19    9   11 1
    20   11   12 2
    21   11   29 1
    22   12   13 1
    23   12   28 1
    24   13   14 1
    25   14   21 1
    26   14   15 2
    27   15   16 1
    28   16   17 2
    29   16   18 1
    30   18   19 1
    31   18   38 1
    32   18   39 1
    33   19   20 1
    34   19   21 1
    35   19   22 1
    36   21   40 1
    37   21   41 1
    38   22   27 ar
    39   22   23 ar
    40   23   24 ar
    41   23   42 1
    42   24   25 ar
    43   24   43 1
    44   25   26 ar
    45   25   44 1
    46   26   27 ar
    47   26   45 1
    48   27   46 1
    49   28   47 1
    50   28   48 1
    51   29   30 3
@<TRIPOS>MOLECULE
ZINC00752407
   48    51     0     0     0
SMALL
USER_CHARGES
2-amino-4-(4-methylsulfanylphenyl)-5-oxo-7-phenyl-4,6,7,8-tetrahydrochromene-3-carbonitrile
@<TRIPOS>ATOM
      1 C1         -4.0168    2.6827    0.0544 C.3       1 <0>        -0.1431
      2 S1         -2.7718    4.0020    0.0494 S.3       1 <0>        -0.1235
      3 C2         -1.2359    3.1386    0.0307 C.ar      1 <0>        -0.0822
      4 C3         -1.2181    1.7491    0.0173 C.ar      1 <0>        -0.1313
      5 C4         -0.0126    1.0758    0.0080 C.ar      1 <0>        -0.0787
      6 C5          1.1761    1.7827    0.0004 C.ar      1 <0>        -0.0760
      7 C6          1.1622    3.1657    0.0080 C.ar      1 <0>        -0.0873
      8 C7         -0.0395    3.8456    0.0231 C.ar      1 <0>        -0.0995
      9 C8          2.4897    1.0443   -0.0156 C.3       1 <0>         0.0939
     10 H1          2.3010   -0.0292   -0.0193 H         1 <0>         0.1002
     11 C9          3.2578    1.4198   -1.2521 C.2       1 <0>        -0.2608
     12 C10         4.2778    2.3092   -1.1814 C.2       1 <0>         0.4262
     13 O1          4.6275    2.8813   -0.0190 O.3       1 <0>        -0.2384
     14 C11         4.2913    2.2950    1.1452 C.2       1 <0>         0.1681
     15 C12         3.2842    1.4089    1.2152 C.2       1 <0>        -0.2595
     16 C13         2.9377    0.7876    2.4335 C.2       1 <0>         0.4034
     17 O2          2.0108    0.0029    2.4614 O.2       1 <0>        -0.4441
     18 C14         3.6958    1.0807    3.6996 C.3       1 <0>        -0.1509
     19 C15         5.1311    1.4767    3.3370 C.3       1 <0>        -0.0372
     20 H2          5.6339    0.6398    2.8523 H         1 <0>         0.0957
     21 C16         5.0779    2.6688    2.3798 C.3       1 <0>        -0.0731
     22 C17         5.8807    1.8631    4.5860 C.ar      1 <0>        -0.0841
     23 C18         5.4242    2.9049    5.3716 C.ar      1 <0>        -0.1129
     24 C19         6.1093    3.2565    6.5196 C.ar      1 <0>        -0.1162
     25 C20         7.2562    2.5726    6.8769 C.ar      1 <0>        -0.1169
     26 C21         7.7154    1.5339    6.0887 C.ar      1 <0>        -0.1169
     27 C22         7.0279    1.1795    4.9430 C.ar      1 <0>        -0.1092
     28 N1          4.9678    2.6321   -2.3234 N.pl3     1 <0>        -0.8290
     29 C23         2.9093    0.8347   -2.5118 C.1       1 <0>         0.2714
     30 N2          2.6328    0.3705   -3.5111 N.1       1 <0>        -0.4375
     31 H3         -3.8842    2.0614    0.9401 H         1 <0>         0.0845
     32 H4         -5.0135    3.1238    0.0660 H         1 <0>         0.1095
     33 H5         -3.9008    2.0703   -0.8398 H         1 <0>         0.0839
     34 H6         -2.1460    1.1964    0.0183 H         1 <0>         0.1232
     35 H7          0.0021   -0.0041    0.0020 H         1 <0>         0.1262
     36 H8          2.0924    3.7144    0.0017 H         1 <0>         0.1191
     37 H9         -0.0496    4.9256    0.0286 H         1 <0>         0.1270
     38 H10         3.7044    0.2658    4.2792 H         1 <0>         0.0940
     39 H11         3.2141    1.9007    4.2320 H         1 <0>         0.1079
     40 H12         6.0914    2.9493    2.0930 H         1 <0>         0.1050
     41 H13         4.5953    3.5107    2.8763 H         1 <0>         0.1112
     42 H14         4.5304    3.4419    5.0903 H         1 <0>         0.1240
     43 H15         5.7503    4.0678    7.1356 H         1 <0>         0.1242
     44 H16         7.7934    2.8495    7.7720 H         1 <0>         0.1229
     45 H17         8.6115    0.9996    6.3678 H         1 <0>         0.1239
     46 H18         7.3868    0.3682    4.3270 H         1 <0>         0.1240
     47 H19         4.7235    2.2249   -3.1692 H         1 <0>         0.4268
     48 H20         5.6997    3.2675   -2.2846 H         1 <0>         0.4122
@<TRIPOS>BOND
     1    1    2 1
     2    1   31 1
     3    1   32 1
     4    1   33 1
     5    2    3 1
     6    3    8 ar
     7    3    4 ar
     8    4    5 ar
     9    4   34 1
    10    5    6 ar
    11    5   35 1
    12    6    7 ar
    13    6    9 1
    14    7    8 ar
    15    7   36 1
    16    8   37 1
    17    9   10 1
    18    9   15 1
    19    9   11 1
    20   11   12 2
    21   11   29 1
    22   12   13 1
    23   12   28 1
    24   13   14 1
    25   14   21 1
    26   14   15 2
    27   15   16 1
    28   16   17 2
    29   16   18 1
    30   18   19 1
    31   18   38 1
    32   18   39 1
    33   19   20 1
    34   19   21 1
    35   19   22 1
    36   21   40 1
    37   21   41 1
    38   22   27 ar
    39   22   23 ar
    40   23   24 ar
    41   23   42 1
    42   24   25 ar
    43   24   43 1
    44   25   26 ar
    45   25   44 1
    46   26   27 ar
    47   26   45 1
    48   27   46 1
    49   28   47 1
    50   28   48 1
    51   29   30 3
@<TRIPOS>MOLECULE
ZINC00752408
   48    51     0     0     0
SMALL
USER_CHARGES
2-amino-4-(4-methylsulfanylphenyl)-5-oxo-7-phenyl-4,6,7,8-tetrahydrochromene-3-carbonitrile
@<TRIPOS>ATOM
      1 C1          1.1375    5.0076   -6.6045 C.3       1 <0>        -0.1431
      2 S1         -0.2493    5.6099   -5.6021 S.3       1 <0>        -0.1218
      3 C2          0.1369    5.0676   -3.9707 C.ar      1 <0>        -0.0822
      4 C3         -0.7237    5.3570   -2.9185 C.ar      1 <0>        -0.0971
      5 C4         -0.4181    4.9301   -1.6414 C.ar      1 <0>        -0.0797
      6 C5          0.7430    4.2156   -1.4087 C.ar      1 <0>        -0.0763
      7 C6          1.6044    3.9303   -2.4524 C.ar      1 <0>        -0.0862
      8 C7          1.3025    4.3491   -3.7331 C.ar      1 <0>        -0.1335
      9 C8          1.0735    3.7522   -0.0133 C.3       1 <0>         0.0931
     10 H1          0.2827    4.0679    0.6672 H         1 <0>         0.1012
     11 C9          2.3769    4.3635    0.4193 C.2       1 <0>        -0.2587
     12 C10         3.5178    3.6325    0.3975 C.2       1 <0>         0.4241
     13 O1          3.5207    2.3536   -0.0097 O.3       1 <0>        -0.2379
     14 C11         2.3783    1.6417    0.0111 C.2       1 <0>         0.1663
     15 C12         1.1761    2.2462    0.0029 C.2       1 <0>        -0.2586
     16 C13        -0.0183    1.5003    0.0103 C.2       1 <0>         0.4029
     17 O2         -1.0846    2.0821    0.0185 O.2       1 <0>        -0.4431
     18 C14         0.0021   -0.0041    0.0020 C.3       1 <0>        -0.1520
     19 C15         1.2857   -0.4785   -0.6877 C.3       1 <0>        -0.0371
     20 H2          1.2828   -0.1561   -1.7289 H         1 <0>         0.0968
     21 C16         2.4826    0.1348    0.0417 C.3       1 <0>        -0.0733
     22 C17         1.3693   -1.9818   -0.6232 C.ar      1 <0>        -0.0836
     23 C18         1.4016   -2.6204    0.6024 C.ar      1 <0>        -0.1136
     24 C19         1.4744   -3.9996    0.6614 C.ar      1 <0>        -0.1164
     25 C20         1.5235   -4.7397   -0.5050 C.ar      1 <0>        -0.1170
     26 C21         1.4960   -4.1009   -1.7306 C.ar      1 <0>        -0.1167
     27 C22         1.4194   -2.7219   -1.7897 C.ar      1 <0>        -0.1087
     28 N1          4.6951    4.2120    0.8009 N.pl3     1 <0>        -0.8294
     29 C23         2.4132    5.7265    0.8567 C.1       1 <0>         0.2706
     30 N2          2.4421    6.8079    1.2036 N.1       1 <0>        -0.4361
     31 H3          2.0672    5.4418   -6.2367 H         1 <0>         0.0831
     32 H4          1.1913    3.9212   -6.5348 H         1 <0>         0.0835
     33 H5          0.9873    5.2981   -7.6443 H         1 <0>         0.1093
     34 H6         -1.6305    5.9149   -3.0995 H         1 <0>         0.1284
     35 H7         -1.0863    5.1546   -0.8233 H         1 <0>         0.1289
     36 H8          2.5124    3.3760   -2.2662 H         1 <0>         0.1167
     37 H9          1.9734    4.1221   -4.5485 H         1 <0>         0.1218
     38 H10        -0.0221   -0.3430    0.9425 H         1 <0>         0.0969
     39 H11        -0.8660   -0.3780   -0.5409 H         1 <0>         0.1054
     40 H12         2.4910   -0.2074    1.0766 H         1 <0>         0.1105
     41 H13         3.4047   -0.1746   -0.4503 H         1 <0>         0.1061
     42 H14         1.3670   -2.0419    1.5137 H         1 <0>         0.1230
     43 H15         1.4962   -4.4986    1.6190 H         1 <0>         0.1239
     44 H16         1.5838   -5.8170   -0.4589 H         1 <0>         0.1228
     45 H17         1.5348   -4.6791   -2.6420 H         1 <0>         0.1240
     46 H18         1.3983   -2.2228   -2.7472 H         1 <0>         0.1242
     47 H19         4.7044    5.1355    1.0975 H         1 <0>         0.4268
     48 H20         5.5176    3.6980    0.7894 H         1 <0>         0.4120
@<TRIPOS>BOND
     1    1    2 1
     2    1   31 1
     3    1   32 1
     4    1   33 1
     5    2    3 1
     6    3    8 ar
     7    3    4 ar
     8    4    5 ar
     9    4   34 1
    10    5    6 ar
    11    5   35 1
    12    6    7 ar
    13    6    9 1
    14    7    8 ar
    15    7   36 1
    16    8   37 1
    17    9   10 1
    18    9   15 1
    19    9   11 1
    20   11   12 2
    21   11   29 1
    22   12   13 1
    23   12   28 1
    24   13   14 1
    25   14   21 1
    26   14   15 2
    27   15   16 1
    28   16   17 2
    29   16   18 1
    30   18   19 1
    31   18   38 1
    32   18   39 1
    33   19   20 1
    34   19   21 1
    35   19   22 1
    36   21   40 1
    37   21   41 1
    38   22   27 ar
    39   22   23 ar
    40   23   24 ar
    41   23   42 1
    42   24   25 ar
    43   24   43 1
    44   25   26 ar
    45   25   44 1
    46   26   27 ar
    47   26   45 1
    48   27   46 1
    49   28   47 1
    50   28   48 1
    51   29   30 3
@<TRIPOS>MOLECULE
ZINC00752431
   50    54     0     0     0
SMALL
USER_CHARGES
(4S,7S)-2-amino-4-(1-naphthyl)-5-oxo-7-phenyl-4,6,7,8-tetrahydrochromene-3-carbonitrile
@<TRIPOS>ATOM
      1 C1         -2.0049   -4.2618    6.7383 C.ar      1 <0>        -0.1171
      2 C2         -0.8035   -3.6738    6.3892 C.ar      1 <0>        -0.1167
      3 C3         -0.7467   -2.7998    5.3198 C.ar      1 <0>        -0.1085
      4 C4         -1.8912   -2.5144    4.5989 C.ar      1 <0>        -0.0835
      5 C5         -3.0935   -3.0986    4.9510 C.ar      1 <0>        -0.1136
      6 C6         -3.1494   -3.9760    6.0177 C.ar      1 <0>        -0.1166
      7 C7         -1.8293   -1.5615    3.4330 C.3       1 <0>        -0.0378
      8 H1         -0.8100   -1.1943    3.3137 H         1 <0>         0.0972
      9 C8         -2.2691   -2.2815    2.1567 C.3       1 <0>        -0.0732
     10 C9         -2.2452   -1.3159    0.9950 C.2       1 <0>         0.1668
     11 C10        -2.5005   -0.0083    1.1842 C.2       1 <0>        -0.2589
     12 C11        -2.4967    0.9517    0.0191 C.3       1 <0>         0.0880
     13 H2         -3.3348    1.6417    0.1165 H         1 <0>         0.1034
     14 C12        -2.6230    0.1930   -1.2724 C.2       1 <0>        -0.2589
     15 C13        -2.3552   -1.1319   -1.3212 C.2       1 <0>         0.4260
     16 O1         -1.9662   -1.8056   -0.2276 O.3       1 <0>        -0.2376
     17 N1         -2.4830   -1.8013   -2.5128 N.pl3     1 <0>        -0.8293
     18 C14        -3.0306    0.8769   -2.4627 C.1       1 <0>         0.2693
     19 N2         -3.3538    1.4195   -3.4069 N.1       1 <0>        -0.4346
     20 C15        -1.2063    1.7301    0.0172 C.ar      1 <0>        -0.0546
     21 C16        -0.0125    1.0758    0.0227 C.ar      1 <0>        -0.1086
     22 C17         1.1906    1.7784    0.0153 C.ar      1 <0>        -0.1145
     23 C18         1.2074    3.1396    0.0079 C.ar      1 <0>        -0.1071
     24 C19        -0.0049    3.8497    0.0073 C.ar      1 <0>        -0.0502
     25 C20        -1.2290    3.1349    0.0145 C.ar      1 <0>        -0.0349
     26 C21        -2.4416    3.8454    0.0144 C.ar      1 <0>        -0.0958
     27 C22        -2.4247    5.2062    0.0075 C.ar      1 <0>        -0.1177
     28 C23        -1.2211    5.9090    0.0010 C.ar      1 <0>        -0.1135
     29 C24        -0.0277    5.2550    0.0003 C.ar      1 <0>        -0.1102
     30 C25        -2.7758    0.5056    2.4659 C.2       1 <0>         0.4016
     31 O2         -3.0144    1.6897    2.5949 O.2       1 <0>        -0.4404
     32 C26        -2.7797   -0.3847    3.6786 C.3       1 <0>        -0.1517
     33 H3         -2.0492   -4.9446    7.5738 H         1 <0>         0.1227
     34 H4          0.0907   -3.8970    6.9522 H         1 <0>         0.1240
     35 H5          0.1918   -2.3401    5.0472 H         1 <0>         0.1245
     36 H6         -3.9885   -2.8722    4.3905 H         1 <0>         0.1229
     37 H7         -4.0879   -4.4356    6.2903 H         1 <0>         0.1237
     38 H8         -3.2803   -2.6667    2.2876 H         1 <0>         0.1103
     39 H9         -1.5889   -3.1089    1.9548 H         1 <0>         0.1064
     40 H10        -2.2928   -2.7514   -2.5582 H         1 <0>         0.4122
     41 H11        -2.7635   -1.3242   -3.3095 H         1 <0>         0.4267
     42 H12         0.0021   -0.0041    0.0285 H         1 <0>         0.1141
     43 H13         2.1240    1.2350    0.0157 H         1 <0>         0.1222
     44 H14         2.1477    3.6708    0.0029 H         1 <0>         0.1259
     45 H15        -3.3820    3.3142    0.0194 H         1 <0>         0.1254
     46 H16        -3.3580    5.7497    0.0075 H         1 <0>         0.1219
     47 H17        -1.2358    6.9889   -0.0041 H         1 <0>         0.1223
     48 H18         0.8970    5.8128   -0.0055 H         1 <0>         0.1260
     49 H19        -3.7036   -0.7308    3.8414 H         1 <0>         0.0969
     50 H20        -2.4449    0.1794    4.5491 H         1 <0>         0.1052
@<TRIPOS>BOND
     1    1    6 ar
     2    1    2 ar
     3    1   33 1
     4    2    3 ar
     5    2   34 1
     6    3    4 ar
     7    3   35 1
     8    4    5 ar
     9    4    7 1
    10    5    6 ar
    11    5   36 1
    12    6   37 1
    13    7    8 1
    14    7   32 1
    15    7    9 1
    16    9   10 1
    17    9   38 1
    18    9   39 1
    19   10   16 1
    20   10   11 2
    21   11   12 1
    22   11   30 1
    23   12   13 1
    24   12   14 1
    25   12   20 1
    26   14   15 2
    27   14   18 1
    28   15   16 1
    29   15   17 1
    30   17   40 1
    31   17   41 1
    32   18   19 3
    33   20   25 ar
    34   20   21 ar
    35   21   22 ar
    36   21   42 1
    37   22   23 ar
    38   22   43 1
    39   23   24 ar
    40   23   44 1
    41   24   29 ar
    42   24   25 ar
    43   25   26 ar
    44   26   27 ar
    45   26   45 1
    46   27   28 ar
    47   27   46 1
    48   28   29 ar
    49   28   47 1
    50   29   48 1
    51   30   31 2
    52   30   32 1
    53   32   49 1
    54   32   50 1
@<TRIPOS>MOLECULE
ZINC00752432
   50    54     0     0     0
SMALL
USER_CHARGES
2-amino-4-(1-naphthyl)-5-oxo-7-phenyl-4,6,7,8-tetrahydrochromene-3-carbonitrile
@<TRIPOS>ATOM
      1 C1          7.4393   -2.6799   -3.1719 C.ar      1 <0>        -0.1169
      2 C2          6.6025   -2.0920   -4.1019 C.ar      1 <0>        -0.1169
      3 C3          5.3626   -1.6190   -3.7147 C.ar      1 <0>        -0.1089
      4 C4          4.9592   -1.7348   -2.3976 C.ar      1 <0>        -0.0840
      5 C5          5.7980   -2.3184   -1.4666 C.ar      1 <0>        -0.1129
      6 C6          7.0361   -2.7953   -1.8547 C.ar      1 <0>        -0.1163
      7 C7          3.6076   -1.2192   -1.9754 C.3       1 <0>        -0.0374
      8 H1          3.0963   -0.7852   -2.8347 H         1 <0>         0.0960
      9 C8          3.7790   -0.1600   -0.8849 C.3       1 <0>        -0.0732
     10 C9          2.4227    0.3273   -0.4313 C.2       1 <0>         0.1669
     11 C10         1.3553   -0.4917   -0.4563 C.2       1 <0>        -0.2585
     12 C11         0.0021   -0.0041    0.0020 C.3       1 <0>         0.0878
     13 H2         -0.7657   -0.3793   -0.6747 H         1 <0>         0.1031
     14 C12        -0.0298    1.4988    0.0080 C.2       1 <0>        -0.2599
     15 C13         1.1246    2.2087    0.0029 C.2       1 <0>         0.4266
     16 O1          2.3202    1.5991   -0.0020 O.3       1 <0>        -0.2379
     17 N1          1.0698    3.5804    0.0028 N.pl3     1 <0>        -0.8288
     18 C14        -1.2871    2.1843    0.0131 C.1       1 <0>         0.2699
     19 N2         -2.2845    2.7280    0.0172 N.1       1 <0>        -0.4349
     20 C15        -0.2685   -0.5153    1.3936 C.ar      1 <0>        -0.0543
     21 C16         0.6162   -0.2665    2.3979 C.ar      1 <0>        -0.1090
     22 C17         0.3808   -0.7270    3.6917 C.ar      1 <0>        -0.1146
     23 C18        -0.7358   -1.4474    3.9870 C.ar      1 <0>        -0.1072
     24 C19        -1.6693   -1.7285    2.9752 C.ar      1 <0>        -0.0503
     25 C20        -1.4322   -1.2561    1.6600 C.ar      1 <0>        -0.0347
     26 C21        -2.3664   -1.5371    0.6482 C.ar      1 <0>        -0.0953
     27 C22        -3.4832   -2.2565    0.9438 C.ar      1 <0>        -0.1178
     28 C23        -3.7161   -2.7214    2.2370 C.ar      1 <0>        -0.1134
     29 C24        -2.8339   -2.4687    3.2420 C.ar      1 <0>        -0.1103
     30 C25         1.4627   -1.8209   -0.9086 C.2       1 <0>         0.4016
     31 O2          0.4810   -2.5362   -0.8970 O.2       1 <0>        -0.4398
     32 C26         2.7717   -2.3708   -1.4064 C.3       1 <0>        -0.1516
     33 H3          8.4079   -3.0495   -3.4744 H         1 <0>         0.1228
     34 H4          6.9175   -2.0018   -5.1310 H         1 <0>         0.1240
     35 H5          4.7090   -1.1593   -4.4412 H         1 <0>         0.1242
     36 H6          5.4846   -2.4049   -0.4366 H         1 <0>         0.1235
     37 H7          7.6897   -3.2550   -1.1282 H         1 <0>         0.1241
     38 H8          4.3104   -0.5941   -0.0380 H         1 <0>         0.1108
     39 H9          4.3512    0.6789   -1.2808 H         1 <0>         0.1054
     40 H10         0.2111    4.0315    0.0064 H         1 <0>         0.4268
     41 H11         1.8898    4.0986   -0.0009 H         1 <0>         0.4122
     42 H12         1.5121    0.2993    2.1895 H         1 <0>         0.1138
     43 H13         1.0967   -0.5120    4.4713 H         1 <0>         0.1221
     44 H14        -0.9032   -1.8012    4.9935 H         1 <0>         0.1260
     45 H15        -2.1992   -1.1834   -0.3584 H         1 <0>         0.1254
     46 H16        -4.1996   -2.4707    0.1646 H         1 <0>         0.1219
     47 H17        -4.6102   -3.2903    2.4447 H         1 <0>         0.1223
     48 H18        -3.0279   -2.8347    4.2394 H         1 <0>         0.1260
     49 H19         3.2675   -2.8018   -0.6525 H         1 <0>         0.0970
     50 H20         2.5849   -3.1091   -2.1862 H         1 <0>         0.1052
@<TRIPOS>BOND
     1    1    6 ar
     2    1    2 ar
     3    1   33 1
     4    2    3 ar
     5    2   34 1
     6    3    4 ar
     7    3   35 1
     8    4    5 ar
     9    4    7 1
    10    5    6 ar
    11    5   36 1
    12    6   37 1
    13    7    8 1
    14    7   32 1
    15    7    9 1
    16    9   10 1
    17    9   38 1
    18    9   39 1
    19   10   16 1
    20   10   11 2
    21   11   12 1
    22   11   30 1
    23   12   13 1
    24   12   14 1
    25   12   20 1
    26   14   15 2
    27   14   18 1
    28   15   16 1
    29   15   17 1
    30   17   40 1
    31   17   41 1
    32   18   19 3
    33   20   25 ar
    34   20   21 ar
    35   21   22 ar
    36   21   42 1
    37   22   23 ar
    38   22   43 1
    39   23   24 ar
    40   23   44 1
    41   24   29 ar
    42   24   25 ar
    43   25   26 ar
    44   26   27 ar
    45   26   45 1
    46   27   28 ar
    47   27   46 1
    48   28   29 ar
    49   28   47 1
    50   29   48 1
    51   30   31 2
    52   30   32 1
    53   32   49 1
    54   32   50 1
@<TRIPOS>MOLECULE
ZINC00752433
   50    54     0     0     0
SMALL
USER_CHARGES
2-amino-4-(1-naphthyl)-5-oxo-7-phenyl-4,6,7,8-tetrahydrochromene-3-carbonitrile
@<TRIPOS>ATOM
      1 C1          8.1784    1.1036    7.1708 C.ar      1 <0>        -0.1168
      2 C2          8.6746    2.0850    6.3333 C.ar      1 <0>        -0.1170
      3 C3          8.0402    2.3574    5.1357 C.ar      1 <0>        -0.1089
      4 C4          6.9100    1.6477    4.7753 C.ar      1 <0>        -0.0841
      5 C5          6.4110    0.6695    5.6150 C.ar      1 <0>        -0.1128
      6 C6          7.0480    0.3942    6.8106 C.ar      1 <0>        -0.1164
      7 C7          6.2184    1.9445    3.4697 C.3       1 <0>        -0.0375
      8 H1          6.7432    2.7470    2.9513 H         1 <0>         0.0959
      9 C8          6.2081    0.6887    2.5961 C.3       1 <0>        -0.0733
     10 C9          5.4787    0.9740    1.3041 C.2       1 <0>         0.1672
     11 C10         4.4694    1.8630    1.2678 C.2       1 <0>        -0.2589
     12 C11         3.7332    2.1372   -0.0214 C.3       1 <0>         0.0879
     13 H2          3.5462    3.2075   -0.1083 H         1 <0>         0.1031
     14 C12         4.5559    1.6780   -1.1927 C.2       1 <0>        -0.2599
     15 C13         5.5712    0.7983   -1.0142 C.2       1 <0>         0.4265
     16 O1          5.8673    0.3091    0.1999 O.3       1 <0>        -0.2379
     17 N1          6.3129    0.3993   -2.0983 N.pl3     1 <0>        -0.8288
     18 C14         4.2655    2.1733   -2.5046 C.1       1 <0>         0.2699
     19 N2          4.0352    2.5663   -3.5452 N.1       1 <0>        -0.4349
     20 C15         2.4193    1.3992   -0.0134 C.ar      1 <0>        -0.0543
     21 C16         2.3913    0.0541    0.1941 C.ar      1 <0>        -0.1090
     22 C17         1.1862   -0.6451    0.2049 C.ar      1 <0>        -0.1146
     23 C18         0.0017   -0.0034    0.0092 C.ar      1 <0>        -0.1072
     24 C19        -0.0093    1.3847   -0.2077 C.ar      1 <0>        -0.0503
     25 C20         1.2168    2.0960   -0.2192 C.ar      1 <0>        -0.0348
     26 C21         1.2057    3.4845   -0.4368 C.ar      1 <0>        -0.0954
     27 C22         0.0216    4.1259   -0.6329 C.ar      1 <0>        -0.1178
     28 C23        -1.1840    3.4265   -0.6214 C.ar      1 <0>        -0.1134
     29 C24        -1.2117    2.0810   -0.4192 C.ar      1 <0>        -0.1103
     30 C25         4.0688    2.5637    2.4216 C.2       1 <0>         0.4017
     31 O2          3.1421    3.3460    2.3528 O.2       1 <0>        -0.4399
     32 C26         4.7682    2.3611    3.7382 C.3       1 <0>        -0.1516
     33 H3          8.6741    0.8908    8.1065 H         1 <0>         0.1228
     34 H4          9.5578    2.6392    6.6148 H         1 <0>         0.1240
     35 H5          8.4277    3.1244    4.4816 H         1 <0>         0.1242
     36 H6          5.5255    0.1181    5.3354 H         1 <0>         0.1235
     37 H7          6.6605   -0.3728    7.4647 H         1 <0>         0.1240
     38 H8          5.7033   -0.1184    3.1271 H         1 <0>         0.1107
     39 H9          7.2334    0.3916    2.3759 H         1 <0>         0.1053
     40 H10         6.1079    0.7467   -2.9804 H         1 <0>         0.4268
     41 H11         7.0419   -0.2300   -1.9821 H         1 <0>         0.4122
     42 H12         3.3171   -0.4790    0.3524 H         1 <0>         0.1138
     43 H13         1.1919   -1.7122    0.3714 H         1 <0>         0.1222
     44 H14        -0.9247   -0.5584    0.0203 H         1 <0>         0.1260
     45 H15         2.1322    4.0395   -0.4487 H         1 <0>         0.1254
     46 H16         0.0159    5.1930   -0.7995 H         1 <0>         0.1219
     47 H17        -2.1097    3.9598   -0.7797 H         1 <0>         0.1223
     48 H18        -2.1530    1.5516   -0.4175 H         1 <0>         0.1260
     49 H19         4.3066    1.6439    4.2603 H         1 <0>         0.0971
     50 H20         4.7548    3.2904    4.3077 H         1 <0>         0.1052
@<TRIPOS>BOND
     1    1    6 ar
     2    1    2 ar
     3    1   33 1
     4    2    3 ar
     5    2   34 1
     6    3    4 ar
     7    3   35 1
     8    4    5 ar
     9    4    7 1
    10    5    6 ar
    11    5   36 1
    12    6   37 1
    13    7    8 1
    14    7   32 1
    15    7    9 1
    16    9   10 1
    17    9   38 1
    18    9   39 1
    19   10   16 1
    20   10   11 2
    21   11   12 1
    22   11   30 1
    23   12   13 1
    24   12   14 1
    25   12   20 1
    26   14   15 2
    27   14   18 1
    28   15   16 1
    29   15   17 1
    30   17   40 1
    31   17   41 1
    32   18   19 3
    33   20   25 ar
    34   20   21 ar
    35   21   22 ar
    36   21   42 1
    37   22   23 ar
    38   22   43 1
    39   23   24 ar
    40   23   44 1
    41   24   29 ar
    42   24   25 ar
    43   25   26 ar
    44   26   27 ar
    45   26   45 1
    46   27   28 ar
    47   27   46 1
    48   28   29 ar
    49   28   47 1
    50   29   48 1
    51   30   31 2
    52   30   32 1
    53   32   49 1
    54   32   50 1
@<TRIPOS>MOLECULE
ZINC00752434
   50    54     0     0     0
SMALL
USER_CHARGES
2-amino-4-(1-naphthyl)-5-oxo-7-phenyl-4,6,7,8-tetrahydrochromene-3-carbonitrile
@<TRIPOS>ATOM
      1 C1          5.9851   -2.4553   -7.5086 C.ar      1 <0>        -0.1172
      2 C2          6.1066   -1.1175   -7.1824 C.ar      1 <0>        -0.1166
      3 C3          5.5775   -0.6445   -5.9961 C.ar      1 <0>        -0.1087
      4 C4          4.9261   -1.5092   -5.1365 C.ar      1 <0>        -0.0831
      5 C5          4.8088   -2.8479   -5.4604 C.ar      1 <0>        -0.1138
      6 C6          5.3345   -3.3201   -6.6485 C.ar      1 <0>        -0.1165
      7 C7          4.3493   -0.9936   -3.8432 C.3       1 <0>        -0.0380
      8 H1          4.5314    0.0778   -3.7589 H         1 <0>         0.0970
      9 C8          4.9998   -1.7200   -2.6644 C.3       1 <0>        -0.0727
     10 C9          4.3933   -1.2316   -1.3696 C.2       1 <0>         0.1665
     11 C10         3.1102   -0.8292   -1.3218 C.2       1 <0>        -0.2584
     12 C11         2.4998   -0.3610   -0.0229 C.3       1 <0>         0.0876
     13 H2          1.4920   -0.7660    0.0696 H         1 <0>         0.1032
     14 C12         3.3315   -0.8311    1.1377 C.2       1 <0>        -0.2594
     15 C13         4.6120   -1.2313    0.9461 C.2       1 <0>         0.4258
     16 O1          5.1737   -1.2171   -0.2727 O.3       1 <0>        -0.2373
     17 N1          5.3499   -1.6605    2.0212 N.pl3     1 <0>        -0.8290
     18 C14         2.7673   -0.8564    2.4536 C.1       1 <0>         0.2697
     19 N2          2.3197   -0.8764    3.4975 N.1       1 <0>        -0.4348
     20 C15         2.4361    1.1446   -0.0146 C.ar      1 <0>        -0.0545
     21 C16         3.5613    1.8782   -0.2353 C.ar      1 <0>        -0.1088
     22 C17         3.5221    3.2710   -0.2305 C.ar      1 <0>        -0.1146
     23 C18         2.3572    3.9386   -0.0061 C.ar      1 <0>        -0.1071
     24 C19         1.1751    3.2153    0.2251 C.ar      1 <0>        -0.0503
     25 C20         1.2150    1.7984    0.2208 C.ar      1 <0>        -0.0349
     26 C21         0.0323    1.0753    0.4526 C.ar      1 <0>        -0.0959
     27 C22        -1.1331    1.7429    0.6718 C.ar      1 <0>        -0.1176
     28 C23        -1.1713    3.1362    0.6817 C.ar      1 <0>        -0.1135
     29 C24        -0.0463    3.8696    0.4611 C.ar      1 <0>        -0.1102
     30 C25         2.2998   -0.8290   -2.4734 C.2       1 <0>         0.4015
     31 O2          1.1422   -0.4710   -2.3877 O.2       1 <0>        -0.4404
     32 C26         2.8413   -1.2640   -3.8079 C.3       1 <0>        -0.1507
     33 H3          6.3987   -2.8248   -8.4353 H         1 <0>         0.1227
     34 H4          6.6151   -0.4419   -7.8542 H         1 <0>         0.1240
     35 H5          5.6727    0.4006   -5.7411 H         1 <0>         0.1244
     36 H6          4.3038   -3.5243   -4.7868 H         1 <0>         0.1233
     37 H7          5.2399   -4.3654   -6.9032 H         1 <0>         0.1238
     38 H8          6.0712   -1.5198   -2.6614 H         1 <0>         0.1061
     39 H9          4.8319   -2.7926   -2.7618 H         1 <0>         0.1107
     40 H10         6.2673   -1.9494    1.8954 H         1 <0>         0.4122
     41 H11         4.9540   -1.6748    2.9065 H         1 <0>         0.4267
     42 H12         4.4987    1.3731   -0.4160 H         1 <0>         0.1141
     43 H13         4.4295    3.8293   -0.4080 H         1 <0>         0.1222
     44 H14         2.3419    5.0184   -0.0053 H         1 <0>         0.1259
     45 H15         0.0475   -0.0046    0.4523 H         1 <0>         0.1253
     46 H16        -2.0413    1.1848    0.8452 H         1 <0>         0.1219
     47 H17        -2.1084    3.6414    0.8631 H         1 <0>         0.1223
     48 H18        -0.0919    4.9486    0.4670 H         1 <0>         0.1260
     49 H19         2.3932   -0.7496   -4.5391 H         1 <0>         0.0939
     50 H20         2.6581   -2.3292   -3.9486 H         1 <0>         0.1071
@<TRIPOS>BOND
     1    1    6 ar
     2    1    2 ar
     3    1   33 1
     4    2    3 ar
     5    2   34 1
     6    3    4 ar
     7    3   35 1
     8    4    5 ar
     9    4    7 1
    10    5    6 ar
    11    5   36 1
    12    6   37 1
    13    7    8 1
    14    7   32 1
    15    7    9 1
    16    9   10 1
    17    9   38 1
    18    9   39 1
    19   10   16 1
    20   10   11 2
    21   11   12 1
    22   11   30 1
    23   12   13 1
    24   12   14 1
    25   12   20 1
    26   14   15 2
    27   14   18 1
    28   15   16 1
    29   15   17 1
    30   17   40 1
    31   17   41 1
    32   18   19 3
    33   20   25 ar
    34   20   21 ar
    35   21   22 ar
    36   21   42 1
    37   22   23 ar
    38   22   43 1
    39   23   24 ar
    40   23   44 1
    41   24   29 ar
    42   24   25 ar
    43   25   26 ar
    44   26   27 ar
    45   26   45 1
    46   27   28 ar
    47   27   46 1
    48   28   29 ar
    49   28   47 1
    50   29   48 1
    51   30   31 2
    52   30   32 1
    53   32   49 1
    54   32   50 1
@<TRIPOS>MOLECULE
ZINC00728134
   54    58     0     0     0
SMALL
USER_CHARGES
2-amino-5-oxo-7-phenyl-4-(4-phenylphenyl)-4,6,7,8-tetrahydrochromene-3-carbonitrile
@<TRIPOS>ATOM
      1 C1         -4.1098    6.5610    7.9202 C.ar      1 <0>        -0.1203
      2 C2         -3.9969    5.2031    7.6822 C.ar      1 <0>        -0.1177
      3 C3         -3.7381    4.7426    6.4071 C.ar      1 <0>        -0.1122
      4 C4         -3.5901    5.6483    5.3587 C.ar      1 <0>        -0.0437
      5 C5         -3.6986    7.0154    5.6053 C.ar      1 <0>        -0.1116
      6 C6         -3.9633    7.4646    6.8832 C.ar      1 <0>        -0.1170
      7 C7         -3.3118    5.1591    3.9857 C.ar      1 <0>        -0.0469
      8 C8         -3.1638    6.0648    2.9372 C.ar      1 <0>        -0.1078
      9 C9         -2.9046    5.6043    1.6622 C.ar      1 <0>        -0.0961
     10 C10        -2.7918    4.2464    1.4243 C.ar      1 <0>        -0.0695
     11 C11        -2.9430    3.3425    2.4604 C.ar      1 <0>        -0.1032
     12 C12        -3.1972    3.7923    3.7402 C.ar      1 <0>        -0.1100
     13 C13        -2.5092    3.7495    0.0299 C.3       1 <0>         0.0917
     14 H1         -2.4318    4.5996   -0.6480 H         1 <0>         0.1005
     15 C14        -1.2113    2.9911    0.0296 C.2       1 <0>        -0.2587
     16 C15        -1.2091    1.6360    0.0167 C.2       1 <0>         0.4244
     17 O1         -2.3540    0.9354    0.0183 O.3       1 <0>        -0.2378
     18 C16        -3.4930    1.5137   -0.4067 C.2       1 <0>         0.1669
     19 C17        -3.6364    2.8516   -0.4197 C.2       1 <0>        -0.2587
     20 C18        -4.8331    3.4554   -0.8514 C.2       1 <0>         0.4033
     21 O2         -4.9187    4.6670   -0.8642 O.2       1 <0>        -0.4437
     22 C19        -6.0074    2.6274   -1.2975 C.3       1 <0>        -0.1520
     23 C20        -5.9607    1.2740   -0.5802 C.3       1 <0>        -0.0373
     24 H2         -6.0680    1.4217    0.4944 H         1 <0>         0.0973
     25 C21        -4.6125    0.6145   -0.8764 C.3       1 <0>        -0.0735
     26 C22        -7.0761    0.3950   -1.0844 C.ar      1 <0>        -0.0836
     27 C23        -7.1545    0.0802   -2.4282 C.ar      1 <0>        -0.1136
     28 C24        -8.1751   -0.7297   -2.8899 C.ar      1 <0>        -0.1166
     29 C25        -9.1229   -1.2170   -2.0095 C.ar      1 <0>        -0.1171
     30 C26        -9.0473   -0.8983   -0.6665 C.ar      1 <0>        -0.1167
     31 C27        -8.0242   -0.0919   -0.2041 C.ar      1 <0>        -0.1085
     32 N1         -0.0111    0.9658    0.0074 N.pl3     1 <0>        -0.8294
     33 C28         0.0302    3.7048    0.0376 C.1       1 <0>         0.2710
     34 N2          1.0150    4.2710    0.0440 N.1       1 <0>        -0.4368
     35 H3         -4.3127    6.9171    8.9194 H         1 <0>         0.1226
     36 H4         -4.1118    4.5020    8.4956 H         1 <0>         0.1239
     37 H5         -3.6502    3.6821    6.2224 H         1 <0>         0.1243
     38 H6         -3.5800    7.7220    4.7971 H         1 <0>         0.1252
     39 H7         -4.0520    8.5238    7.0746 H         1 <0>         0.1242
     40 H8         -3.2513    7.1253    3.1220 H         1 <0>         0.1252
     41 H9         -2.7900    6.3054    0.8488 H         1 <0>         0.1249
     42 H10        -2.8580    2.2832    2.2682 H         1 <0>         0.1157
     43 H11        -3.3106    3.0859    4.5493 H         1 <0>         0.1239
     44 H12        -5.9608    2.4887   -2.2867 H         1 <0>         0.0969
     45 H13        -6.9352    3.1416   -1.0469 H         1 <0>         0.1052
     46 H14        -4.5181    0.4479   -1.9495 H         1 <0>         0.1101
     47 H15        -4.5535   -0.3409   -0.3549 H         1 <0>         0.1062
     48 H16        -6.4163    0.4643   -3.1167 H         1 <0>         0.1229
     49 H17        -8.2340   -0.9790   -3.9391 H         1 <0>         0.1237
     50 H18        -9.9223   -1.8470   -2.3708 H         1 <0>         0.1227
     51 H19        -9.7878   -1.2790    0.0213 H         1 <0>         0.1240
     52 H20        -7.9653    0.1573    0.8451 H         1 <0>         0.1245
     53 H21         0.0021   -0.0041    0.0020 H         1 <0>         0.4120
     54 H22         0.8223    1.4622    0.0021 H         1 <0>         0.4267
@<TRIPOS>BOND
     1    1    6 ar
     2    1    2 ar
     3    1   35 1
     4    2    3 ar
     5    2   36 1
     6    3    4 ar
     7    3   37 1
     8    4    5 ar
     9    4    7 1
    10    5    6 ar
    11    5   38 1
    12    6   39 1
    13    7   12 ar
    14    7    8 ar
    15    8    9 ar
    16    8   40 1
    17    9   10 ar
    18    9   41 1
    19   10   11 ar
    20   10   13 1
    21   11   12 ar
    22   11   42 1
    23   12   43 1
    24   13   14 1
    25   13   19 1
    26   13   15 1
    27   15   16 2
    28   15   33 1
    29   16   17 1
    30   16   32 1
    31   17   18 1
    32   18   25 1
    33   18   19 2
    34   19   20 1
    35   20   21 2
    36   20   22 1
    37   22   23 1
    38   22   44 1
    39   22   45 1
    40   23   24 1
    41   23   25 1
    42   23   26 1
    43   25   46 1
    44   25   47 1
    45   26   31 ar
    46   26   27 ar
    47   27   28 ar
    48   27   48 1
    49   28   29 ar
    50   28   49 1
    51   29   30 ar
    52   29   50 1
    53   30   31 ar
    54   30   51 1
    55   31   52 1
    56   32   53 1
    57   32   54 1
    58   33   34 3
@<TRIPOS>MOLECULE
ZINC00728135
   54    58     0     0     0
SMALL
USER_CHARGES
2-amino-5-oxo-7-phenyl-4-(4-phenylphenyl)-4,6,7,8-tetrahydrochromene-3-carbonitrile
@<TRIPOS>ATOM
      1 C1         -0.0126    1.0758    0.0080 C.ar      1 <0>        -0.1203
      2 C2         -1.2212    1.7485    0.0174 C.ar      1 <0>        -0.1170
      3 C3         -1.2457    3.1284    0.0308 C.ar      1 <0>        -0.1116
      4 C4         -0.0501    3.8440    0.0232 C.ar      1 <0>        -0.0438
      5 C5          1.1644    3.1612    0.0079 C.ar      1 <0>        -0.1123
      6 C6          1.1773    1.7811    0.0004 C.ar      1 <0>        -0.1177
      7 C7         -0.0702    5.3277    0.0318 C.ar      1 <0>        -0.0469
      8 C8          1.1254    6.0432    0.0305 C.ar      1 <0>        -0.1101
      9 C9          1.1008    7.4232    0.0318 C.ar      1 <0>        -0.1035
     10 C10        -0.1078    8.0959    0.0474 C.ar      1 <0>        -0.0694
     11 C11        -1.2976    7.3906    0.0550 C.ar      1 <0>        -0.0956
     12 C12        -1.2848    6.0105    0.0471 C.ar      1 <0>        -0.1078
     13 C13        -0.1282    9.6027    0.0557 C.3       1 <0>         0.0923
     14 H1         -1.1613    9.9502    0.0674 H         1 <0>         0.1002
     15 C14         0.5570   10.1174   -1.1794 C.2       1 <0>        -0.2599
     16 C15         1.8260   10.5882   -1.1133 C.2       1 <0>         0.4256
     17 O1          2.5066   10.6044    0.0432 O.3       1 <0>        -0.2386
     18 C16         1.8420   10.5697    1.2134 C.2       1 <0>         0.1678
     19 C17         0.5836   10.1064    1.2880 C.2       1 <0>        -0.2588
     20 C18        -0.1105   10.0770    2.5129 C.2       1 <0>         0.4027
     21 O2         -1.2418    9.6360    2.5470 O.2       1 <0>        -0.4433
     22 C19         0.5241   10.5816    3.7803 C.3       1 <0>        -0.1512
     23 C20         1.5519   11.6610    3.4236 C.3       1 <0>        -0.0375
     24 H2          1.0468   12.5092    2.9615 H         1 <0>         0.0959
     25 C21         2.5577   11.0628    2.4493 C.3       1 <0>        -0.0727
     26 C22         2.2640   12.1144    4.6719 C.ar      1 <0>        -0.0839
     27 C23         2.9800   11.2053    5.4281 C.ar      1 <0>        -0.1131
     28 C24         3.6369   11.6221    6.5707 C.ar      1 <0>        -0.1163
     29 C25         3.5699   12.9461    6.9625 C.ar      1 <0>        -0.1169
     30 C26         2.8499   13.8542    6.2090 C.ar      1 <0>        -0.1168
     31 C27         2.1966   13.4383    5.0639 C.ar      1 <0>        -0.1091
     32 N1          2.4284   11.0582   -2.2538 N.pl3     1 <0>        -0.8293
     33 C28        -0.1351   10.1097   -2.4330 C.1       1 <0>         0.2711
     34 N2         -0.6841   10.1036   -3.4275 N.1       1 <0>        -0.4371
     35 H3          0.0021   -0.0041    0.0020 H         1 <0>         0.1226
     36 H4         -2.1473    1.1929    0.0187 H         1 <0>         0.1243
     37 H5         -2.1899    3.6526    0.0426 H         1 <0>         0.1252
     38 H6          2.0940    3.7109    0.0024 H         1 <0>         0.1243
     39 H7          2.1181    1.2509   -0.0111 H         1 <0>         0.1239
     40 H8          2.0696    5.5190    0.0235 H         1 <0>         0.1239
     41 H9          2.0269    7.9788    0.0256 H         1 <0>         0.1155
     42 H10        -2.2384    7.9208    0.0669 H         1 <0>         0.1251
     43 H11        -2.2144    5.4607    0.0523 H         1 <0>         0.1253
     44 H12        -0.1809   10.9672    4.3755 H         1 <0>         0.0939
     45 H13         1.0221    9.7582    4.2923 H         1 <0>         0.1075
     46 H14         3.0736   10.2295    2.9264 H         1 <0>         0.1110
     47 H15         3.2842   11.8251    2.1678 H         1 <0>         0.1047
     48 H16         3.0290   10.1701    5.1242 H         1 <0>         0.1238
     49 H17         4.1997   10.9126    7.1593 H         1 <0>         0.1241
     50 H18         4.0803   13.2710    7.8571 H         1 <0>         0.1229
     51 H19         2.7976   14.8886    6.5150 H         1 <0>         0.1240
     52 H20         1.6339   14.1478    4.4754 H         1 <0>         0.1240
     53 H21         1.9460   11.0509   -3.0953 H         1 <0>         0.4267
     54 H22         3.3364   11.3975   -2.2181 H         1 <0>         0.4120
@<TRIPOS>BOND
     1    1    6 ar
     2    1    2 ar
     3    1   35 1
     4    2    3 ar
     5    2   36 1
     6    3    4 ar
     7    3   37 1
     8    4    5 ar
     9    4    7 1
    10    5    6 ar
    11    5   38 1
    12    6   39 1
    13    7   12 ar
    14    7    8 ar
    15    8    9 ar
    16    8   40 1
    17    9   10 ar
    18    9   41 1
    19   10   11 ar
    20   10   13 1
    21   11   12 ar
    22   11   42 1
    23   12   43 1
    24   13   14 1
    25   13   19 1
    26   13   15 1
    27   15   16 2
    28   15   33 1
    29   16   17 1
    30   16   32 1
    31   17   18 1
    32   18   25 1
    33   18   19 2
    34   19   20 1
    35   20   21 2
    36   20   22 1
    37   22   23 1
    38   22   44 1
    39   22   45 1
    40   23   24 1
    41   23   25 1
    42   23   26 1
    43   25   46 1
    44   25   47 1
    45   26   31 ar
    46   26   27 ar
    47   27   28 ar
    48   27   48 1
    49   28   29 ar
    50   28   49 1
    51   29   30 ar
    52   29   50 1
    53   30   31 ar
    54   30   51 1
    55   31   52 1
    56   32   53 1
    57   32   54 1
    58   33   34 3
@<TRIPOS>MOLECULE
ZINC00728136
   54    58     0     0     0
SMALL
USER_CHARGES
2-amino-5-oxo-7-phenyl-4-(4-phenylphenyl)-4,6,7,8-tetrahydrochromene-3-carbonitrile
@<TRIPOS>ATOM
      1 C1          4.7999    5.3618   -0.0131 C.ar      1 <0>        -0.1203
      2 C2          3.5921    6.0357    0.0016 C.ar      1 <0>        -0.1177
      3 C3          2.4056    5.3307    0.0082 C.ar      1 <0>        -0.1123
      4 C4          2.4260    3.9375    0.0005 C.ar      1 <0>        -0.0438
      5 C5          3.6456    3.2637   -0.0084 C.ar      1 <0>        -0.1116
      6 C6          4.8260    3.9788   -0.0203 C.ar      1 <0>        -0.1170
      7 C7          1.1535    3.1740    0.0081 C.ar      1 <0>        -0.0470
      8 C8          1.1739    1.7809    0.0004 C.ar      1 <0>        -0.1077
      9 C9         -0.0126    1.0758    0.0080 C.ar      1 <0>        -0.0956
     10 C10        -1.2204    1.7498    0.0174 C.ar      1 <0>        -0.0693
     11 C11        -1.2465    3.1327    0.0308 C.ar      1 <0>        -0.1037
     12 C12        -0.0660    3.8478    0.0234 C.ar      1 <0>        -0.1101
     13 C13        -2.5127    0.9745    0.0188 C.3       1 <0>         0.0920
     14 H1         -2.2938   -0.0932    0.0072 H         1 <0>         0.1002
     15 C14        -3.2927    1.3077    1.2599 C.2       1 <0>        -0.2597
     16 C15        -4.3375    2.1688    1.2022 C.2       1 <0>         0.4254
     17 O1         -4.7018    2.7496    0.0485 O.3       1 <0>        -0.2384
     18 C16        -4.3487    2.1909   -1.1243 C.2       1 <0>         0.1673
     19 C17        -3.3141    1.3346   -1.2089 C.2       1 <0>        -0.2587
     20 C18        -2.9471    0.7484   -2.4356 C.2       1 <0>         0.4032
     21 O2         -1.9943   -0.0039   -2.4759 O.2       1 <0>        -0.4432
     22 C19        -3.7141    1.0377   -3.6972 C.3       1 <0>        -0.1519
     23 C20        -5.1620    1.3788   -3.3286 C.3       1 <0>        -0.0370
     24 H2         -5.6337    0.5155   -2.8592 H         1 <0>         0.0961
     25 C21        -5.1488    2.5568   -2.3526 C.3       1 <0>        -0.0735
     26 C22        -5.9249    1.7594   -4.5713 C.ar      1 <0>        -0.0841
     27 C23        -5.5168    2.8414   -5.3286 C.ar      1 <0>        -0.1129
     28 C24        -6.2142    3.1881   -6.4707 C.ar      1 <0>        -0.1163
     29 C25        -7.3248    2.4580   -6.8507 C.ar      1 <0>        -0.1169
     30 C26        -7.7357    1.3788   -6.0908 C.ar      1 <0>        -0.1169
     31 C27        -7.0360    1.0298   -4.9509 C.ar      1 <0>        -0.1090
     32 N1         -5.0381    2.4530    2.3480 N.pl3     1 <0>        -0.8293
     33 C28        -2.9296    0.7117    2.5103 C.1       1 <0>         0.2711
     34 N2         -2.6416    0.2389    3.5023 N.1       1 <0>        -0.4370
     35 H3          5.7260    5.9174   -0.0186 H         1 <0>         0.1227
     36 H4          3.5775    7.1156    0.0075 H         1 <0>         0.1239
     37 H5          1.4631    5.8579    0.0197 H         1 <0>         0.1243
     38 H6          3.6671    2.1839   -0.0099 H         1 <0>         0.1252
     39 H7          5.7719    3.4576   -0.0314 H         1 <0>         0.1243
     40 H8          2.1164    1.2537   -0.0111 H         1 <0>         0.1253
     41 H9          0.0021   -0.0041    0.0020 H         1 <0>         0.1251
     42 H10        -2.1923    3.6539    0.0426 H         1 <0>         0.1154
     43 H11        -0.0875    4.9276    0.0290 H         1 <0>         0.1239
     44 H12        -3.2942    1.8107   -4.1727 H         1 <0>         0.0971
     45 H13        -3.6969    0.1607   -4.3444 H         1 <0>         0.1052
     46 H14        -4.6964    3.4229   -2.8356 H         1 <0>         0.1106
     47 H15        -6.1710    2.7972   -2.0604 H         1 <0>         0.1051
     48 H16        -4.6513    3.4141   -5.0297 H         1 <0>         0.1235
     49 H17        -5.8934    4.0314   -7.0642 H         1 <0>         0.1240
     50 H18        -7.8716    2.7309   -7.7412 H         1 <0>         0.1228
     51 H19        -8.6035    0.8086   -6.3875 H         1 <0>         0.1240
     52 H20        -7.3572    0.1869   -4.3569 H         1 <0>         0.1242
     53 H21        -5.7876    3.0680    2.3183 H         1 <0>         0.4120
     54 H22        -4.7835    2.0389    3.1874 H         1 <0>         0.4267
@<TRIPOS>BOND
     1    1    6 ar
     2    1    2 ar
     3    1   35 1
     4    2    3 ar
     5    2   36 1
     6    3    4 ar
     7    3   37 1
     8    4    5 ar
     9    4    7 1
    10    5    6 ar
    11    5   38 1
    12    6   39 1
    13    7   12 ar
    14    7    8 ar
    15    8    9 ar
    16    8   40 1
    17    9   10 ar
    18    9   41 1
    19   10   11 ar
    20   10   13 1
    21   11   12 ar
    22   11   42 1
    23   12   43 1
    24   13   14 1
    25   13   19 1
    26   13   15 1
    27   15   16 2
    28   15   33 1
    29   16   17 1
    30   16   32 1
    31   17   18 1
    32   18   25 1
    33   18   19 2
    34   19   20 1
    35   20   21 2
    36   20   22 1
    37   22   23 1
    38   22   44 1
    39   22   45 1
    40   23   24 1
    41   23   25 1
    42   23   26 1
    43   25   46 1
    44   25   47 1
    45   26   31 ar
    46   26   27 ar
    47   27   28 ar
    48   27   48 1
    49   28   29 ar
    50   28   49 1
    51   29   30 ar
    52   29   50 1
    53   30   31 ar
    54   30   51 1
    55   31   52 1
    56   32   53 1
    57   32   54 1
    58   33   34 3
@<TRIPOS>MOLECULE
ZINC00728137
   54    58     0     0     0
SMALL
USER_CHARGES
2-amino-5-oxo-7-phenyl-4-(4-phenylphenyl)-4,6,7,8-tetrahydrochromene-3-carbonitrile
@<TRIPOS>ATOM
      1 C1         -0.0126    1.0758    0.0080 C.ar      1 <0>        -0.1203
      2 C2         -1.2212    1.7485    0.0174 C.ar      1 <0>        -0.1170
      3 C3         -1.2457    3.1284    0.0308 C.ar      1 <0>        -0.1116
      4 C4         -0.0501    3.8440    0.0232 C.ar      1 <0>        -0.0438
      5 C5          1.1644    3.1612    0.0079 C.ar      1 <0>        -0.1122
      6 C6          1.1773    1.7811    0.0004 C.ar      1 <0>        -0.1177
      7 C7         -0.0702    5.3277    0.0318 C.ar      1 <0>        -0.0468
      8 C8          1.1254    6.0432    0.0305 C.ar      1 <0>        -0.1101
      9 C9          1.1008    7.4232    0.0337 C.ar      1 <0>        -0.1032
     10 C10        -0.1078    8.0959    0.0483 C.ar      1 <0>        -0.0698
     11 C11        -1.2976    7.3906    0.0550 C.ar      1 <0>        -0.0959
     12 C12        -1.2848    6.0105    0.0471 C.ar      1 <0>        -0.1078
     13 C13        -0.1282    9.6027    0.0576 C.3       1 <0>         0.0918
     14 H1         -1.1613    9.9501    0.0692 H         1 <0>         0.1006
     15 C14         0.5573   10.1181   -1.1770 C.2       1 <0>        -0.2593
     16 C15         1.8265   10.5886   -1.1104 C.2       1 <0>         0.4248
     17 O1          2.5060   10.6044    0.0469 O.3       1 <0>        -0.2381
     18 C16         1.8383   10.5768    1.2156 C.2       1 <0>         0.1668
     19 C17         0.5830   10.1055    1.2906 C.2       1 <0>        -0.2585
     20 C18        -0.1121   10.0626    2.5176 C.2       1 <0>         0.4030
     21 O2         -1.2513    9.6419    2.5444 O.2       1 <0>        -0.4434
     22 C19         0.5330   10.5292    3.7941 C.3       1 <0>        -0.1509
     23 C20         2.0495   10.3403    3.6809 C.3       1 <0>        -0.0375
     24 H2          2.2829    9.2807    3.5771 H         1 <0>         0.0970
     25 C21         2.5419   11.0984    2.4466 C.3       1 <0>        -0.0727
     26 C22         2.7216   10.8885    4.9133 C.ar      1 <0>        -0.0833
     27 C23         2.5651   12.2196    5.2517 C.ar      1 <0>        -0.1139
     28 C24         3.1779   12.7214    6.3846 C.ar      1 <0>        -0.1165
     29 C25         3.9551   11.8944    7.1738 C.ar      1 <0>        -0.1172
     30 C26         4.1155   10.5644    6.8328 C.ar      1 <0>        -0.1166
     31 C27         3.4991   10.0616    5.7023 C.ar      1 <0>        -0.1087
     32 N1          2.4298   11.0585   -2.2505 N.pl3     1 <0>        -0.8294
     33 C28        -0.1350   10.1124   -2.4305 C.1       1 <0>         0.2711
     34 N2         -0.6841   10.1078   -3.4249 N.1       1 <0>        -0.4370
     35 H3          0.0021   -0.0041    0.0020 H         1 <0>         0.1226
     36 H4         -2.1473    1.1929    0.0187 H         1 <0>         0.1242
     37 H5         -2.1899    3.6526    0.0426 H         1 <0>         0.1252
     38 H6          2.0940    3.7109    0.0024 H         1 <0>         0.1243
     39 H7          2.1181    1.2509   -0.0111 H         1 <0>         0.1239
     40 H8          2.0696    5.5190    0.0235 H         1 <0>         0.1239
     41 H9          2.0269    7.9788    0.0288 H         1 <0>         0.1157
     42 H10        -2.2384    7.9208    0.0669 H         1 <0>         0.1250
     43 H11        -2.2144    5.4607    0.0531 H         1 <0>         0.1253
     44 H12         0.1804    9.9931    4.5611 H         1 <0>         0.0940
     45 H13         0.3073   11.5837    3.9530 H         1 <0>         0.1072
     46 H14         3.6170   10.9553    2.3380 H         1 <0>         0.1059
     47 H15         2.3274   12.1605    2.5645 H         1 <0>         0.1103
     48 H16         1.9612   12.8667    4.6328 H         1 <0>         0.1233
     49 H17         3.0523   13.7604    6.6512 H         1 <0>         0.1238
     50 H18         4.4367   12.2873    8.0571 H         1 <0>         0.1227
     51 H19         4.7227    9.9183    7.4494 H         1 <0>         0.1240
     52 H20         3.6247    9.0226    5.4356 H         1 <0>         0.1243
     53 H21         1.9479   11.0515   -3.0924 H         1 <0>         0.4267
     54 H22         3.3378   11.3975   -2.2143 H         1 <0>         0.4120
@<TRIPOS>BOND
     1    1    6 ar
     2    1    2 ar
     3    1   35 1
     4    2    3 ar
     5    2   36 1
     6    3    4 ar
     7    3   37 1
     8    4    5 ar
     9    4    7 1
    10    5    6 ar
    11    5   38 1
    12    6   39 1
    13    7   12 ar
    14    7    8 ar
    15    8    9 ar
    16    8   40 1
    17    9   10 ar
    18    9   41 1
    19   10   11 ar
    20   10   13 1
    21   11   12 ar
    22   11   42 1
    23   12   43 1
    24   13   14 1
    25   13   19 1
    26   13   15 1
    27   15   16 2
    28   15   33 1
    29   16   17 1
    30   16   32 1
    31   17   18 1
    32   18   25 1
    33   18   19 2
    34   19   20 1
    35   20   21 2
    36   20   22 1
    37   22   23 1
    38   22   44 1
    39   22   45 1
    40   23   24 1
    41   23   25 1
    42   23   26 1
    43   25   46 1
    44   25   47 1
    45   26   31 ar
    46   26   27 ar
    47   27   28 ar
    48   27   48 1
    49   28   29 ar
    50   28   49 1
    51   29   30 ar
    52   29   50 1
    53   30   31 ar
    54   30   51 1
    55   31   52 1
    56   32   53 1
    57   32   54 1
    58   33   34 3
@<TRIPOS>MOLECULE
ZINC00315576
   37    39     0     0     0
SMALL
USER_CHARGES

@<TRIPOS>ATOM
      1 C1         -0.0187    1.5258    0.0104 C.3       1 <0>        -0.1420
      2 C2          0.0021   -0.0041    0.0020 C.3       1 <0>         0.0482
      3 H1         -1.0214   -0.3789    0.0098 H         1 <0>         0.0920
      4 C3          0.6988   -0.4854   -1.2394 C.2       1 <0>        -0.2643
      5 C4          1.9781   -0.9300   -1.1820 C.2       1 <0>         0.4237
      6 O1          2.6534   -0.9506   -0.0206 O.3       1 <0>        -0.2418
      7 C5          1.9899   -0.9451    1.1516 C.2       1 <0>         0.1676
      8 C6          0.7255   -0.5008    1.2300 C.2       1 <0>        -0.2656
      9 C7          0.0372   -0.4826    2.4585 C.2       1 <0>         0.4039
     10 O2         -1.1109   -0.0873    2.4930 O.2       1 <0>        -0.4496
     11 C8          0.6980   -0.9443    3.7288 C.3       1 <0>        -0.1622
     12 C9          2.2094   -0.7203    3.6116 C.3       1 <0>        -0.0366
     13 H2          2.4152    0.3456    3.5132 H         1 <0>         0.0967
     14 C10         2.7079   -1.4574    2.3776 C.3       1 <0>        -0.0728
     15 C11         2.8977   -1.2576    4.8398 C.ar      1 <0>        -0.0828
     16 C12         2.7900   -2.5975    5.1621 C.ar      1 <0>        -0.1139
     17 C13         3.4214   -3.0904    6.2887 C.ar      1 <0>        -0.1166
     18 C14         4.1609   -2.2435    7.0928 C.ar      1 <0>        -0.1175
     19 C15         4.2695   -0.9037    6.7701 C.ar      1 <0>        -0.1167
     20 C16         3.6416   -0.4117    5.6411 C.ar      1 <0>        -0.1091
     21 N1          2.5937   -1.3660   -2.3289 N.pl3     1 <0>        -0.8307
     22 C17         0.0059   -0.4747   -2.4926 C.1       1 <0>         0.2709
     23 N2         -0.5438   -0.4662   -3.4867 N.1       1 <0>        -0.4414
     24 H3          1.0039    1.9031    0.0027 H         1 <0>         0.0543
     25 H4         -0.5459    1.8868   -0.8726 H         1 <0>         0.0596
     26 H5         -0.5289    1.8773    0.9072 H         1 <0>         0.0642
     27 H6          0.3085   -0.3729    4.5714 H         1 <0>         0.1054
     28 H7          0.4968   -2.0048    3.8804 H         1 <0>         0.1072
     29 H8          2.5195   -2.5252    2.4886 H         1 <0>         0.1094
     30 H9          3.7791   -1.2880    2.2680 H         1 <0>         0.1048
     31 H10         2.2122   -3.2592    4.5338 H         1 <0>         0.1230
     32 H11         3.3366   -4.1371    6.5409 H         1 <0>         0.1238
     33 H12         4.6536   -2.6284    7.9734 H         1 <0>         0.1227
     34 H13         4.8470   -0.2419    7.3985 H         1 <0>         0.1241
     35 H14         3.7294    0.6343    5.3869 H         1 <0>         0.1245
     36 H15         2.1134   -1.3542   -3.1716 H         1 <0>         0.4263
     37 H16         3.5089   -1.6857   -2.2967 H         1 <0>         0.4114
@<TRIPOS>BOND
     1    1    2 1
     2    1   24 1
     3    1   25 1
     4    1   26 1
     5    2    3 1
     6    2    8 1
     7    2    4 1
     8    4    5 2
     9    4   22 1
    10    5    6 1
    11    5   21 1
    12    6    7 1
    13    7   14 1
    14    7    8 2
    15    8    9 1
    16    9   10 2
    17    9   11 1
    18   11   12 1
    19   11   27 1
    20   11   28 1
    21   12   13 1
    22   12   14 1
    23   12   15 1
    24   14   29 1
    25   14   30 1
    26   15   20 ar
    27   15   16 ar
    28   16   17 ar
    29   16   31 1
    30   17   18 ar
    31   17   32 1
    32   18   19 ar
    33   18   33 1
    34   19   20 ar
    35   19   34 1
    36   20   35 1
    37   21   36 1
    38   21   37 1
    39   22   23 3
@<TRIPOS>MOLECULE
ZINC00315577
   37    39     0     0     0
SMALL
USER_CHARGES

@<TRIPOS>ATOM
      1 C1         -0.0187    1.5258    0.0104 C.3       1 <0>        -0.1418
      2 C2          0.0021   -0.0041    0.0020 C.3       1 <0>         0.0484
      3 H1          0.5126   -0.3532   -0.8955 H         1 <0>         0.0917
      4 C3         -1.4090   -0.5210    0.0048 C.2       1 <0>        -0.2649
      5 C4         -1.9656   -0.9951    1.1462 C.2       1 <0>         0.4245
      6 O1         -1.2760   -1.0129    2.2990 O.3       1 <0>        -0.2424
      7 C5          0.0702   -0.9677    2.2879 C.2       1 <0>         0.1680
      8 C6          0.7395   -0.5007    1.2218 C.2       1 <0>        -0.2657
      9 C7          2.1471   -0.4609    1.2081 C.2       1 <0>         0.4040
     10 O2          2.7219   -0.0184    0.2337 O.2       1 <0>        -0.4493
     11 C8          2.9519   -0.9559    2.3789 C.3       1 <0>        -0.1619
     12 C9          2.1510   -2.0400    3.1081 C.3       1 <0>        -0.0367
     13 H2          1.9959   -2.8901    2.4437 H         1 <0>         0.0948
     14 C10         0.8075   -1.4514    3.5141 C.3       1 <0>        -0.0727
     15 C11         2.9038   -2.4869    4.3348 C.ar      1 <0>        -0.0831
     16 C12         3.2044   -1.5769    5.3310 C.ar      1 <0>        -0.1132
     17 C13         3.8949   -1.9868    6.4561 C.ar      1 <0>        -0.1164
     18 C14         4.2844   -3.3068    6.5854 C.ar      1 <0>        -0.1173
     19 C15         3.9830   -4.2170    5.5896 C.ar      1 <0>        -0.1168
     20 C16         3.2888   -3.8080    4.4664 C.ar      1 <0>        -0.1096
     21 N1         -3.2555   -1.4643    1.1240 N.pl3     1 <0>        -0.8307
     22 C17        -2.1715   -0.5121   -1.2073 C.1       1 <0>         0.2710
     23 N2         -2.7764   -0.5052   -2.1689 N.1       1 <0>        -0.4416
     24 H3          1.0039    1.9031    0.0027 H         1 <0>         0.0644
     25 H4         -0.5459    1.8868   -0.8726 H         1 <0>         0.0597
     26 H5         -0.5289    1.8773    0.9072 H         1 <0>         0.0541
     27 H6          3.8936   -1.3744    2.0238 H         1 <0>         0.1051
     28 H7          3.1517   -0.1291    3.0604 H         1 <0>         0.1082
     29 H8          0.9677   -0.6151    4.1945 H         1 <0>         0.1104
     30 H9          0.2155   -2.2175    4.0148 H         1 <0>         0.1036
     31 H10         2.9001   -0.5456    5.2300 H         1 <0>         0.1238
     32 H11         4.1304   -1.2756    7.2341 H         1 <0>         0.1241
     33 H12         4.8246   -3.6269    7.4641 H         1 <0>         0.1228
     34 H13         4.2876   -5.2483    5.6904 H         1 <0>         0.1239
     35 H14         3.0500   -4.5200    3.6901 H         1 <0>         0.1239
     36 H15        -3.7608   -1.4549    0.2960 H         1 <0>         0.4264
     37 H16        -3.6616   -1.8054    1.9362 H         1 <0>         0.4114
@<TRIPOS>BOND
     1    1    2 1
     2    1   24 1
     3    1   25 1
     4    1   26 1
     5    2    3 1
     6    2    8 1
     7    2    4 1
     8    4    5 2
     9    4   22 1
    10    5    6 1
    11    5   21 1
    12    6    7 1
    13    7   14 1
    14    7    8 2
    15    8    9 1
    16    9   10 2
    17    9   11 1
    18   11   12 1
    19   11   27 1
    20   11   28 1
    21   12   13 1
    22   12   14 1
    23   12   15 1
    24   14   29 1
    25   14   30 1
    26   15   20 ar
    27   15   16 ar
    28   16   17 ar
    29   16   31 1
    30   17   18 ar
    31   17   32 1
    32   18   19 ar
    33   18   33 1
    34   19   20 ar
    35   19   34 1
    36   20   35 1
    37   21   36 1
    38   21   37 1
    39   22   23 3
@<TRIPOS>MOLECULE
ZINC00315578
   37    39     0     0     0
SMALL
USER_CHARGES

@<TRIPOS>ATOM
      1 C1         -0.0187    1.5258    0.0104 C.3       1 <0>        -0.1418
      2 C2          0.0021   -0.0041    0.0020 C.3       1 <0>         0.0483
      3 H1         -1.0214   -0.3790    0.0098 H         1 <0>         0.0917
      4 C3          0.6991   -0.4855   -1.2393 C.2       1 <0>        -0.2650
      5 C4          1.9788   -0.9288   -1.1815 C.2       1 <0>         0.4245
      6 O1          2.6550   -0.9468   -0.0208 O.3       1 <0>        -0.2423
      7 C5          1.9939   -0.9354    1.1527 C.2       1 <0>         0.1680
      8 C6          0.7257   -0.5009    1.2299 C.2       1 <0>        -0.2657
      9 C7          0.0328   -0.4964    2.4558 C.2       1 <0>         0.4040
     10 O2         -1.1090   -0.0836    2.4941 O.2       1 <0>        -0.4493
     11 C8          0.6811   -0.9941    3.7190 C.3       1 <0>        -0.1620
     12 C9          1.7332   -2.0471    3.3547 C.3       1 <0>        -0.0367
     13 H2          1.2478   -2.9027    2.8851 H         1 <0>         0.0948
     14 C10         2.7228   -1.4193    2.3838 C.3       1 <0>        -0.0726
     15 C11         2.4542   -2.4945    4.6001 C.ar      1 <0>        -0.0831
     16 C12         3.1488   -1.5756    5.3644 C.ar      1 <0>        -0.1131
     17 C13         3.8102   -1.9860    6.5068 C.ar      1 <0>        -0.1164
     18 C14         3.7767   -3.3152    6.8851 C.ar      1 <0>        -0.1172
     19 C15         3.0813   -4.2339    6.1212 C.ar      1 <0>        -0.1169
     20 C16         2.4164   -3.8227    4.9812 C.ar      1 <0>        -0.1095
     21 N1          2.5941   -1.3660   -2.3281 N.pl3     1 <0>        -0.8307
     22 C17         0.0063   -0.4755   -2.4925 C.1       1 <0>         0.2710
     23 N2         -0.5432   -0.4676   -3.4867 N.1       1 <0>        -0.4416
     24 H3          1.0039    1.9031    0.0027 H         1 <0>         0.0541
     25 H4         -0.5459    1.8868   -0.8726 H         1 <0>         0.0597
     26 H5         -0.5289    1.8773    0.9072 H         1 <0>         0.0644
     27 H6          1.1604   -0.1625    4.2355 H         1 <0>         0.1082
     28 H7         -0.0742   -1.4411    4.3653 H         1 <0>         0.1050
     29 H8          3.4662   -2.1629    2.0964 H         1 <0>         0.1036
     30 H9          3.2201   -0.5773    2.8653 H         1 <0>         0.1104
     31 H10         3.1750   -0.5372    5.0688 H         1 <0>         0.1238
     32 H11         4.3535   -1.2683    7.1035 H         1 <0>         0.1241
     33 H12         4.2940   -3.6359    7.7772 H         1 <0>         0.1228
     34 H13         3.0554   -5.2724    6.4166 H         1 <0>         0.1239
     35 H14         1.8700   -4.5398    4.3865 H         1 <0>         0.1239
     36 H15         2.1134   -1.3561   -3.1705 H         1 <0>         0.4264
     37 H16         3.5097   -1.6848   -2.2958 H         1 <0>         0.4114
@<TRIPOS>BOND
     1    1    2 1
     2    1   24 1
     3    1   25 1
     4    1   26 1
     5    2    3 1
     6    2    8 1
     7    2    4 1
     8    4    5 2
     9    4   22 1
    10    5    6 1
    11    5   21 1
    12    6    7 1
    13    7   14 1
    14    7    8 2
    15    8    9 1
    16    9   10 2
    17    9   11 1
    18   11   12 1
    19   11   27 1
    20   11   28 1
    21   12   13 1
    22   12   14 1
    23   12   15 1
    24   14   29 1
    25   14   30 1
    26   15   20 ar
    27   15   16 ar
    28   16   17 ar
    29   16   31 1
    30   17   18 ar
    31   17   32 1
    32   18   19 ar
    33   18   33 1
    34   19   20 ar
    35   19   34 1
    36   20   35 1
    37   21   36 1
    38   21   37 1
    39   22   23 3
@<TRIPOS>MOLECULE
ZINC00315580
   37    39     0     0     0
SMALL
USER_CHARGES

@<TRIPOS>ATOM
      1 C1         -0.0187    1.5258    0.0104 C.3       1 <0>        -0.1420
      2 C2          0.0021   -0.0041    0.0020 C.3       1 <0>         0.0482
      3 H1          0.5127   -0.3531   -0.8955 H         1 <0>         0.0920
      4 C3         -1.4090   -0.5208    0.0045 C.2       1 <0>        -0.2643
      5 C4         -1.9657   -0.9963    1.1453 C.2       1 <0>         0.4237
      6 O1         -1.2747   -1.0174    2.2975 O.3       1 <0>        -0.2419
      7 C5          0.0717   -0.9781    2.2833 C.2       1 <0>         0.1675
      8 C6          0.7397   -0.5006    1.2216 C.2       1 <0>        -0.2655
      9 C7          2.1469   -0.4471    1.2135 C.2       1 <0>         0.4039
     10 O2          2.7220   -0.0229    0.2312 O.2       1 <0>        -0.4496
     11 C8          2.9510   -0.9055    2.3996 C.3       1 <0>        -0.1624
     12 C9          2.1122   -0.7210    3.6688 C.3       1 <0>        -0.0366
     13 H2          1.8995    0.3378    3.8165 H         1 <0>         0.0968
     14 C10         0.8109   -1.4909    3.4964 C.3       1 <0>        -0.0728
     15 C11         2.8681   -1.2563    4.8575 C.ar      1 <0>        -0.0829
     16 C12         3.2463   -2.5854    4.8948 C.ar      1 <0>        -0.1139
     17 C13         3.9396   -3.0765    5.9852 C.ar      1 <0>        -0.1166
     18 C14         4.2551   -2.2383    7.0383 C.ar      1 <0>        -0.1174
     19 C15         3.8777   -0.9090    7.0006 C.ar      1 <0>        -0.1168
     20 C16         3.1881   -0.4169    5.9082 C.ar      1 <0>        -0.1091
     21 N1         -3.2560   -1.4643    1.1231 N.pl3     1 <0>        -0.8308
     22 C17        -2.1717   -0.5104   -1.2075 C.1       1 <0>         0.2709
     23 N2         -2.7766   -0.5022   -2.1690 N.1       1 <0>        -0.4414
     24 H3          1.0039    1.9031    0.0027 H         1 <0>         0.0642
     25 H4         -0.5459    1.8868   -0.8726 H         1 <0>         0.0596
     26 H5         -0.5289    1.8773    0.9072 H         1 <0>         0.0543
     27 H6          3.2080   -1.9582    2.2816 H         1 <0>         0.1072
     28 H7          3.8620   -0.3117    2.4746 H         1 <0>         0.1054
     29 H8          0.1935   -1.3505    4.3836 H         1 <0>         0.1046
     30 H9          1.0256   -2.5519    3.3687 H         1 <0>         0.1096
     31 H10         2.9997   -3.2403    4.0721 H         1 <0>         0.1230
     32 H11         4.2344   -4.1150    6.0147 H         1 <0>         0.1238
     33 H12         4.7961   -2.6221    7.8905 H         1 <0>         0.1227
     34 H13         4.1239   -0.2542    7.8235 H         1 <0>         0.1240
     35 H14         2.8965    0.6225    5.8771 H         1 <0>         0.1245
     36 H15        -3.7619   -1.4530    0.2955 H         1 <0>         0.4263
     37 H16        -3.6620   -1.8063    1.9350 H         1 <0>         0.4114
@<TRIPOS>BOND
     1    1    2 1
     2    1   24 1
     3    1   25 1
     4    1   26 1
     5    2    3 1
     6    2    8 1
     7    2    4 1
     8    4    5 2
     9    4   22 1
    10    5    6 1
    11    5   21 1
    12    6    7 1
    13    7   14 1
    14    7    8 2
    15    8    9 1
    16    9   10 2
    17    9   11 1
    18   11   12 1
    19   11   27 1
    20   11   28 1
    21   12   13 1
    22   12   14 1
    23   12   15 1
    24   14   29 1
    25   14   30 1
    26   15   20 ar
    27   15   16 ar
    28   16   17 ar
    29   16   31 1
    30   17   18 ar
    31   17   32 1
    32   18   19 ar
    33   18   33 1
    34   19   20 ar
    35   19   34 1
    36   20   35 1
    37   21   36 1
    38   21   37 1
    39   22   23 3
@<TRIPOS>MOLECULE
ZINC00659265
   48    51     0     0     0
SMALL
USER_CHARGES
2-amino-7-(2-chlorophenyl)-4-(4-methoxyphenyl)-5-oxo-4,6,7,8-tetrahydrochromene-3-carbonitrile
@<TRIPOS>ATOM
      1 C1         -3.5994    1.8236    0.0294 C.3       1 <0>         0.0274
      2 O1         -2.3916    1.0599    0.0196 O.3       1 <0>        -0.3179
      3 C2         -1.2230    1.7537    0.0174 C.ar      1 <0>         0.1267
      4 C3         -0.0126    1.0758    0.0080 C.ar      1 <0>        -0.1501
      5 C4          1.1739    1.7833    0.0004 C.ar      1 <0>        -0.0590
      6 C5          1.1558    3.1658    0.0075 C.ar      1 <0>        -0.1110
      7 C6         -0.0492    3.8437    0.0222 C.ar      1 <0>        -0.0653
      8 C7         -1.2384    3.1409    0.0293 C.ar      1 <0>        -0.2081
      9 C8          2.4517    3.9351   -0.0002 C.3       1 <0>         0.0969
     10 H1          3.2874    3.2354   -0.0112 H         1 <0>         0.1005
     11 C9          2.5101    4.8009   -1.2277 C.2       1 <0>        -0.2577
     12 C10         2.2498    6.1282   -1.1434 C.2       1 <0>         0.4226
     13 O2          1.9308    6.7047    0.0259 O.3       1 <0>        -0.2380
     14 C11         2.2783    6.1096    1.1824 C.2       1 <0>         0.1648
     15 C12         2.5325    4.7921    1.2400 C.2       1 <0>        -0.2563
     16 C13         2.8828    4.1652    2.4543 C.2       1 <0>         0.4042
     17 O3          3.1184    2.9736    2.4652 O.2       1 <0>        -0.4409
     18 C14         2.9686    4.9468    3.7371 C.3       1 <0>        -0.1508
     19 C15         2.0138    6.1424    3.6537 C.3       1 <0>        -0.0480
     20 H2          0.9875    5.7861    3.5646 H         1 <0>         0.1056
     21 C16         2.3795    6.9701    2.4201 C.3       1 <0>        -0.0716
     22 C17         2.1542    6.9899    4.8919 C.ar      1 <0>        -0.0737
     23 C18         3.3788    7.5436    5.2154 C.ar      1 <0>        -0.1016
     24 C19         3.5079    8.3205    6.3513 C.ar      1 <0>        -0.1104
     25 C20         2.4122    8.5450    7.1642 C.ar      1 <0>        -0.1039
     26 C21         1.1873    7.9923    6.8415 C.ar      1 <0>        -0.1069
     27 C22         1.0564    7.2185    5.7019 C.ar      1 <0>        -0.0276
     28 Cl1        -0.4835    6.5297    5.2921 Cl        1 <0>        -0.0611
     29 N1          2.3141    6.8991   -2.2775 N.pl3     1 <0>        -0.8300
     30 C23         2.8424    4.2196   -2.4935 C.1       1 <0>         0.2717
     31 N2          3.1060    3.7585   -3.4977 N.1       1 <0>        -0.4376
     32 H3         -4.4557    1.1492    0.0302 H         1 <0>         0.1001
     33 H4         -3.6275    2.4476    0.9227 H         1 <0>         0.0550
     34 H5         -3.6362    2.4566   -0.8572 H         1 <0>         0.0548
     35 H6          0.0021   -0.0041    0.0020 H         1 <0>         0.1308
     36 H7          2.1164    1.2561   -0.0114 H         1 <0>         0.1300
     37 H8         -0.0606    4.9237    0.0277 H         1 <0>         0.1158
     38 H9         -2.1794    3.6708    0.0400 H         1 <0>         0.1263
     39 H10         3.9058    5.2698    3.8686 H         1 <0>         0.0977
     40 H11         2.6839    4.3098    4.5745 H         1 <0>         0.1059
     41 H12         3.3993    7.3412    2.5216 H         1 <0>         0.1107
     42 H13         1.6937    7.8129    2.3331 H         1 <0>         0.1062
     43 H14         4.2349    7.3689    4.5807 H         1 <0>         0.1339
     44 H15         4.4649    8.7527    6.6039 H         1 <0>         0.1320
     45 H16         2.5135    9.1527    8.0512 H         1 <0>         0.1339
     46 H17         0.3315    8.1681    7.4764 H         1 <0>         0.1358
     47 H18         2.5440    6.4928   -3.1277 H         1 <0>         0.4265
     48 H19         2.1296    7.8501   -2.2285 H         1 <0>         0.4116
@<TRIPOS>BOND
     1    1    2 1
     2    1   32 1
     3    1   33 1
     4    1   34 1
     5    2    3 1
     6    3    8 ar
     7    3    4 ar
     8    4    5 ar
     9    4   35 1
    10    5    6 ar
    11    5   36 1
    12    6    7 ar
    13    6    9 1
    14    7    8 ar
    15    7   37 1
    16    8   38 1
    17    9   10 1
    18    9   15 1
    19    9   11 1
    20   11   12 2
    21   11   30 1
    22   12   13 1
    23   12   29 1
    24   13   14 1
    25   14   21 1
    26   14   15 2
    27   15   16 1
    28   16   17 2
    29   16   18 1
    30   18   19 1
    31   18   39 1
    32   18   40 1
    33   19   20 1
    34   19   21 1
    35   19   22 1
    36   21   41 1
    37   21   42 1
    38   22   27 ar
    39   22   23 ar
    40   23   24 ar
    41   23   43 1
    42   24   25 ar
    43   24   44 1
    44   25   26 ar
    45   25   45 1
    46   26   27 ar
    47   26   46 1
    48   27   28 1
    49   29   47 1
    50   29   48 1
    51   30   31 3
@<TRIPOS>MOLECULE
ZINC00659267
   48    51     0     0     0
SMALL
USER_CHARGES
2-amino-7-(2-chlorophenyl)-4-(4-methoxyphenyl)-5-oxo-4,6,7,8-tetrahydrochromene-3-carbonitrile
@<TRIPOS>ATOM
      1 C1         -2.7290   -1.3631    6.2088 C.3       1 <0>         0.0275
      2 O1         -3.5021   -0.7399    5.1811 O.3       1 <0>        -0.3180
      3 C2         -2.9757   -0.7385    3.9282 C.ar      1 <0>         0.1264
      4 C3         -3.6726   -0.1507    2.8825 C.ar      1 <0>        -0.1499
      5 C4         -3.1352   -0.1502    1.6098 C.ar      1 <0>        -0.0589
      6 C5         -1.9039   -0.7348    1.3778 C.ar      1 <0>        -0.1099
      7 C6         -1.2099   -1.3262    2.4172 C.ar      1 <0>        -0.0662
      8 C7         -1.7404   -1.3244    3.6928 C.ar      1 <0>        -0.2084
      9 C8         -1.3200   -0.7328   -0.0115 C.3       1 <0>         0.0965
     10 H1         -2.0060   -0.2247   -0.6893 H         1 <0>         0.1000
     11 C9         -1.1228   -2.1502   -0.4715 C.2       1 <0>        -0.2582
     12 C10         0.1093   -2.7140   -0.4451 C.2       1 <0>         0.4235
     13 O2          1.1801   -2.0342   -0.0067 O.3       1 <0>        -0.2383
     14 C11         1.1609   -0.6881    0.0069 C.2       1 <0>         0.1656
     15 C12         0.0021   -0.0041    0.0020 C.2       1 <0>        -0.2565
     16 C13        -0.0170    1.4039    0.0098 C.2       1 <0>         0.4040
     17 O3         -1.0832    1.9859    0.0179 O.2       1 <0>        -0.4411
     18 C14         1.2593    2.2005    0.0019 C.3       1 <0>        -0.1494
     19 C15         2.3515    1.3791   -0.6914 C.3       1 <0>        -0.0477
     20 H2          2.0751    1.2061   -1.7314 H         1 <0>         0.1042
     21 C16         2.4848    0.0392    0.0348 C.3       1 <0>        -0.0711
     22 C17         3.6611    2.1220   -0.6279 C.ar      1 <0>        -0.0740
     23 C18         4.2018    2.4666    0.5968 C.ar      1 <0>        -0.1011
     24 C19         5.4054    3.1438    0.6553 C.ar      1 <0>        -0.1102
     25 C20         6.0639    3.4862   -0.5112 C.ar      1 <0>        -0.1037
     26 C21         5.5218    3.1469   -1.7362 C.ar      1 <0>        -0.1068
     27 C22         4.3196    2.4644   -1.7953 C.ar      1 <0>        -0.0278
     28 Cl1         3.6381    2.0373   -3.3338 Cl        1 <0>        -0.0617
     29 N1          0.2652   -4.0082   -0.8755 N.pl3     1 <0>        -0.8298
     30 C23        -2.2431   -2.9092   -0.9399 C.1       1 <0>         0.2716
     31 N2         -3.1319   -3.5113   -1.3115 N.1       1 <0>        -0.4376
     32 H3         -3.2624   -1.2944    7.1569 H         1 <0>         0.1001
     33 H4         -2.5684   -2.4115    5.9574 H         1 <0>         0.0548
     34 H5         -1.7667   -0.8588    6.2960 H         1 <0>         0.0551
     35 H6         -4.6343    0.3064    3.0632 H         1 <0>         0.1310
     36 H7         -3.6775    0.3070    0.7954 H         1 <0>         0.1300
     37 H8         -0.2505   -1.7864    2.2325 H         1 <0>         0.1158
     38 H9         -1.1960   -1.7826    4.5052 H         1 <0>         0.1265
     39 H10         1.1141    3.0578   -0.4920 H         1 <0>         0.0946
     40 H11         1.5606    2.4176    1.0266 H         1 <0>         0.1080
     41 H12         2.7804    0.2150    1.0692 H         1 <0>         0.1113
     42 H13         3.2428   -0.5679   -0.4602 H         1 <0>         0.1051
     43 H14         3.6857    2.2033    1.5082 H         1 <0>         0.1345
     44 H15         5.8293    3.4095    1.6124 H         1 <0>         0.1322
     45 H16         7.0024    4.0187   -0.4650 H         1 <0>         0.1340
     46 H17         6.0361    3.4148   -2.6474 H         1 <0>         0.1359
     47 H18        -0.5019   -4.5091   -1.1942 H         1 <0>         0.4266
     48 H19         1.1425   -4.4218   -0.8610 H         1 <0>         0.4117
@<TRIPOS>BOND
     1    1    2 1
     2    1   32 1
     3    1   33 1
     4    1   34 1
     5    2    3 1
     6    3    8 ar
     7    3    4 ar
     8    4    5 ar
     9    4   35 1
    10    5    6 ar
    11    5   36 1
    12    6    7 ar
    13    6    9 1
    14    7    8 ar
    15    7   37 1
    16    8   38 1
    17    9   10 1
    18    9   15 1
    19    9   11 1
    20   11   12 2
    21   11   30 1
    22   12   13 1
    23   12   29 1
    24   13   14 1
    25   14   21 1
    26   14   15 2
    27   15   16 1
    28   16   17 2
    29   16   18 1
    30   18   19 1
    31   18   39 1
    32   18   40 1
    33   19   20 1
    34   19   21 1
    35   19   22 1
    36   21   41 1
    37   21   42 1
    38   22   27 ar
    39   22   23 ar
    40   23   24 ar
    41   23   43 1
    42   24   25 ar
    43   24   44 1
    44   25   26 ar
    45   25   45 1
    46   26   27 ar
    47   26   46 1
    48   27   28 1
    49   29   47 1
    50   29   48 1
    51   30   31 3
@<TRIPOS>MOLECULE
ZINC00659270
   48    51     0     0     0
SMALL
USER_CHARGES
2-amino-7-(2-chlorophenyl)-4-(4-methoxyphenyl)-5-oxo-4,6,7,8-tetrahydrochromene-3-carbonitrile
@<TRIPOS>ATOM
      1 C1         -0.0988   -1.5236    6.2274 C.3       1 <0>         0.0275
      2 O1         -1.0133   -1.9159    5.2018 O.3       1 <0>        -0.3180
      3 C2         -0.7687   -1.4541    3.9473 C.ar      1 <0>         0.1264
      4 C3         -1.6162   -1.7959    2.9035 C.ar      1 <0>        -0.1499
      5 C4         -1.3651   -1.3256    1.6291 C.ar      1 <0>        -0.0587
      6 C5         -0.2698   -0.5153    1.3933 C.ar      1 <0>        -0.1098
      7 C6          0.5796   -0.1779    2.4308 C.ar      1 <0>        -0.0662
      8 C7          0.3294   -0.6406    3.7082 C.ar      1 <0>        -0.2085
      9 C8          0.0021   -0.0041    0.0020 C.3       1 <0>         0.0966
     10 H1         -0.7683   -0.3724   -0.6754 H         1 <0>         0.0999
     11 C9         -0.0183    1.4990    0.0103 C.2       1 <0>        -0.2581
     12 C10         1.1414    2.2001    0.0030 C.2       1 <0>         0.4234
     13 O2          2.3323    1.5817   -0.0062 O.3       1 <0>        -0.2383
     14 C11         2.4242    0.3095   -0.4366 C.2       1 <0>         0.1655
     15 C12         1.3506   -0.5015   -0.4596 C.2       1 <0>        -0.2565
     16 C13         1.4469   -1.8313   -0.9127 C.2       1 <0>         0.4041
     17 O3          0.4598   -2.5391   -0.8995 O.2       1 <0>        -0.4409
     18 C14         2.7510   -2.3912   -1.4124 C.3       1 <0>        -0.1495
     19 C15         3.5946   -1.2460   -1.9830 C.3       1 <0>        -0.0478
     20 H2          3.0835   -0.8059   -2.8392 H         1 <0>         0.1042
     21 C16         3.7758   -0.1880   -0.8930 C.3       1 <0>        -0.0711
     22 C17         4.9416   -1.7718   -2.4073 C.ar      1 <0>        -0.0740
     23 C18         5.7664   -2.3858   -1.4834 C.ar      1 <0>        -0.1011
     24 C19         7.0017   -2.8685   -1.8726 C.ar      1 <0>        -0.1102
     25 C20         7.4132   -2.7377   -3.1860 C.ar      1 <0>        -0.1037
     26 C21         6.5897   -2.1237   -4.1105 C.ar      1 <0>        -0.1068
     27 C22         5.3505   -1.6453   -3.7227 C.ar      1 <0>        -0.0279
     28 Cl1         4.3120   -0.8813   -4.8853 Cl        1 <0>        -0.0617
     29 N1          1.0969    3.5722    0.0045 N.pl3     1 <0>        -0.8299
     30 C23        -1.2703    2.1939    0.0200 C.1       1 <0>         0.2717
     31 N2         -2.2636    2.7452    0.0276 N.1       1 <0>        -0.4376
     32 H3         -0.0915   -0.4369    6.3115 H         1 <0>         0.0548
     33 H4         -0.4090   -1.9595    7.1770 H         1 <0>         0.1001
     34 H5          0.9018   -1.8752    5.9758 H         1 <0>         0.0550
     35 H6         -2.4715   -2.4293    3.0871 H         1 <0>         0.1309
     36 H7         -2.0246   -1.5913    0.8162 H         1 <0>         0.1300
     37 H8          1.4371    0.4513    2.2432 H         1 <0>         0.1158
     38 H9          0.9909   -0.3735    4.5191 H         1 <0>         0.1265
     39 H10         2.5714   -3.0686   -2.1257 H         1 <0>         0.0945
     40 H11         3.2867   -2.8647   -0.5897 H         1 <0>         0.1081
     41 H12         4.3542    0.6463   -1.2900 H         1 <0>         0.1051
     42 H13         4.3058   -0.6258   -0.0471 H         1 <0>         0.1112
     43 H14         5.4454   -2.4886   -0.4574 H         1 <0>         0.1345
     44 H15         7.6456   -3.3484   -1.1505 H         1 <0>         0.1321
     45 H16         8.3785   -3.1150   -3.4895 H         1 <0>         0.1340
     46 H17         6.9110   -2.0218   -5.1365 H         1 <0>         0.1359
     47 H18         0.2416    4.0297    0.0107 H         1 <0>         0.4266
     48 H19         1.9207    4.0842   -0.0007 H         1 <0>         0.4117
@<TRIPOS>BOND
     1    1    2 1
     2    1   32 1
     3    1   33 1
     4    1   34 1
     5    2    3 1
     6    3    8 ar
     7    3    4 ar
     8    4    5 ar
     9    4   35 1
    10    5    6 ar
    11    5   36 1
    12    6    7 ar
    13    6    9 1
    14    7    8 ar
    15    7   37 1
    16    8   38 1
    17    9   10 1
    18    9   15 1
    19    9   11 1
    20   11   12 2
    21   11   30 1
    22   12   13 1
    23   12   29 1
    24   13   14 1
    25   14   21 1
    26   14   15 2
    27   15   16 1
    28   16   17 2
    29   16   18 1
    30   18   19 1
    31   18   39 1
    32   18   40 1
    33   19   20 1
    34   19   21 1
    35   19   22 1
    36   21   41 1
    37   21   42 1
    38   22   27 ar
    39   22   23 ar
    40   23   24 ar
    41   23   43 1
    42   24   25 ar
    43   24   44 1
    44   25   26 ar
    45   25   45 1
    46   26   27 ar
    47   26   46 1
    48   27   28 1
    49   29   47 1
    50   29   48 1
    51   30   31 3
@<TRIPOS>MOLECULE
ZINC00659271
   48    51     0     0     0
SMALL
USER_CHARGES
2-amino-7-(2-chlorophenyl)-4-(4-methoxyphenyl)-5-oxo-4,6,7,8-tetrahydrochromene-3-carbonitrile
@<TRIPOS>ATOM
      1 C1         -3.7539    4.6758   -6.1795 C.3       1 <0>         0.0274
      2 O1         -3.6072    5.6530   -5.1472 O.3       1 <0>        -0.3179
      3 C2         -3.3428    5.1937   -3.8958 C.ar      1 <0>         0.1268
      4 C3         -3.1883    6.0873   -2.8459 C.ar      1 <0>        -0.1501
      5 C4         -2.9192    5.6179   -1.5748 C.ar      1 <0>        -0.0591
      6 C5         -2.8033    4.2588   -1.3487 C.ar      1 <0>        -0.1110
      7 C6         -2.9512    3.3664   -2.3945 C.ar      1 <0>        -0.0655
      8 C7         -3.2265    3.8305   -3.6662 C.ar      1 <0>        -0.2081
      9 C8         -2.5091    3.7495    0.0388 C.3       1 <0>         0.0967
     10 H1         -2.4269    4.5934    0.7237 H         1 <0>         0.1004
     11 C9         -1.2113    2.9911    0.0296 C.2       1 <0>        -0.2576
     12 C10        -1.2091    1.6360    0.0167 C.2       1 <0>         0.4226
     13 O2         -2.3540    0.9354    0.0183 O.3       1 <0>        -0.2376
     14 C11        -3.4888    1.5090    0.4604 C.2       1 <0>         0.1649
     15 C12        -3.6321    2.8467    0.4893 C.2       1 <0>        -0.2564
     16 C13        -4.8246    3.4457    0.9388 C.2       1 <0>         0.4041
     17 O3         -4.9100    4.6571    0.9655 O.2       1 <0>        -0.4414
     18 C14        -5.9946    2.6128    1.3870 C.3       1 <0>        -0.1496
     19 C15        -5.9549    1.2673    0.6546 C.3       1 <0>        -0.0482
     20 H2         -6.0708    1.4299   -0.4169 H         1 <0>         0.1054
     21 C16        -4.6039    0.6046    0.9309 C.3       1 <0>        -0.0711
     22 C17        -7.0655    0.3828    1.1598 C.ar      1 <0>        -0.0735
     23 C18        -7.1248    0.0441    2.4987 C.ar      1 <0>        -0.1018
     24 C19        -8.1461   -0.7632    2.9631 C.ar      1 <0>        -0.1103
     25 C20        -9.1030   -1.2411    2.0869 C.ar      1 <0>        -0.1040
     26 C21        -9.0418   -0.9074    0.7473 C.ar      1 <0>        -0.1067
     27 C22        -8.0226   -0.0949    0.2828 C.ar      1 <0>        -0.0278
     28 Cl1        -7.9454    0.3251   -1.3999 Cl        1 <0>        -0.0612
     29 N1         -0.0111    0.9658    0.0074 N.pl3     1 <0>        -0.8300
     30 C23         0.0301    3.7049    0.0291 C.1       1 <0>         0.2716
     31 N2          1.0150    4.2711    0.0287 N.1       1 <0>        -0.4376
     32 H3         -4.5788    4.0074   -5.9325 H         1 <0>         0.0550
     33 H4         -3.9618    5.1753   -7.1257 H         1 <0>         0.1002
     34 H5         -2.8330    4.0993   -6.2676 H         1 <0>         0.0548
     35 H6         -3.2787    7.1490   -3.0221 H         1 <0>         0.1309
     36 H7         -2.7988    6.3131   -0.7572 H         1 <0>         0.1300
     37 H8         -2.8555    2.3056   -2.2162 H         1 <0>         0.1158
     38 H9         -3.3460    3.1329   -4.4820 H         1 <0>         0.1263
     39 H10        -6.8461    3.0910    1.1717 H         1 <0>         0.0944
     40 H11        -5.9350    2.4451    2.4623 H         1 <0>         0.1079
     41 H12        -4.5500   -0.3449    0.3984 H         1 <0>         0.1060
     42 H13        -4.4997    0.4269    2.0012 H         1 <0>         0.1112
     43 H14        -6.3750    0.4134    3.1828 H         1 <0>         0.1342
     44 H15        -8.1945   -1.0240    4.0100 H         1 <0>         0.1321
     45 H16        -9.8983   -1.8755    2.4495 H         1 <0>         0.1339
     46 H17        -9.7892   -1.2810    0.0630 H         1 <0>         0.1358
     47 H18         0.0021   -0.0041    0.0020 H         1 <0>         0.4117
     48 H19         0.8223    1.4622    0.0021 H         1 <0>         0.4265
@<TRIPOS>BOND
     1    1    2 1
     2    1   32 1
     3    1   33 1
     4    1   34 1
     5    2    3 1
     6    3    8 ar
     7    3    4 ar
     8    4    5 ar
     9    4   35 1
    10    5    6 ar
    11    5   36 1
    12    6    7 ar
    13    6    9 1
    14    7    8 ar
    15    7   37 1
    16    8   38 1
    17    9   10 1
    18    9   15 1
    19    9   11 1
    20   11   12 2
    21   11   30 1
    22   12   13 1
    23   12   29 1
    24   13   14 1
    25   14   21 1
    26   14   15 2
    27   15   16 1
    28   16   17 2
    29   16   18 1
    30   18   19 1
    31   18   39 1
    32   18   40 1
    33   19   20 1
    34   19   21 1
    35   19   22 1
    36   21   41 1
    37   21   42 1
    38   22   27 ar
    39   22   23 ar
    40   23   24 ar
    41   23   43 1
    42   24   25 ar
    43   24   44 1
    44   25   26 ar
    45   25   45 1
    46   26   27 ar
    47   26   46 1
    48   27   28 1
    49   29   47 1
    50   29   48 1
    51   30   31 3
@<TRIPOS>MOLECULE
ZINC40914195
   54    58     0     0     0
SMALL
USER_CHARGES

@<TRIPOS>ATOM
      1 C1         -0.0168    1.4120   -0.0038 C.3       1 <0>         0.0268
      2 O1          0.0053   -0.0168   -0.0082 O.3       1 <0>        -0.3185
      3 C2          0.6280   -0.6274    1.0341 C.ar      1 <0>         0.1266
      4 C3          1.2008    0.1329    2.0433 C.ar      1 <0>        -0.2063
      5 C4          1.8327   -0.4901    3.1019 C.ar      1 <0>        -0.0581
      6 C5          1.8951   -1.8703    3.1560 C.ar      1 <0>        -0.1104
      7 C6          1.3254   -2.6304    2.1513 C.ar      1 <0>        -0.0669
      8 C7          0.6869   -2.0122    1.0936 C.ar      1 <0>        -0.1522
      9 C8          2.5855   -2.5474    4.3118 C.3       1 <0>         0.0979
     10 H1          2.9688   -1.7909    4.9966 H         1 <0>         0.0989
     11 C9          3.7284   -3.3742    3.7935 C.2       1 <0>        -0.2594
     12 C10         3.6080   -4.7195    3.6792 C.2       1 <0>         0.4252
     13 O2          2.4699   -5.3455    4.0228 O.3       1 <0>        -0.2408
     14 C11         1.5969   -4.7561    4.8623 C.2       1 <0>         0.1675
     15 C12         1.5969   -3.4254    5.0397 C.2       1 <0>        -0.2587
     16 C13         0.6748   -2.8086    5.9072 C.2       1 <0>         0.4040
     17 O3          0.7101   -1.6035    6.0561 O.2       1 <0>        -0.4445
     18 C14        -0.3530   -3.6152    6.6531 C.3       1 <0>        -0.1607
     19 C15        -0.6774   -4.8756    5.8440 C.3       1 <0>        -0.0414
     20 H2         -1.1228   -4.5938    4.8900 H         1 <0>         0.1001
     21 C16         0.6182   -5.6359    5.6033 C.3       1 <0>        -0.0728
     22 C17        -1.6402   -5.7397    6.6169 C.ar      1 <0>        -0.0686
     23 C18        -1.2570   -6.3079    7.7930 C.ar      1 <0>        -0.1077
     24 C19        -2.1332   -7.1098    8.5214 C.ar      1 <0>        -0.1149
     25 C20        -3.3978   -7.3486    8.0779 C.ar      1 <0>        -0.1013
     26 C21        -3.8293   -6.7792    6.8681 C.ar      1 <0>        -0.0504
     27 C22        -2.9399   -5.9584    6.1302 C.ar      1 <0>        -0.0401
     28 C23        -3.3736   -5.3840    4.9229 C.ar      1 <0>        -0.1128
     29 C24        -4.6398   -5.6181    4.4826 C.ar      1 <0>        -0.1108
     30 C25        -5.5165   -6.4199    5.2114 C.ar      1 <0>        -0.1149
     31 C26        -5.1273   -7.0034    6.3778 C.ar      1 <0>        -0.1053
     32 N1          4.6659   -5.4542    3.2042 N.pl3     1 <0>        -0.8291
     33 C27         4.9537   -2.7359    3.4171 C.1       1 <0>         0.2718
     34 N2          5.9258   -2.2295    3.1184 N.1       1 <0>        -0.4389
     35 H3          1.0050    1.7913   -0.0103 H         1 <0>         0.0554
     36 H4         -0.5428    1.7700   -0.8889 H         1 <0>         0.1003
     37 H5         -0.5296    1.7647    0.8910 H         1 <0>         0.0560
     38 H6          1.1530    1.2111    2.0011 H         1 <0>         0.1278
     39 H7          2.2788    0.1013    3.8878 H         1 <0>         0.1251
     40 H8          1.3757   -3.7083    2.1956 H         1 <0>         0.1201
     41 H9          0.2382   -2.6063    0.3113 H         1 <0>         0.1293
     42 H10         0.0430   -3.8991    7.6281 H         1 <0>         0.1081
     43 H11        -1.2582   -3.0221    6.7835 H         1 <0>         0.1052
     44 H12         0.4064   -6.5243    5.0083 H         1 <0>         0.1062
     45 H13         1.0500   -5.9343    6.5587 H         1 <0>         0.1113
     46 H14        -0.2587   -6.1349    8.1670 H         1 <0>         0.1248
     47 H15        -1.8041   -7.5487    9.4517 H         1 <0>         0.1254
     48 H16        -4.0659   -7.9728    8.6527 H         1 <0>         0.1277
     49 H17        -2.7056   -4.7600    4.3478 H         1 <0>         0.1295
     50 H18        -4.9705   -5.1755    3.5546 H         1 <0>         0.1243
     51 H19        -6.5163   -6.5893    4.8397 H         1 <0>         0.1240
     52 H20        -5.8172   -7.6230    6.9314 H         1 <0>         0.1278
     53 H21         5.4911   -5.0102    2.9536 H         1 <0>         0.4267
     54 H22         4.5882   -6.4174    3.1192 H         1 <0>         0.4121
@<TRIPOS>BOND
     1    1    2 1
     2    1   35 1
     3    1   36 1
     4    1   37 1
     5    2    3 1
     6    3    8 ar
     7    3    4 ar
     8    4    5 ar
     9    4   38 1
    10    5    6 ar
    11    5   39 1
    12    6    7 ar
    13    6    9 1
    14    7    8 ar
    15    7   40 1
    16    8   41 1
    17    9   10 1
    18    9   15 1
    19    9   11 1
    20   11   12 2
    21   11   33 1
    22   12   13 1
    23   12   32 1
    24   13   14 1
    25   14   21 1
    26   14   15 2
    27   15   16 1
    28   16   17 2
    29   16   18 1
    30   18   19 1
    31   18   42 1
    32   18   43 1
    33   19   20 1
    34   19   21 1
    35   19   22 1
    36   21   44 1
    37   21   45 1
    38   22   27 ar
    39   22   23 ar
    40   23   24 ar
    41   23   46 1
    42   24   25 ar
    43   24   47 1
    44   25   26 ar
    45   25   48 1
    46   26   31 ar
    47   26   27 ar
    48   27   28 ar
    49   28   29 ar
    50   28   49 1
    51   29   30 ar
    52   29   50 1
    53   30   31 ar
    54   30   51 1
    55   31   52 1
    56   32   53 1
    57   32   54 1
    58   33   34 3
@<TRIPOS>MOLECULE
ZINC40914197
   54    58     0     0     0
SMALL
USER_CHARGES

@<TRIPOS>ATOM
      1 C1         -0.0015    1.4431    0.0155 C.3       1 <0>         0.0268
      2 O1          0.0159    0.0143    0.0037 O.3       1 <0>        -0.3186
      3 C2          0.6367   -0.6038    1.0427 C.ar      1 <0>         0.1265
      4 C3          1.2122    0.1493    2.0557 C.ar      1 <0>        -0.2063
      5 C4          1.8423   -0.4813    3.1110 C.ar      1 <0>        -0.0579
      6 C5          1.9000   -1.8620    3.1579 C.ar      1 <0>        -0.1101
      7 C6          1.3277   -2.6149    2.1493 C.ar      1 <0>        -0.0671
      8 C7          0.6911   -1.9891    1.0950 C.ar      1 <0>        -0.1522
      9 C8          2.5884   -2.5474    4.3100 C.3       1 <0>         0.0982
     10 H1          2.9744   -1.7958    4.9987 H         1 <0>         0.0985
     11 C9          1.6014   -3.4223    5.0303 C.2       1 <0>        -0.2601
     12 C10         1.6011   -4.7637    4.8355 C.2       1 <0>         0.4259
     13 O2          2.4753   -5.3430    3.9959 O.3       1 <0>        -0.2414
     14 C11         3.6144   -4.7100    3.6556 C.2       1 <0>         0.1681
     15 C12         3.7333   -3.3791    3.7850 C.2       1 <0>        -0.2589
     16 C13         4.9277   -2.7194    3.4368 C.2       1 <0>         0.4041
     17 O3          4.9979   -1.5123    3.5525 O.2       1 <0>        -0.4441
     18 C14         6.1186   -3.4829    2.9244 C.3       1 <0>        -0.1607
     19 C15         6.0823   -4.9028    3.4999 C.3       1 <0>        -0.0409
     20 H2          6.1718   -4.8604    4.5854 H         1 <0>         0.0984
     21 C16         4.7552   -5.5404    3.1169 C.3       1 <0>        -0.0730
     22 C17         7.2198   -5.7097    2.9291 C.ar      1 <0>        -0.0697
     23 C18         7.2554   -5.9964    1.5988 C.ar      1 <0>        -0.1064
     24 C19         8.2989   -6.7411    1.0531 C.ar      1 <0>        -0.1145
     25 C20         9.3129   -7.2040    1.8344 C.ar      1 <0>        -0.1012
     26 C21         9.3105   -6.9282    3.2121 C.ar      1 <0>        -0.0506
     27 C22         8.2522   -6.1653    3.7662 C.ar      1 <0>        -0.0401
     28 C23         8.2530   -5.8844    5.1434 C.ar      1 <0>        -0.1138
     29 C24         9.2699   -6.3423    5.9233 C.ar      1 <0>        -0.1109
     30 C25        10.3139   -7.0869    5.3773 C.ar      1 <0>        -0.1156
     31 C26        10.3397   -7.3896    4.0506 C.ar      1 <0>        -0.1046
     32 N1          0.6922   -5.5431    5.5070 N.pl3     1 <0>        -0.8290
     33 C27         0.6544   -2.8345    5.9294 C.1       1 <0>         0.2719
     34 N2         -0.0967   -2.3682    6.6427 N.1       1 <0>        -0.4390
     35 H3          1.0217    1.8190    0.0109 H         1 <0>         0.0561
     36 H4         -0.5264    1.8074   -0.8676 H         1 <0>         0.1003
     37 H5         -0.5129    1.7929    0.9123 H         1 <0>         0.0554
     38 H6          1.1680    1.2278    2.0192 H         1 <0>         0.1278
     39 H7          2.2904    0.1045    3.8999 H         1 <0>         0.1252
     40 H8          1.3744   -3.6932    2.1880 H         1 <0>         0.1200
     41 H9          0.2403   -2.5777    0.3096 H         1 <0>         0.1294
     42 H10         6.0820   -3.5291    1.8360 H         1 <0>         0.1087
     43 H11         7.0351   -2.9844    3.2399 H         1 <0>         0.1051
     44 H12         4.7042   -6.5441    3.5389 H         1 <0>         0.1050
     45 H13         4.6796   -5.5997    2.0311 H         1 <0>         0.1120
     46 H14         6.4627   -5.6415    0.9569 H         1 <0>         0.1257
     47 H15         8.3031   -6.9545   -0.0056 H         1 <0>         0.1259
     48 H16        10.1149   -7.7807    1.3977 H         1 <0>         0.1280
     49 H17         7.4510   -5.3080    5.5803 H         1 <0>         0.1288
     50 H18         9.2680   -6.1250    6.9812 H         1 <0>         0.1240
     51 H19        11.1089   -7.4380    6.0185 H         1 <0>         0.1240
     52 H20        11.1548   -7.9683    3.6417 H         1 <0>         0.1280
     53 H21         0.0572   -5.1331    6.1150 H         1 <0>         0.4268
     54 H22         0.6849   -6.5039    5.3736 H         1 <0>         0.4120
@<TRIPOS>BOND
     1    1    2 1
     2    1   35 1
     3    1   36 1
     4    1   37 1
     5    2    3 1
     6    3    8 ar
     7    3    4 ar
     8    4    5 ar
     9    4   38 1
    10    5    6 ar
    11    5   39 1
    12    6    7 ar
    13    6    9 1
    14    7    8 ar
    15    7   40 1
    16    8   41 1
    17    9   10 1
    18    9   15 1
    19    9   11 1
    20   11   12 2
    21   11   33 1
    22   12   13 1
    23   12   32 1
    24   13   14 1
    25   14   21 1
    26   14   15 2
    27   15   16 1
    28   16   17 2
    29   16   18 1
    30   18   19 1
    31   18   42 1
    32   18   43 1
    33   19   20 1
    34   19   21 1
    35   19   22 1
    36   21   44 1
    37   21   45 1
    38   22   27 ar
    39   22   23 ar
    40   23   24 ar
    41   23   46 1
    42   24   25 ar
    43   24   47 1
    44   25   26 ar
    45   25   48 1
    46   26   31 ar
    47   26   27 ar
    48   27   28 ar
    49   28   29 ar
    50   28   49 1
    51   29   30 ar
    52   29   50 1
    53   30   31 ar
    54   30   51 1
    55   31   52 1
    56   32   53 1
    57   32   54 1
    58   33   34 3
@<TRIPOS>MOLECULE
ZINC40914199
   54    58     0     0     0
SMALL
USER_CHARGES

@<TRIPOS>ATOM
      1 C1         -0.0140    1.4074   -0.0064 C.3       1 <0>         0.0268
      2 O1          0.0078   -0.0214   -0.0108 O.3       1 <0>        -0.3186
      3 C2          0.6304   -0.6321    1.0315 C.ar      1 <0>         0.1265
      4 C3          1.2036    0.1281    2.0406 C.ar      1 <0>        -0.2063
      5 C4          1.8355   -0.4951    3.0992 C.ar      1 <0>        -0.0579
      6 C5          1.8975   -1.8753    3.1533 C.ar      1 <0>        -0.1101
      7 C6          1.3275   -2.6352    2.1487 C.ar      1 <0>        -0.0670
      8 C7          0.6890   -2.0169    1.0911 C.ar      1 <0>        -0.1523
      9 C8          2.5879   -2.5525    4.3091 C.3       1 <0>         0.0982
     10 H1          2.9715   -1.7961    4.9938 H         1 <0>         0.0986
     11 C9          3.7304   -3.3799    3.7907 C.2       1 <0>        -0.2601
     12 C10         3.6086   -4.7250    3.6754 C.2       1 <0>         0.4259
     13 O2          2.4696   -5.3503    4.0166 O.3       1 <0>        -0.2414
     14 C11         1.5925   -4.7602    4.8513 C.2       1 <0>         0.1680
     15 C12         1.5992   -3.4304    5.0370 C.2       1 <0>        -0.2588
     16 C13         0.6868   -2.8152    5.9157 C.2       1 <0>         0.4040
     17 O3          0.7094   -1.6081    6.0499 O.2       1 <0>        -0.4442
     18 C14        -0.3158   -3.6259    6.6909 C.3       1 <0>        -0.1616
     19 C15         0.2540   -5.0296    6.9221 C.3       1 <0>        -0.0408
     20 H2          1.1539   -4.9635    7.5335 H         1 <0>         0.0984
     21 C16         0.5940   -5.6372    5.5688 C.3       1 <0>        -0.0721
     22 C17        -0.7719   -5.8837    7.6216 C.ar      1 <0>        -0.0703
     23 C18        -2.0170   -6.0298    7.0911 C.ar      1 <0>        -0.1053
     24 C19        -2.9785   -6.8153    7.7235 C.ar      1 <0>        -0.1146
     25 C20        -2.7008   -7.4590    8.8904 C.ar      1 <0>        -0.1009
     26 C21        -1.4264   -7.3319    9.4682 C.ar      1 <0>        -0.0508
     27 C22        -0.4463   -6.5379    8.8216 C.ar      1 <0>        -0.0400
     28 C23         0.8303   -6.4156    9.3967 C.ar      1 <0>        -0.1140
     29 C24         1.1096   -7.0640   10.5601 C.ar      1 <0>        -0.1108
     30 C25         0.1479   -7.8500   11.1925 C.ar      1 <0>        -0.1158
     31 C26        -1.1029   -7.9809   10.6721 C.ar      1 <0>        -0.1043
     32 N1          4.6666   -5.4604    3.2016 N.pl3     1 <0>        -0.8290
     33 C27         4.9565   -2.7425    3.4154 C.1       1 <0>         0.2719
     34 N2          5.9293   -2.2368    3.1177 N.1       1 <0>        -0.4390
     35 H3          1.0080    1.7864   -0.0130 H         1 <0>         0.0554
     36 H4         -0.5399    1.7655   -0.8914 H         1 <0>         0.1003
     37 H5         -0.5266    1.7603    0.8885 H         1 <0>         0.0561
     38 H6          1.1560    1.2062    1.9984 H         1 <0>         0.1278
     39 H7          2.2818    0.0963    3.8850 H         1 <0>         0.1252
     40 H8          1.3775   -3.7131    2.1930 H         1 <0>         0.1200
     41 H9          0.2401   -2.6110    0.3088 H         1 <0>         0.1293
     42 H10        -0.5083   -3.1473    7.6511 H         1 <0>         0.1055
     43 H11        -1.2441   -3.6975    6.1241 H         1 <0>         0.1088
     44 H12        -0.3126   -5.7202    4.9694 H         1 <0>         0.1118
     45 H13         1.0223   -6.6286    5.7168 H         1 <0>         0.1046
     46 H14        -2.2634   -5.5291    6.1665 H         1 <0>         0.1258
     47 H15        -3.9589   -6.9146    7.2815 H         1 <0>         0.1259
     48 H16        -3.4563   -8.0639    9.3697 H         1 <0>         0.1280
     49 H17         1.5858   -5.8106    8.9176 H         1 <0>         0.1286
     50 H18         2.0914   -6.9683   10.9998 H         1 <0>         0.1239
     51 H19         0.3956   -8.3543   12.1148 H         1 <0>         0.1240
     52 H20        -1.8381   -8.5927   11.1736 H         1 <0>         0.1280
     53 H21         5.4926   -5.0170    2.9526 H         1 <0>         0.4268
     54 H22         4.5881   -6.4234    3.1159 H         1 <0>         0.4120
@<TRIPOS>BOND
     1    1    2 1
     2    1   35 1
     3    1   36 1
     4    1   37 1
     5    2    3 1
     6    3    8 ar
     7    3    4 ar
     8    4    5 ar
     9    4   38 1
    10    5    6 ar
    11    5   39 1
    12    6    7 ar
    13    6    9 1
    14    7    8 ar
    15    7   40 1
    16    8   41 1
    17    9   10 1
    18    9   15 1
    19    9   11 1
    20   11   12 2
    21   11   33 1
    22   12   13 1
    23   12   32 1
    24   13   14 1
    25   14   21 1
    26   14   15 2
    27   15   16 1
    28   16   17 2
    29   16   18 1
    30   18   19 1
    31   18   42 1
    32   18   43 1
    33   19   20 1
    34   19   21 1
    35   19   22 1
    36   21   44 1
    37   21   45 1
    38   22   27 ar
    39   22   23 ar
    40   23   24 ar
    41   23   46 1
    42   24   25 ar
    43   24   47 1
    44   25   26 ar
    45   25   48 1
    46   26   31 ar
    47   26   27 ar
    48   27   28 ar
    49   28   29 ar
    50   28   49 1
    51   29   30 ar
    52   29   50 1
    53   30   31 ar
    54   30   51 1
    55   31   52 1
    56   32   53 1
    57   32   54 1
    58   33   34 3
@<TRIPOS>MOLECULE
ZINC40914200
   54    58     0     0     0
SMALL
USER_CHARGES

@<TRIPOS>ATOM
      1 C1         -0.0061    1.4371    0.0161 C.3       1 <0>         0.0268
      2 O1          0.0116    0.0083    0.0044 O.3       1 <0>        -0.3186
      3 C2          0.6327   -0.6096    1.0433 C.ar      1 <0>         0.1266
      4 C3          1.2080    0.1437    2.0563 C.ar      1 <0>        -0.2064
      5 C4          1.8383   -0.4868    3.1116 C.ar      1 <0>        -0.0581
      6 C5          1.8964   -1.8674    3.1585 C.ar      1 <0>        -0.1103
      7 C6          1.3242   -2.6205    2.1499 C.ar      1 <0>        -0.0670
      8 C7          0.6874   -1.9949    1.0957 C.ar      1 <0>        -0.1522
      9 C8          2.5851   -2.5526    4.3106 C.3       1 <0>         0.0979
     10 H1          2.9708   -1.8008    4.9992 H         1 <0>         0.0989
     11 C9          1.5982   -3.4274    5.0311 C.2       1 <0>        -0.2594
     12 C10         1.5981   -4.7690    4.8371 C.2       1 <0>         0.4251
     13 O2          2.4743   -5.3484    3.9993 O.3       1 <0>        -0.2409
     14 C11         3.6158   -4.7160    3.6657 C.2       1 <0>         0.1676
     15 C12         3.7302   -3.3838    3.7855 C.2       1 <0>        -0.2587
     16 C13         4.9193   -2.7218    3.4236 C.2       1 <0>         0.4040
     17 O3          4.9955   -1.5168    3.5571 O.2       1 <0>        -0.4445
     18 C14         6.0973   -3.4800    2.8750 C.3       1 <0>        -0.1617
     19 C15         5.5895   -4.7392    2.1643 C.3       1 <0>        -0.0414
     20 H2          4.9683   -4.4550    1.3149 H         1 <0>         0.1001
     21 C16         4.7675   -5.5492    3.1557 C.3       1 <0>        -0.0719
     22 C17         6.7608   -5.5568    1.6841 C.ar      1 <0>        -0.0693
     23 C18         7.7298   -5.9433    2.5586 C.ar      1 <0>        -0.1067
     24 C19         8.8200   -6.6995    2.1331 C.ar      1 <0>        -0.1150
     25 C20         8.9480   -7.0733    0.8304 C.ar      1 <0>        -0.1011
     26 C21         7.9676   -6.6931   -0.1014 C.ar      1 <0>        -0.0507
     27 C22         6.8554   -5.9291    0.3326 C.ar      1 <0>        -0.0401
     28 C23         5.8718   -5.5538   -0.5985 C.ar      1 <0>        -0.1131
     29 C24         5.9968   -5.9327   -1.8996 C.ar      1 <0>        -0.1107
     30 C25         7.0872   -6.6894   -2.3252 C.ar      1 <0>        -0.1152
     31 C26         8.0657   -7.0598   -1.4547 C.ar      1 <0>        -0.1051
     32 N1          0.6879   -5.5482    5.5071 N.pl3     1 <0>        -0.8291
     33 C27         0.6509   -2.8394    5.9297 C.1       1 <0>         0.2718
     34 N2         -0.1005   -2.3729    6.6426 N.1       1 <0>        -0.4389
     35 H3          1.0169    1.8132    0.0114 H         1 <0>         0.0561
     36 H4         -0.5312    1.8012   -0.8669 H         1 <0>         0.1003
     37 H5         -0.5177    1.7867    0.9129 H         1 <0>         0.0554
     38 H6          1.1635    1.2222    2.0197 H         1 <0>         0.1278
     39 H7          2.2863    0.0992    3.9004 H         1 <0>         0.1251
     40 H8          1.3712   -3.6987    2.1887 H         1 <0>         0.1201
     41 H9          0.2367   -2.5836    0.3104 H         1 <0>         0.1293
     42 H10         6.6368   -2.8528    2.1653 H         1 <0>         0.1055
     43 H11         6.7609   -3.7642    3.6916 H         1 <0>         0.1082
     44 H12         5.3970   -5.8495    3.9934 H         1 <0>         0.1112
     45 H13         4.3798   -6.4377    2.6573 H         1 <0>         0.1057
     46 H14         7.6525   -5.6593    3.5977 H         1 <0>         0.1250
     47 H15         9.5749   -6.9931    2.8474 H         1 <0>         0.1255
     48 H16         9.7988   -7.6589    0.5148 H         1 <0>         0.1278
     49 H17         5.0210   -4.9681   -0.2831 H         1 <0>         0.1295
     50 H18         5.2396   -5.6429   -2.6131 H         1 <0>         0.1243
     51 H19         7.1622   -6.9772   -3.3634 H         1 <0>         0.1239
     52 H20         8.9053   -7.6455   -1.7989 H         1 <0>         0.1277
     53 H21         0.0516   -5.1379    6.1135 H         1 <0>         0.4267
     54 H22         0.6809   -6.5090    5.3740 H         1 <0>         0.4121
@<TRIPOS>BOND
     1    1    2 1
     2    1   35 1
     3    1   36 1
     4    1   37 1
     5    2    3 1
     6    3    8 ar
     7    3    4 ar
     8    4    5 ar
     9    4   38 1
    10    5    6 ar
    11    5   39 1
    12    6    7 ar
    13    6    9 1
    14    7    8 ar
    15    7   40 1
    16    8   41 1
    17    9   10 1
    18    9   15 1
    19    9   11 1
    20   11   12 2
    21   11   33 1
    22   12   13 1
    23   12   32 1
    24   13   14 1
    25   14   21 1
    26   14   15 2
    27   15   16 1
    28   16   17 2
    29   16   18 1
    30   18   19 1
    31   18   42 1
    32   18   43 1
    33   19   20 1
    34   19   21 1
    35   19   22 1
    36   21   44 1
    37   21   45 1
    38   22   27 ar
    39   22   23 ar
    40   23   24 ar
    41   23   46 1
    42   24   25 ar
    43   24   47 1
    44   25   26 ar
    45   25   48 1
    46   26   31 ar
    47   26   27 ar
    48   27   28 ar
    49   28   29 ar
    50   28   49 1
    51   29   30 ar
    52   29   50 1
    53   30   31 ar
    54   30   51 1
    55   31   52 1
    56   32   53 1
    57   32   54 1
    58   33   34 3
@<TRIPOS>MOLECULE
ZINC00443774
   41    44     0     0     0
SMALL
USER_CHARGES
2-amino-7-(2-furyl)-5-oxo-4-phenyl-4,6,7,8-tetrahydrochromene-3-carbonitrile
@<TRIPOS>ATOM
      1 C1          0.9081   -8.2116    0.8711 C.ar      1 <0>        -0.1205
      2 C2          2.0265   -8.1174    1.6781 C.ar      1 <0>        -0.1187
      3 C3          3.0354   -7.2276    1.3600 C.ar      1 <0>        -0.0995
      4 C4          2.9262   -6.4323    0.2346 C.ar      1 <0>        -0.0737
      5 C5          1.8054   -6.5228   -0.5695 C.ar      1 <0>        -0.1075
      6 C6          0.7984   -7.4156   -0.2537 C.ar      1 <0>        -0.1212
      7 C7          4.0261   -5.4623   -0.1123 C.3       1 <0>         0.0920
      8 H1          4.8192   -5.5339    0.6321 H         1 <0>         0.1006
      9 C8          4.5817   -5.8024   -1.4670 C.2       1 <0>        -0.2579
     10 C9          4.2237   -5.0797   -2.5561 C.2       1 <0>         0.4243
     11 O1          3.3677   -4.0504   -2.4612 O.3       1 <0>        -0.2367
     12 C10         3.1853   -3.4385   -1.2760 C.2       1 <0>         0.1677
     13 C11         3.4721   -4.0580   -0.1164 C.2       1 <0>        -0.2580
     14 C12         3.2626   -3.4241    1.1234 C.2       1 <0>         0.4046
     15 O2          3.5504   -4.0091    2.1483 O.2       1 <0>        -0.4405
     16 C13         2.6890   -2.0354    1.2019 C.3       1 <0>        -0.1554
     17 C14         1.8032   -1.7947   -0.0252 C.3       1 <0>         0.0080
     18 H2          0.9606   -2.4861   -0.0139 H         1 <0>         0.1177
     19 C15         2.6431   -2.0284   -1.2824 C.3       1 <0>        -0.0775
     20 C16         1.2946   -0.3762   -0.0123 C.2       1 <0>        -0.0185
     21 C17         0.0021   -0.0041    0.0020 C.2       1 <0>        -0.1913
     22 C18        -0.0171    1.4096    0.0098 C.2       1 <0>        -0.2144
     23 C19         1.2649    1.8168   -0.0003 C.2       1 <0>        -0.0317
     24 O3          2.0550    0.7308   -0.0136 O.3       1 <0>        -0.1730
     25 N1          4.7479   -5.4070   -3.7819 N.pl3     1 <0>        -0.8292
     26 C20         5.4952   -6.8962   -1.6075 C.1       1 <0>         0.2714
     27 N2          6.2199   -7.7639   -1.7189 N.1       1 <0>        -0.4368
     28 H3          0.1202   -8.9073    1.1193 H         1 <0>         0.1205
     29 H4          2.1122   -8.7393    2.5570 H         1 <0>         0.1219
     30 H5          3.9092   -7.1540    1.9904 H         1 <0>         0.1221
     31 H6          1.7180   -5.8983   -1.4463 H         1 <0>         0.1129
     32 H7         -0.0752   -7.4895   -0.8844 H         1 <0>         0.1204
     33 H8          3.4333   -1.3678    1.2195 H         1 <0>         0.1001
     34 H9          2.0914   -1.9381    2.1083 H         1 <0>         0.1085
     35 H10         2.0219   -1.8825   -2.1661 H         1 <0>         0.1093
     36 H11         3.4722   -1.3209   -1.3016 H         1 <0>         0.1146
     37 H12        -0.8563   -0.6594    0.0072 H         1 <0>         0.1508
     38 H13        -0.8930    2.0414    0.0175 H         1 <0>         0.1505
     39 H14         1.6017    2.8429    0.0017 H         1 <0>         0.2051
     40 H15         4.4988   -4.8963   -4.5680 H         1 <0>         0.4122
     41 H16         5.3675   -6.1490   -3.8619 H         1 <0>         0.4268
@<TRIPOS>BOND
     1    1    6 ar
     2    1    2 ar
     3    1   28 1
     4    2    3 ar
     5    2   29 1
     6    3    4 ar
     7    3   30 1
     8    4    5 ar
     9    4    7 1
    10    5    6 ar
    11    5   31 1
    12    6   32 1
    13    7    8 1
    14    7   13 1
    15    7    9 1
    16    9   10 2
    17    9   26 1
    18   10   11 1
    19   10   25 1
    20   11   12 1
    21   12   19 1
    22   12   13 2
    23   13   14 1
    24   14   15 2
    25   14   16 1
    26   16   17 1
    27   16   33 1
    28   16   34 1
    29   17   18 1
    30   17   19 1
    31   17   20 1
    32   19   35 1
    33   19   36 1
    34   20   24 1
    35   20   21 2
    36   21   22 1
    37   21   37 1
    38   22   23 2
    39   22   38 1
    40   23   24 1
    41   23   39 1
    42   25   40 1
    43   25   41 1
    44   26   27 3
@<TRIPOS>MOLECULE
ZINC00443775
   41    44     0     0     0
SMALL
USER_CHARGES
2-amino-7-(2-furyl)-5-oxo-4-phenyl-4,6,7,8-tetrahydrochromene-3-carbonitrile
@<TRIPOS>ATOM
      1 C1         -2.7276   -8.0690    0.7579 C.ar      1 <0>        -0.1205
      2 C2         -3.6147   -7.4610    1.6263 C.ar      1 <0>        -0.1188
      3 C3         -4.0518   -6.1733    1.3784 C.ar      1 <0>        -0.0994
      4 C4         -3.6010   -5.4931    0.2625 C.ar      1 <0>        -0.0737
      5 C5         -2.7176   -6.1029   -0.6085 C.ar      1 <0>        -0.1074
      6 C6         -2.2771   -7.3891   -0.3582 C.ar      1 <0>        -0.1213
      7 C7         -4.0775   -4.0892   -0.0077 C.3       1 <0>         0.0924
      8 H1         -4.7623   -3.7833    0.7832 H         1 <0>         0.1005
      9 C8         -4.7934   -4.0508   -1.3290 C.2       1 <0>        -0.2588
     10 C9         -4.1721   -3.5653   -2.4312 C.2       1 <0>         0.4252
     11 O1         -2.9099   -3.1123   -2.3800 O.3       1 <0>        -0.2374
     12 C10        -2.3829   -2.7265   -1.2029 C.2       1 <0>         0.1682
     13 C11        -2.8924   -3.1544   -0.0333 C.2       1 <0>        -0.2578
     14 C12        -2.3434   -2.7463    1.1976 C.2       1 <0>         0.4046
     15 O2         -2.8187   -3.1697    2.2322 O.2       1 <0>        -0.4400
     16 C13        -1.1792   -1.7950    1.2545 C.3       1 <0>        -0.1553
     17 C14        -1.2082   -0.9019    0.0095 C.3       1 <0>         0.0080
     18 H2         -2.1140   -0.2956    0.0147 H         1 <0>         0.1167
     19 C15        -1.1913   -1.7980   -1.2303 C.3       1 <0>        -0.0774
     20 C16         0.0021   -0.0041    0.0020 C.2       1 <0>        -0.0187
     21 C17        -0.0162    1.3409    0.0094 C.2       1 <0>        -0.1916
     22 C18         1.3313    1.7689   -0.0012 C.2       1 <0>        -0.2147
     23 C19         2.0923    0.6599   -0.0144 C.2       1 <0>        -0.0310
     24 O3          1.2819   -0.4111   -0.0124 O.3       1 <0>        -0.1723
     25 N1         -4.8484   -3.5359   -3.6254 N.pl3     1 <0>        -0.8290
     26 C20        -6.1394   -4.5303   -1.4236 C.1       1 <0>         0.2715
     27 N2         -7.2071   -4.9107   -1.4987 N.1       1 <0>        -0.4369
     28 H3         -2.3861   -9.0752    0.9515 H         1 <0>         0.1206
     29 H4         -3.9666   -7.9923    2.4983 H         1 <0>         0.1220
     30 H5         -4.7452   -5.6984    2.0567 H         1 <0>         0.1221
     31 H6         -2.3688   -5.5731   -1.4826 H         1 <0>         0.1125
     32 H7         -1.5837   -7.8640   -1.0365 H         1 <0>         0.1204
     33 H8         -0.3251   -2.3146    1.2800 H         1 <0>         0.1003
     34 H9         -1.2559   -1.1771    2.1491 H         1 <0>         0.1085
     35 H10        -1.2348   -1.1785   -2.1262 H         1 <0>         0.1082
     36 H11        -0.2735   -2.3857   -1.2406 H         1 <0>         0.1151
     37 H12        -0.8921    1.9727    0.0172 H         1 <0>         0.1506
     38 H13         1.6822    2.7903    0.0010 H         1 <0>         0.1506
     39 H14         3.1720    0.6348   -0.0254 H         1 <0>         0.2052
     40 H15        -4.4136   -3.1903   -4.4206 H         1 <0>         0.4122
     41 H16        -5.7611   -3.8608   -3.6740 H         1 <0>         0.4269
@<TRIPOS>BOND
     1    1    6 ar
     2    1    2 ar
     3    1   28 1
     4    2    3 ar
     5    2   29 1
     6    3    4 ar
     7    3   30 1
     8    4    5 ar
     9    4    7 1
    10    5    6 ar
    11    5   31 1
    12    6   32 1
    13    7    8 1
    14    7   13 1
    15    7    9 1
    16    9   10 2
    17    9   26 1
    18   10   11 1
    19   10   25 1
    20   11   12 1
    21   12   19 1
    22   12   13 2
    23   13   14 1
    24   14   15 2
    25   14   16 1
    26   16   17 1
    27   16   33 1
    28   16   34 1
    29   17   18 1
    30   17   19 1
    31   17   20 1
    32   19   35 1
    33   19   36 1
    34   20   24 1
    35   20   21 2
    36   21   22 1
    37   21   37 1
    38   22   23 2
    39   22   38 1
    40   23   24 1
    41   23   39 1
    42   25   40 1
    43   25   41 1
    44   26   27 3
@<TRIPOS>MOLECULE
ZINC00443776
   41    44     0     0     0
SMALL
USER_CHARGES
2-amino-7-(2-furyl)-5-oxo-4-phenyl-4,6,7,8-tetrahydrochromene-3-carbonitrile
@<TRIPOS>ATOM
      1 C1          8.7749    5.8246    0.6316 C.ar      1 <0>        -0.1205
      2 C2          8.1852    6.7010    1.5232 C.ar      1 <0>        -0.1189
      3 C3          6.8956    7.1475    1.3031 C.ar      1 <0>        -0.0993
      4 C4          6.1958    6.7178    0.1910 C.ar      1 <0>        -0.0737
      5 C5          6.7836    5.8373   -0.6978 C.ar      1 <0>        -0.1073
      6 C6          8.0746    5.3938   -0.4797 C.ar      1 <0>        -0.1214
      7 C7          4.7899    7.2046   -0.0490 C.3       1 <0>         0.0922
      8 H1          4.5035    7.8862    0.7520 H         1 <0>         0.1004
      9 C8          4.7309    7.9288   -1.3649 C.2       1 <0>        -0.2588
     10 C9          4.2211    7.3172   -2.4616 C.2       1 <0>         0.4251
     11 O1          3.7625    6.0570   -2.4095 O.3       1 <0>        -0.2375
     12 C10         3.3940    5.5260   -1.2286 C.2       1 <0>         0.1680
     13 C11         3.8471    6.0253   -0.0640 C.2       1 <0>        -0.2575
     14 C12         3.4574    5.4720    1.1709 C.2       1 <0>         0.4043
     15 O2          3.9054    5.9360    2.2002 O.2       1 <0>        -0.4401
     16 C13         2.4964    4.3163    1.2383 C.3       1 <0>        -0.1546
     17 C14         1.5808    4.3613    0.0102 C.3       1 <0>         0.0080
     18 H2          0.9834    5.2729    0.0280 H         1 <0>         0.1162
     19 C15         2.4539    4.3434   -1.2460 C.3       1 <0>        -0.0769
     20 C16         0.6714    3.1597    0.0121 C.2       1 <0>        -0.0185
     21 C17        -0.6733    3.1908    0.0248 C.2       1 <0>        -0.1917
     22 C18        -1.1143    1.8476    0.0167 C.2       1 <0>        -0.2147
     23 C19        -0.0126    1.0758    0.0080 C.2       1 <0>        -0.0310
     24 O3          1.0661    1.8760    0.0020 O.3       1 <0>        -0.1723
     25 N1          4.1733    8.0009   -3.6510 N.pl3     1 <0>        -0.8291
     26 C20         5.2165    9.2726   -1.4604 C.1       1 <0>         0.2715
     27 N2          5.6017   10.3386   -1.5361 N.1       1 <0>        -0.4370
     28 H3          9.7825    5.4760    0.8034 H         1 <0>         0.1206
     29 H4          8.7322    7.0373    2.3916 H         1 <0>         0.1219
     30 H5          6.4349    7.8323    1.9997 H         1 <0>         0.1221
     31 H6          6.2352    5.4982   -1.5643 H         1 <0>         0.1126
     32 H7          8.5351    4.7088   -1.1761 H         1 <0>         0.1204
     33 H8          1.9494    4.3859    2.0725 H         1 <0>         0.0967
     34 H9          3.0526    3.3790    1.2450 H         1 <0>         0.1121
     35 H10         3.0327    3.4201   -1.2722 H         1 <0>         0.1153
     36 H11         1.8187    4.3986   -2.1300 H         1 <0>         0.1079
     37 H12        -1.2966    4.0728    0.0354 H         1 <0>         0.1505
     38 H13        -2.1390    1.5065    0.0195 H         1 <0>         0.1506
     39 H14         0.0021   -0.0041    0.0020 H         1 <0>         0.2054
     40 H15         3.8108    7.5727   -4.4423 H         1 <0>         0.4122
     41 H16         4.5020    8.9122   -3.7001 H         1 <0>         0.4269
@<TRIPOS>BOND
     1    1    6 ar
     2    1    2 ar
     3    1   28 1
     4    2    3 ar
     5    2   29 1
     6    3    4 ar
     7    3   30 1
     8    4    5 ar
     9    4    7 1
    10    5    6 ar
    11    5   31 1
    12    6   32 1
    13    7    8 1
    14    7   13 1
    15    7    9 1
    16    9   10 2
    17    9   26 1
    18   10   11 1
    19   10   25 1
    20   11   12 1
    21   12   19 1
    22   12   13 2
    23   13   14 1
    24   14   15 2
    25   14   16 1
    26   16   17 1
    27   16   33 1
    28   16   34 1
    29   17   18 1
    30   17   19 1
    31   17   20 1
    32   19   35 1
    33   19   36 1
    34   20   24 1
    35   20   21 2
    36   21   22 1
    37   21   37 1
    38   22   23 2
    39   22   38 1
    40   23   24 1
    41   23   39 1
    42   25   40 1
    43   25   41 1
    44   26   27 3
@<TRIPOS>MOLECULE
ZINC00443777
   41    44     0     0     0
SMALL
USER_CHARGES
2-amino-7-(2-furyl)-5-oxo-4-phenyl-4,6,7,8-tetrahydrochromene-3-carbonitrile
@<TRIPOS>ATOM
      1 C1         -2.0810    4.8911    3.9876 C.ar      1 <0>        -0.1205
      2 C2         -2.9500    5.1938    2.9560 C.ar      1 <0>        -0.1187
      3 C3         -2.6830    4.7493    1.6746 C.ar      1 <0>        -0.0997
      4 C4         -1.5467    4.0029    1.4246 C.ar      1 <0>        -0.0736
      5 C5         -0.6802    3.6962    2.4571 C.ar      1 <0>        -0.1077
      6 C6         -0.9449    4.1443    3.7377 C.ar      1 <0>        -0.1212
      7 C7         -1.2557    3.5183    0.0276 C.3       1 <0>         0.0920
      8 H1         -2.0450    3.8562   -0.6439 H         1 <0>         0.1007
      9 C8         -1.2071    2.0159    0.0188 C.2       1 <0>        -0.2583
     10 C9         -0.0165    1.3685    0.0096 C.2       1 <0>         0.4245
     11 O1          1.1447    2.0416    0.0021 O.3       1 <0>        -0.2369
     12 C10         1.1758    3.3177   -0.4254 C.2       1 <0>         0.1677
     13 C11         0.0676    4.0811   -0.4320 C.2       1 <0>        -0.2577
     14 C12         0.1036    5.4201   -0.8663 C.2       1 <0>         0.4046
     15 O2         -0.9210    6.0726   -0.8728 O.2       1 <0>        -0.4406
     16 C13         1.3879    6.0575   -1.3223 C.3       1 <0>        -0.1549
     17 C14         2.5606    5.3732   -0.6118 C.3       1 <0>         0.0079
     18 H2          2.4856    5.5399    0.4627 H         1 <0>         0.1170
     19 C15         2.4964    3.8731   -0.9050 C.3       1 <0>        -0.0768
     20 C16         3.8634    5.9335   -1.1214 C.2       1 <0>        -0.0183
     21 C17         4.8037    6.5412   -0.3758 C.2       1 <0>        -0.1913
     22 C18         5.8503    6.9058   -1.2536 C.2       1 <0>        -0.2143
     23 C19         5.4869    6.4991   -2.4833 C.2       1 <0>        -0.0317
     24 O3          4.2852    5.9057   -2.3962 O.3       1 <0>        -0.1730
     25 N1          0.0021   -0.0041    0.0020 N.pl3     1 <0>        -0.8292
     26 C20        -2.4260    1.2643    0.0253 C.1       1 <0>         0.2713
     27 N2         -3.3929    0.6681    0.0304 N.1       1 <0>        -0.4369
     28 H3         -2.2896    5.2384    4.9888 H         1 <0>         0.1206
     29 H4         -3.8376    5.7772    3.1513 H         1 <0>         0.1219
     30 H5         -3.3621    4.9854    0.8687 H         1 <0>         0.1220
     31 H6          0.2053    3.1093    2.2626 H         1 <0>         0.1129
     32 H7         -0.2658    3.9082    4.5436 H         1 <0>         0.1204
     33 H8          1.3757    7.0313   -1.0953 H         1 <0>         0.0965
     34 H9          1.4942    5.9380   -2.4005 H         1 <0>         0.1117
     35 H10         3.3119    3.3672   -0.3882 H         1 <0>         0.1089
     36 H11         2.5906    3.7088   -1.9785 H         1 <0>         0.1150
     37 H12         4.7666    6.7163    0.6893 H         1 <0>         0.1507
     38 H13         6.7656    7.4136   -0.9880 H         1 <0>         0.1505
     39 H14         6.0658    6.6239   -3.3865 H         1 <0>         0.2052
     40 H15         0.8486   -0.4776   -0.0086 H         1 <0>         0.4122
     41 H16        -0.8313   -0.5005    0.0073 H         1 <0>         0.4269
@<TRIPOS>BOND
     1    1    6 ar
     2    1    2 ar
     3    1   28 1
     4    2    3 ar
     5    2   29 1
     6    3    4 ar
     7    3   30 1
     8    4    5 ar
     9    4    7 1
    10    5    6 ar
    11    5   31 1
    12    6   32 1
    13    7    8 1
    14    7   13 1
    15    7    9 1
    16    9   10 2
    17    9   26 1
    18   10   11 1
    19   10   25 1
    20   11   12 1
    21   12   19 1
    22   12   13 2
    23   13   14 1
    24   14   15 2
    25   14   16 1
    26   16   17 1
    27   16   33 1
    28   16   34 1
    29   17   18 1
    30   17   19 1
    31   17   20 1
    32   19   35 1
    33   19   36 1
    34   20   24 1
    35   20   21 2
    36   21   22 1
    37   21   37 1
    38   22   23 2
    39   22   38 1
    40   23   24 1
    41   23   39 1
    42   25   40 1
    43   25   41 1
    44   26   27 3
@<TRIPOS>MOLECULE
ZINC02506775
   29    29     0     0     0
SMALL
USER_CHARGES

@<TRIPOS>ATOM
      1 C1         -0.0167    1.3781    0.0096 C.ar      1 <0>        -0.1219
      2 C2          1.1709    2.0855    0.0021 C.ar      1 <0>        -0.1280
      3 C3          2.3773    1.4107   -0.0130 C.ar      1 <0>        -0.0924
      4 C4          2.3960    0.0285   -0.0201 C.ar      1 <0>        -0.0772
      5 C5          1.2084   -0.6789   -0.0117 C.ar      1 <0>        -0.0935
      6 C6          0.0021   -0.0041    0.0020 C.ar      1 <0>        -0.1304
      7 C7          3.7112   -0.7071   -0.0376 C.3       1 <0>         0.1118
      8 O1          4.1410   -0.9464    1.3041 O.3       1 <0>        -0.3553
      9 C8          5.3853   -1.6423    1.4004 C.3       1 <0>         0.0134
     10 H1          6.0046   -1.4007    0.5366 H         1 <0>         0.0873
     11 C9          6.1085   -1.2193    2.6806 C.3       1 <0>        -0.0259
     12 H2          7.0952   -1.6816    2.7103 H         1 <0>         0.1375
     13 C10         6.2555    0.2803    2.7024 C.2       1 <0>         0.4991
     14 O2          5.3869    0.9707    3.2078 O.co2     1 <0>        -0.6646
     15 O3          7.2430    0.8032    2.2147 O.co2     1 <0>        -0.6576
     16 N1          5.3298   -1.6520    3.8487 N.4       1 <0>        -0.6056
     17 C11         5.1291   -3.1270    1.4354 C.2       1 <0>         0.4633
     18 O4          3.9868   -3.5499    1.3827 O.co2     1 <0>        -0.6635
     19 O5          6.0642   -3.9052    1.5163 O.co2     1 <0>        -0.6843
     20 H3         -0.9591    1.9053    0.0259 H         1 <0>         0.1169
     21 H4          1.1563    3.1654    0.0076 H         1 <0>         0.1194
     22 H5          3.3051    1.9634   -0.0196 H         1 <0>         0.1235
     23 H6          1.2231   -1.7588   -0.0176 H         1 <0>         0.1266
     24 H7         -0.9258   -0.5567    0.0082 H         1 <0>         0.1190
     25 H8          3.5884   -1.6586   -0.5549 H         1 <0>         0.0602
     26 H9          4.4573   -0.1052   -0.5563 H         1 <0>         0.0492
     27 H10         5.2314   -2.6561    3.8341 H         1 <0>         0.4204
     28 H11         5.8067   -1.3730    4.6930 H         1 <0>         0.4177
     29 H12         4.4164   -1.2241    3.8213 H         1 <0>         0.4349
@<TRIPOS>BOND
     1    1    6 ar
     2    1    2 ar
     3    1   20 1
     4    2    3 ar
     5    2   21 1
     6    3    4 ar
     7    3   22 1
     8    4    5 ar
     9    4    7 1
    10    5    6 ar
    11    5   23 1
    12    6   24 1
    13    7    8 1
    14    7   25 1
    15    7   26 1
    16    8    9 1
    17    9   10 1
    18    9   11 1
    19    9   17 1
    20   11   12 1
    21   11   13 1
    22   11   16 1
    23   13   14 2
    24   13   15 1
    25   16   27 1
    26   16   28 1
    27   16   29 1
    28   17   18 2
    29   17   19 1
@<TRIPOS>MOLECULE
ZINC01176208
   43    46     0     0     0
SMALL
USER_CHARGES
2-amino-4-(4-nitrophenyl)-5-oxo-7-(2-thienyl)-4,6,7,8-tetrahydrochromene-3-carbonitrile
@<TRIPOS>ATOM
      1 C1          5.7268    3.9738    6.8075 C.2       1 <0>        -0.1599
      2 C2          4.8482    3.8737    5.7452 C.2       1 <0>        -0.1385
      3 C3          5.0242    2.8822    4.8378 C.2       1 <0>        -0.1538
      4 S1          6.4634    2.0442    5.4810 S.3       1 <0>         0.0422
      5 C4          6.7385    3.0776    6.9106 C.2       1 <0>        -0.1624
      6 C5          4.2118    2.5654    3.6087 C.3       1 <0>         0.0094
      7 H1          3.3878    3.2732    3.5181 H         1 <0>         0.1105
      8 C6          5.1022    2.6514    2.3676 C.3       1 <0>        -0.0785
      9 C7          4.2982    2.2942    1.1394 C.2       1 <0>         0.1792
     10 C8          3.2836    1.4136    1.2154 C.2       1 <0>        -0.2675
     11 C9          2.4902    1.0476   -0.0156 C.3       1 <0>         0.0885
     12 H2          2.3036   -0.0263   -0.0193 H         1 <0>         0.1106
     13 C10         3.2571    1.4245   -1.2523 C.2       1 <0>        -0.2665
     14 C11         4.2754    2.3124   -1.1865 C.2       1 <0>         0.4327
     15 O1          4.6278    2.8846   -0.0247 O.3       1 <0>        -0.2357
     16 N1          4.9623    2.6353   -2.3303 N.pl3     1 <0>        -0.8251
     17 C12         2.9083    0.8397   -2.5120 C.1       1 <0>         0.2659
     18 N2          2.6316    0.3757   -3.5113 N.1       1 <0>        -0.4285
     19 C13         1.1750    1.7832    0.0004 C.ar      1 <0>        -0.0213
     20 C14        -0.0126    1.0758    0.0080 C.ar      1 <0>        -0.0987
     21 C15        -1.2190    1.7506    0.0173 C.ar      1 <0>        -0.0506
     22 C16        -1.2377    3.1328    0.0294 C.ar      1 <0>        -0.0460
     23 C17        -0.0501    3.8402    0.0223 C.ar      1 <0>        -0.0534
     24 C18         1.1563    3.1654    0.0081 C.ar      1 <0>        -0.1076
     25 N3         -2.5294    3.8554    0.0452 N.pl3     1 <0>         0.0279
     26 O2         -2.5459    5.0733    0.0520 O.2       1 <0>        -0.1604
     27 O3         -3.5758    3.2321    0.0515 O.3       1 <0>        -0.1587
     28 C19         2.9286    0.8096    2.4369 C.2       1 <0>         0.4054
     29 O4          2.0171    0.0069    2.4627 O.2       1 <0>        -0.4414
     30 C20         3.6578    1.1402    3.7107 C.3       1 <0>        -0.1550
     31 H3          5.6088    4.7543    7.5446 H         1 <0>         0.1368
     32 H4          4.0335    4.5748    5.6398 H         1 <0>         0.1358
     33 H5          7.5086    3.0050    7.6642 H         1 <0>         0.1877
     34 H6          5.9358    1.9566    2.4703 H         1 <0>         0.1144
     35 H7          5.4864    3.6665    2.2671 H         1 <0>         0.1128
     36 H8          5.6940    3.2711   -2.2934 H         1 <0>         0.4145
     37 H9          4.7160    2.2277   -3.1753 H         1 <0>         0.4284
     38 H10         0.0021   -0.0041    0.0020 H         1 <0>         0.1493
     39 H11        -2.1469    1.1980    0.0188 H         1 <0>         0.1551
     40 H12        -0.0647    4.9201    0.0283 H         1 <0>         0.1536
     41 H13         2.0842    3.7181    0.0025 H         1 <0>         0.1385
     42 H14         4.4125    0.4981    3.8455 H         1 <0>         0.0993
     43 H15         2.9707    1.0751    4.5544 H         1 <0>         0.1107
@<TRIPOS>BOND
     1    1    5 2
     2    1    2 1
     3    1   31 1
     4    2    3 2
     5    2   32 1
     6    3    4 1
     7    3    6 1
     8    4    5 1
     9    5   33 1
    10    6    7 1
    11    6   30 1
    12    6    8 1
    13    8    9 1
    14    8   34 1
    15    8   35 1
    16    9   15 1
    17    9   10 2
    18   10   11 1
    19   10   28 1
    20   11   12 1
    21   11   13 1
    22   11   19 1
    23   13   14 2
    24   13   17 1
    25   14   15 1
    26   14   16 1
    27   16   36 1
    28   16   37 1
    29   17   18 3
    30   19   24 ar
    31   19   20 ar
    32   20   21 ar
    33   20   38 1
    34   21   22 ar
    35   21   39 1
    36   22   23 ar
    37   22   25 1
    38   23   24 ar
    39   23   40 1
    40   24   41 1
    41   25   26 2
    42   25   27 1
    43   28   29 2
    44   28   30 1
    45   30   42 1
    46   30   43 1
@<TRIPOS>MOLECULE
ZINC01176209
   43    46     0     0     0
SMALL
USER_CHARGES
2-amino-4-(4-nitrophenyl)-5-oxo-7-(2-thienyl)-4,6,7,8-tetrahydrochromene-3-carbonitrile
@<TRIPOS>ATOM
      1 C1         -7.4667    3.0218    6.4273 C.2       1 <0>        -0.1604
      2 C2         -6.9716    3.5515    5.2504 C.2       1 <0>        -0.1388
      3 C3         -5.8502    3.0160    4.7091 C.2       1 <0>        -0.1545
      4 S1         -5.4626    1.7178    5.8717 S.3       1 <0>         0.0444
      5 C4         -6.8162    1.9825    7.0052 C.2       1 <0>        -0.1622
      6 C5         -5.1230    3.4101    3.4494 C.3       1 <0>         0.0099
      7 H1         -5.6340    4.2502    2.9790 H         1 <0>         0.1098
      8 C6         -5.0876    2.2240    2.4838 C.3       1 <0>        -0.0783
      9 C7         -4.3275    2.6070    1.2355 C.2       1 <0>         0.1795
     10 C8         -3.3197    3.4969    1.2916 C.2       1 <0>        -0.2671
     11 C9         -2.5528    3.8685    0.0455 C.3       1 <0>         0.0884
     12 H2         -2.3664    4.9424    0.0446 H         1 <0>         0.1102
     13 C10        -3.3454    3.4989   -1.1772 C.2       1 <0>        -0.2676
     14 C11        -4.3623    2.6072   -1.0910 C.2       1 <0>         0.4333
     15 O1         -4.6868    2.0273    0.0749 O.3       1 <0>        -0.2360
     16 N1         -5.0753    2.2902   -2.2204 N.pl3     1 <0>        -0.8247
     17 C12        -3.0245    4.0928   -2.4401 C.1       1 <0>         0.2665
     18 N2         -2.7699    4.5640   -3.4420 N.1       1 <0>        -0.4289
     19 C13        -1.2377    3.1328    0.0299 C.ar      1 <0>        -0.0213
     20 C14        -1.2190    1.7506    0.0173 C.ar      1 <0>        -0.1076
     21 C15        -0.0126    1.0758    0.0080 C.ar      1 <0>        -0.0533
     22 C16         1.1750    1.7832    0.0004 C.ar      1 <0>        -0.0461
     23 C17         1.1563    3.1654    0.0076 C.ar      1 <0>        -0.0507
     24 C18        -0.0501    3.8402    0.0223 C.ar      1 <0>        -0.0985
     25 N3          2.4668    1.0606   -0.0158 N.pl3     1 <0>         0.0279
     26 O2          2.4833   -0.1572   -0.0226 O.2       1 <0>        -0.1602
     27 O3          3.5132    1.6839   -0.0225 O.3       1 <0>        -0.1588
     28 C19        -2.9500    4.1088    2.5048 C.2       1 <0>         0.4053
     29 O4         -2.0238    4.8947    2.5184 O.2       1 <0>        -0.4411
     30 C20        -3.6811    3.8065    3.7845 C.3       1 <0>        -0.1534
     31 H3         -8.3588    3.4297    6.8793 H         1 <0>         0.1367
     32 H4         -7.4710    4.3794    4.7692 H         1 <0>         0.1354
     33 H5         -7.0567    1.4502    7.9136 H         1 <0>         0.1878
     34 H6         -6.1064    1.9434    2.2164 H         1 <0>         0.1113
     35 H7         -4.5938    1.3795    2.9645 H         1 <0>         0.1147
     36 H8         -4.8492    2.7031   -3.0685 H         1 <0>         0.4286
     37 H9         -5.8051    1.6532   -2.1703 H         1 <0>         0.4145
     38 H10        -2.1469    1.1980    0.0188 H         1 <0>         0.1382
     39 H11         0.0021   -0.0041    0.0020 H         1 <0>         0.1537
     40 H12         2.0841    3.7181    0.0014 H         1 <0>         0.1552
     41 H13        -0.0647    4.9201    0.0276 H         1 <0>         0.1493
     42 H14        -3.6858    4.6162    4.3714 H         1 <0>         0.0988
     43 H15        -3.1878    2.9848    4.3037 H         1 <0>         0.1101
@<TRIPOS>BOND
     1    1    5 2
     2    1    2 1
     3    1   31 1
     4    2    3 2
     5    2   32 1
     6    3    4 1
     7    3    6 1
     8    4    5 1
     9    5   33 1
    10    6    7 1
    11    6   30 1
    12    6    8 1
    13    8    9 1
    14    8   34 1
    15    8   35 1
    16    9   15 1
    17    9   10 2
    18   10   11 1
    19   10   28 1
    20   11   12 1
    21   11   13 1
    22   11   19 1
    23   13   14 2
    24   13   17 1
    25   14   15 1
    26   14   16 1
    27   16   36 1
    28   16   37 1
    29   17   18 3
    30   19   24 ar
    31   19   20 ar
    32   20   21 ar
    33   20   38 1
    34   21   22 ar
    35   21   39 1
    36   22   23 ar
    37   22   25 1
    38   23   24 ar
    39   23   40 1
    40   24   41 1
    41   25   26 2
    42   25   27 1
    43   28   29 2
    44   28   30 1
    45   30   42 1
    46   30   43 1
@<TRIPOS>MOLECULE
ZINC01176210
   43    46     0     0     0
SMALL
USER_CHARGES
2-amino-4-(4-nitrophenyl)-5-oxo-7-(2-thienyl)-4,6,7,8-tetrahydrochromene-3-carbonitrile
@<TRIPOS>ATOM
      1 C1          1.1688    1.7934    0.0005 C.2       1 <0>        -0.1605
      2 C2         -0.0126    1.0758    0.0080 C.2       1 <0>        -0.1387
      3 C3         -1.1898    1.7477    0.0171 C.2       1 <0>        -0.1547
      4 S1         -0.6445    3.4477    0.0268 S.3       1 <0>         0.0441
      5 C4          1.1153    3.1478    0.0084 C.2       1 <0>        -0.1623
      6 C5         -2.5943    1.2015    0.0200 C.3       1 <0>         0.0101
      7 H1         -2.5635    0.1119    0.0206 H         1 <0>         0.1103
      8 C6         -3.3371    1.6998    1.2611 C.3       1 <0>        -0.0787
      9 C7         -4.7579    1.1863    1.2437 C.2       1 <0>         0.1794
     10 C8         -5.3980    0.9777    0.0786 C.2       1 <0>        -0.2671
     11 C9         -6.8227    0.4784    0.0635 C.3       1 <0>         0.0885
     12 H2         -6.9364   -0.2666   -0.7240 H         1 <0>         0.1103
     13 C10        -7.1658   -0.1412    1.3894 C.2       1 <0>        -0.2675
     14 C11        -6.4166    0.1282    2.4860 C.2       1 <0>         0.4334
     15 O1         -5.3592    0.9523    2.4253 O.3       1 <0>        -0.2360
     16 N1         -6.7465   -0.4540    3.6846 N.pl3     1 <0>        -0.8247
     17 C12        -8.2911   -1.0207    1.4944 C.1       1 <0>         0.2665
     18 N2         -9.1837   -1.7184    1.5777 N.1       1 <0>        -0.4288
     19 C13        -7.7540    1.6323   -0.2051 C.ar      1 <0>        -0.0214
     20 C14        -7.7897    2.7081    0.6624 C.ar      1 <0>        -0.1078
     21 C15        -8.6402    3.7689    0.4131 C.ar      1 <0>        -0.0533
     22 C16        -9.4632    3.7489   -0.6973 C.ar      1 <0>        -0.0461
     23 C17        -9.4313    2.6708   -1.5620 C.ar      1 <0>        -0.0506
     24 C18        -8.5767    1.6125   -1.3158 C.ar      1 <0>        -0.0986
     25 N3        -10.3783    4.8821   -0.9609 N.pl3     1 <0>         0.0279
     26 O2        -11.1031    4.8646   -1.9396 O.2       1 <0>        -0.1588
     27 O3        -10.4064    5.8320   -0.1991 O.3       1 <0>        -0.1602
     28 C19        -4.7662    1.2167   -1.1570 C.2       1 <0>         0.4055
     29 O4         -5.3828    1.0337   -2.1874 O.2       1 <0>        -0.4410
     30 C20        -3.3413    1.6949   -1.2238 C.3       1 <0>        -0.1548
     31 H3          2.1203    1.2826   -0.0117 H         1 <0>         0.1367
     32 H4          0.0021   -0.0041    0.0020 H         1 <0>         0.1356
     33 H5          1.9267    3.8606    0.0041 H         1 <0>         0.1878
     34 H6         -2.8314    1.3378    2.1562 H         1 <0>         0.1117
     35 H7         -3.3456    2.7897    1.2656 H         1 <0>         0.1143
     36 H8         -7.5090   -1.0511    3.7402 H         1 <0>         0.4286
     37 H9         -6.2173   -0.2683    4.4760 H         1 <0>         0.4145
     38 H10        -7.1502    2.7215    1.5325 H         1 <0>         0.1381
     39 H11        -8.6649    4.6114    1.0884 H         1 <0>         0.1537
     40 H12       -10.0742    2.6551   -2.4296 H         1 <0>         0.1552
     41 H13        -8.5520    0.7700   -1.9911 H         1 <0>         0.1493
     42 H14        -3.3194    2.6943   -1.2512 H         1 <0>         0.0990
     43 H15        -2.8638    1.2960   -2.1187 H         1 <0>         0.1110
@<TRIPOS>BOND
     1    1    5 2
     2    1    2 1
     3    1   31 1
     4    2    3 2
     5    2   32 1
     6    3    4 1
     7    3    6 1
     8    4    5 1
     9    5   33 1
    10    6    7 1
    11    6   30 1
    12    6    8 1
    13    8    9 1
    14    8   34 1
    15    8   35 1
    16    9   15 1
    17    9   10 2
    18   10   11 1
    19   10   28 1
    20   11   12 1
    21   11   13 1
    22   11   19 1
    23   13   14 2
    24   13   17 1
    25   14   15 1
    26   14   16 1
    27   16   36 1
    28   16   37 1
    29   17   18 3
    30   19   24 ar
    31   19   20 ar
    32   20   21 ar
    33   20   38 1
    34   21   22 ar
    35   21   39 1
    36   22   23 ar
    37   22   25 1
    38   23   24 ar
    39   23   40 1
    40   24   41 1
    41   25   26 2
    42   25   27 1
    43   28   29 2
    44   28   30 1
    45   30   42 1
    46   30   43 1
@<TRIPOS>MOLECULE
ZINC01176211
   43    46     0     0     0
SMALL
USER_CHARGES
2-amino-4-(4-nitrophenyl)-5-oxo-7-(2-thienyl)-4,6,7,8-tetrahydrochromene-3-carbonitrile
@<TRIPOS>ATOM
      1 C1          1.3319   -0.2664   -0.0121 C.2       1 <0>        -0.1598
      2 C2          2.2234    0.7899   -0.0149 C.2       1 <0>        -0.1387
      3 C3          1.7416    2.0568   -0.0035 C.2       1 <0>        -0.1539
      4 S1         -0.0221    1.7810    0.0118 S.3       1 <0>         0.0422
      5 C4          0.0021   -0.0041    0.0020 C.2       1 <0>        -0.1623
      6 C5          2.4984    3.3600   -0.0042 C.3       1 <0>         0.0091
      7 H1          3.5701    3.1612   -0.0158 H         1 <0>         0.1101
      8 C6          2.1382    4.1644    1.2464 C.3       1 <0>        -0.0777
      9 C7          2.8638    5.4896    1.2236 C.2       1 <0>         0.1790
     10 C8          3.1523    6.0961    0.0576 C.2       1 <0>        -0.2670
     11 C9          3.8614    7.4287    0.0396 C.3       1 <0>         0.0883
     12 H2          3.4042    8.0713   -0.7128 H         1 <0>         0.1104
     13 C10         3.7581    8.0872    1.3869 C.2       1 <0>        -0.2670
     14 C11         3.4383    7.3583    2.4838 C.2       1 <0>         0.4327
     15 O1          3.2094    6.0383    2.4033 O.3       1 <0>        -0.2354
     16 N1          3.3471    7.9831    3.7027 N.pl3     1 <0>        -0.8248
     17 C12         3.9995    9.4931    1.5123 C.1       1 <0>         0.2663
     18 N2          4.1910   10.6084    1.6118 N.1       1 <0>        -0.4287
     19 C13         5.3136    7.2174   -0.3033 C.ar      1 <0>        -0.0213
     20 C14         6.1083    6.4307    0.5094 C.ar      1 <0>        -0.1077
     21 C15         7.4390    6.2326    0.1920 C.ar      1 <0>        -0.0534
     22 C16         7.9779    6.8305   -0.9319 C.ar      1 <0>        -0.0461
     23 C17         7.1845    7.6215   -1.7417 C.ar      1 <0>        -0.0505
     24 C18         5.8524    7.8149   -1.4274 C.ar      1 <0>        -0.0988
     25 N3          9.4044    6.6233   -1.2684 N.pl3     1 <0>         0.0279
     26 O2          9.8791    7.1498   -2.2589 O.2       1 <0>        -0.1588
     27 O3         10.1035    5.9264   -0.5549 O.3       1 <0>        -0.1603
     28 C19         2.8041    5.5135   -1.1762 C.2       1 <0>         0.4052
     29 O4          3.0661    6.0998   -2.2073 O.2       1 <0>        -0.4414
     30 C20         2.1131    4.1787   -1.2409 C.3       1 <0>        -0.1535
     31 H3          1.6894   -1.2854   -0.0213 H         1 <0>         0.1368
     32 H4          3.2880    0.6085   -0.0264 H         1 <0>         0.1357
     33 H5         -0.8275   -0.6955    0.0065 H         1 <0>         0.1877
     34 H6          1.0632    4.3430    1.2657 H         1 <0>         0.1144
     35 H7          2.4284    3.6034    2.1347 H         1 <0>         0.1129
     36 H8          3.1192    7.4710    4.4944 H         1 <0>         0.4145
     37 H9          3.5105    8.9367    3.7723 H         1 <0>         0.4285
     38 H10         5.6884    5.9675    1.3900 H         1 <0>         0.1385
     39 H11         8.0588    5.6143    0.8244 H         1 <0>         0.1536
     40 H12         7.6056    8.0886   -2.6197 H         1 <0>         0.1551
     41 H13         5.2326    8.4332   -2.0599 H         1 <0>         0.1492
     42 H14         2.3972    3.6901   -2.0659 H         1 <0>         0.0985
     43 H15         1.0331    4.3253   -1.2597 H         1 <0>         0.1105
@<TRIPOS>BOND
     1    1    5 2
     2    1    2 1
     3    1   31 1
     4    2    3 2
     5    2   32 1
     6    3    4 1
     7    3    6 1
     8    4    5 1
     9    5   33 1
    10    6    7 1
    11    6   30 1
    12    6    8 1
    13    8    9 1
    14    8   34 1
    15    8   35 1
    16    9   15 1
    17    9   10 2
    18   10   11 1
    19   10   28 1
    20   11   12 1
    21   11   13 1
    22   11   19 1
    23   13   14 2
    24   13   17 1
    25   14   15 1
    26   14   16 1
    27   16   36 1
    28   16   37 1
    29   17   18 3
    30   19   24 ar
    31   19   20 ar
    32   20   21 ar
    33   20   38 1
    34   21   22 ar
    35   21   39 1
    36   22   23 ar
    37   22   25 1
    38   23   24 ar
    39   23   40 1
    40   24   41 1
    41   25   26 2
    42   25   27 1
    43   28   29 2
    44   28   30 1
    45   30   42 1
    46   30   43 1
@<TRIPOS>MOLECULE
ZINC00706101
   44    47     0     0     0
SMALL
USER_CHARGES
2-amino-4-(2-fluorophenyl)-5-oxo-7-phenyl-4,6,7,8-tetrahydrochromene-3-carbonitrile
@<TRIPOS>ATOM
      1 C1          2.3917   -3.5967   -7.1571 C.ar      1 <0>        -0.1171
      2 C2          1.1660   -3.0563   -6.8155 C.ar      1 <0>        -0.1166
      3 C3          1.0466   -2.2770   -5.6800 C.ar      1 <0>        -0.1086
      4 C4          2.1526   -2.0388   -4.8856 C.ar      1 <0>        -0.0836
      5 C5          3.3792   -2.5753   -5.2298 C.ar      1 <0>        -0.1138
      6 C6          3.4977   -3.3582   -6.3630 C.ar      1 <0>        -0.1164
      7 C7          2.0223   -1.1893   -3.6478 C.3       1 <0>        -0.0377
      8 H1          0.9895   -0.8588   -3.5373 H         1 <0>         0.0972
      9 C8          2.4408   -2.0012   -2.4206 C.3       1 <0>        -0.0726
     10 C9          2.3495   -1.1376   -1.1844 C.2       1 <0>         0.1680
     11 C10         2.5674    0.1884   -1.2557 C.2       1 <0>        -0.2582
     12 C11         2.4902    1.0472   -0.0166 C.3       1 <0>         0.0910
     13 H2          3.3076    1.7683   -0.0250 H         1 <0>         0.1046
     14 C12         2.5978    0.1900    1.2135 C.2       1 <0>        -0.2590
     15 C13         2.3708   -1.1442    1.1415 C.2       1 <0>         0.4263
     16 O1          2.0426   -1.7354   -0.0179 O.3       1 <0>        -0.2371
     17 N1          2.4785   -1.9066    2.2780 N.pl3     1 <0>        -0.8283
     18 C14         2.9425    0.7866    2.4688 C.1       1 <0>         0.2694
     19 N2          3.2160    1.2598    3.4647 N.1       1 <0>        -0.4343
     20 C15         1.1751    1.7829    0.0004 C.ar      1 <0>        -0.1094
     21 C16        -0.0126    1.0758    0.0080 C.ar      1 <0>        -0.0799
     22 C17        -1.2190    1.7503    0.0173 C.ar      1 <0>        -0.1317
     23 C18        -1.2393    3.1328    0.0307 C.ar      1 <0>        -0.0904
     24 C19        -0.0533    3.8417    0.0232 C.ar      1 <0>        -0.1553
     25 C20         1.1560    3.1671    0.0080 C.ar      1 <0>         0.1176
     26 F1          2.3162    3.8592    0.0002 F         1 <0>        -0.1314
     27 C21         2.8703    0.8156   -2.4796 C.2       1 <0>         0.4004
     28 O2          3.0765    2.0125   -2.5014 O.2       1 <0>        -0.4404
     29 C22         2.9438    0.0300   -3.7606 C.3       1 <0>        -0.1505
     30 H3          2.4850   -4.2056   -8.0442 H         1 <0>         0.1228
     31 H4          0.3019   -3.2426   -7.4359 H         1 <0>         0.1241
     32 H5          0.0891   -1.8545   -5.4133 H         1 <0>         0.1244
     33 H6          4.2442   -2.3856   -4.6116 H         1 <0>         0.1233
     34 H7          4.4552   -3.7807   -6.6297 H         1 <0>         0.1239
     35 H8          1.7798   -2.8611   -2.3120 H         1 <0>         0.1067
     36 H9          3.4670   -2.3462   -2.5466 H         1 <0>         0.1111
     37 H10         2.3179   -2.8624    2.2378 H         1 <0>         0.4125
     38 H11         2.7151   -1.4895    3.1212 H         1 <0>         0.4270
     39 H12         0.0021   -0.0041    0.0020 H         1 <0>         0.1233
     40 H13        -2.1465    1.1970    0.0187 H         1 <0>         0.1289
     41 H14        -2.1825    3.6587    0.0425 H         1 <0>         0.1323
     42 H15        -0.0694    4.9216    0.0288 H         1 <0>         0.1356
     43 H16         2.6483    0.6014   -4.5262 H         1 <0>         0.0942
     44 H17         3.9692   -0.2994   -3.9287 H         1 <0>         0.1075
@<TRIPOS>BOND
     1    1    6 ar
     2    1    2 ar
     3    1   30 1
     4    2    3 ar
     5    2   31 1
     6    3    4 ar
     7    3   32 1
     8    4    5 ar
     9    4    7 1
    10    5    6 ar
    11    5   33 1
    12    6   34 1
    13    7    8 1
    14    7   29 1
    15    7    9 1
    16    9   10 1
    17    9   35 1
    18    9   36 1
    19   10   16 1
    20   10   11 2
    21   11   12 1
    22   11   27 1
    23   12   13 1
    24   12   14 1
    25   12   20 1
    26   14   15 2
    27   14   18 1
    28   15   16 1
    29   15   17 1
    30   17   37 1
    31   17   38 1
    32   18   19 3
    33   20   25 ar
    34   20   21 ar
    35   21   22 ar
    36   21   39 1
    37   22   23 ar
    38   22   40 1
    39   23   24 ar
    40   23   41 1
    41   24   25 ar
    42   24   42 1
    43   25   26 1
    44   27   28 2
    45   27   29 1
    46   29   43 1
    47   29   44 1
@<TRIPOS>MOLECULE
ZINC00706102
   44    47     0     0     0
SMALL
USER_CHARGES
2-amino-4-(2-fluorophenyl)-5-oxo-7-phenyl-4,6,7,8-tetrahydrochromene-3-carbonitrile
@<TRIPOS>ATOM
      1 C1         -7.2963    2.7495   -6.8715 C.ar      1 <0>        -0.1168
      2 C2         -7.7188    1.6755   -6.1107 C.ar      1 <0>        -0.1168
      3 C3         -7.0267    1.3239   -4.9669 C.ar      1 <0>        -0.1088
      4 C4         -5.9115    2.0457   -4.5845 C.ar      1 <0>        -0.0840
      5 C5         -5.4918    3.1227   -5.3427 C.ar      1 <0>        -0.1130
      6 C6         -6.1814    3.4716   -6.4889 C.ar      1 <0>        -0.1163
      7 C7         -5.1569    1.6624   -3.3376 C.3       1 <0>        -0.0381
      8 H1         -5.6372    0.8039   -2.8682 H         1 <0>         0.0963
      9 C8         -5.1364    2.8385   -2.3699 C.3       1 <0>        -0.0729
     10 C9         -4.3463    2.4709   -1.1357 C.2       1 <0>         0.1687
     11 C10        -3.3167    1.6116   -1.2104 C.2       1 <0>        -0.2583
     12 C11        -2.5194    1.2529    0.0203 C.3       1 <0>         0.0917
     13 H2         -2.3045    0.1843    0.0132 H         1 <0>         0.1046
     14 C12        -3.3020    1.5958    1.2570 C.2       1 <0>        -0.2600
     15 C13        -4.3438    2.4601    1.1911 C.2       1 <0>         0.4273
     16 O1         -4.7028    3.0356    0.0332 O.3       1 <0>        -0.2380
     17 N1         -5.0465    2.7535    2.3333 N.pl3     1 <0>        -0.8282
     18 C14        -2.9445    1.0062    2.5121 C.1       1 <0>         0.2696
     19 N2         -2.6609    0.5385    3.5077 N.1       1 <0>        -0.4344
     20 C15        -1.2241    2.0231    0.0188 C.ar      1 <0>        -0.1093
     21 C16        -1.2416    3.4052    0.0323 C.ar      1 <0>        -0.0801
     22 C17        -0.0537    4.1120    0.0247 C.ar      1 <0>        -0.1318
     23 C18         1.1532    3.4376    0.0096 C.ar      1 <0>        -0.0904
     24 C19         1.1732    2.0560    0.0019 C.ar      1 <0>        -0.1553
     25 C20        -0.0162    1.3468    0.0094 C.ar      1 <0>         0.1180
     26 F1          0.0021   -0.0041    0.0020 F         1 <0>        -0.1313
     27 C21        -2.9500    1.0186   -2.4339 C.2       1 <0>         0.4002
     28 O2         -2.0030    0.2586   -2.4682 O.2       1 <0>        -0.4398
     29 C22        -3.7102    1.3091   -3.6993 C.3       1 <0>        -0.1513
     30 H3         -7.8371    3.0242   -7.7651 H         1 <0>         0.1229
     31 H4         -8.5899    1.1113   -6.4096 H         1 <0>         0.1241
     32 H5         -7.3569    0.4850   -4.3722 H         1 <0>         0.1243
     33 H6         -4.6231    3.6893   -5.0416 H         1 <0>         0.1236
     34 H7         -5.8511    4.3105   -7.0835 H         1 <0>         0.1241
     35 H8         -6.1583    3.0890   -2.0851 H         1 <0>         0.1057
     36 H9         -4.6741    3.6989   -2.8536 H         1 <0>         0.1114
     37 H10        -4.7956    2.3436    3.1759 H         1 <0>         0.4271
     38 H11        -5.7939    3.3708    2.2978 H         1 <0>         0.4125
     39 H12        -2.1837    3.9330    0.0438 H         1 <0>         0.1230
     40 H13        -0.0684    5.1919    0.0304 H         1 <0>         0.1289
     41 H14         2.0807    3.9909    0.0033 H         1 <0>         0.1324
     42 H15         2.1160    1.5294   -0.0096 H         1 <0>         0.1357
     43 H16        -3.2891    2.0788   -4.1791 H         1 <0>         0.0975
     44 H17        -3.6971    0.4297   -4.3432 H         1 <0>         0.1055
@<TRIPOS>BOND
     1    1    6 ar
     2    1    2 ar
     3    1   30 1
     4    2    3 ar
     5    2   31 1
     6    3    4 ar
     7    3   32 1
     8    4    5 ar
     9    4    7 1
    10    5    6 ar
    11    5   33 1
    12    6   34 1
    13    7    8 1
    14    7   29 1
    15    7    9 1
    16    9   10 1
    17    9   35 1
    18    9   36 1
    19   10   16 1
    20   10   11 2
    21   11   12 1
    22   11   27 1
    23   12   13 1
    24   12   14 1
    25   12   20 1
    26   14   15 2
    27   14   18 1
    28   15   16 1
    29   15   17 1
    30   17   37 1
    31   17   38 1
    32   18   19 3
    33   20   25 ar
    34   20   21 ar
    35   21   22 ar
    36   21   39 1
    37   22   23 ar
    38   22   40 1
    39   23   24 ar
    40   23   41 1
    41   24   25 ar
    42   24   42 1
    43   25   26 1
    44   27   28 2
    45   27   29 1
    46   29   43 1
    47   29   44 1
@<TRIPOS>MOLECULE
ZINC00706103
   44    47     0     0     0
SMALL
USER_CHARGES
2-amino-4-(2-fluorophenyl)-5-oxo-7-phenyl-4,6,7,8-tetrahydrochromene-3-carbonitrile
@<TRIPOS>ATOM
      1 C1         -6.0425   -2.1875    0.6492 C.ar      1 <0>        -0.1168
      2 C2         -5.4508   -1.8873    1.8619 C.ar      1 <0>        -0.1169
      3 C3         -4.2617   -1.1830    1.8952 C.ar      1 <0>        -0.1088
      4 C4         -3.6640   -0.7798    0.7158 C.ar      1 <0>        -0.0840
      5 C5         -4.2582   -1.0758   -0.4967 C.ar      1 <0>        -0.1128
      6 C6         -5.4452   -1.7834   -0.5302 C.ar      1 <0>        -0.1164
      7 C7         -2.3677   -0.0121    0.7522 C.3       1 <0>        -0.0379
      8 H1         -2.0575    0.1400    1.7860 H         1 <0>         0.0961
      9 C8         -1.2872   -0.7919    0.0006 C.3       1 <0>        -0.0730
     10 C9          0.0021   -0.0041    0.0020 C.2       1 <0>         0.1684
     11 C10        -0.0162    1.3414    0.0094 C.2       1 <0>        -0.2584
     12 C11         1.2728    2.1273    0.0013 C.3       1 <0>         0.0913
     13 H2          1.1854    2.9722    0.6844 H         1 <0>         0.1045
     14 C12         2.4141    1.2508    0.4358 C.2       1 <0>        -0.2597
     15 C13         2.2912   -0.0986    0.4078 C.2       1 <0>         0.4271
     16 O1          1.1607   -0.6893   -0.0094 O.3       1 <0>        -0.2376
     17 N1          3.3454   -0.8777    0.8152 N.pl3     1 <0>        -0.8282
     18 C14         3.6384    1.8449    0.8815 C.1       1 <0>         0.2695
     19 N2          4.6097    2.3163    1.2350 N.1       1 <0>        -0.4343
     20 C15         1.5376    2.6389   -1.3912 C.ar      1 <0>        -0.1091
     21 C16         1.6865    1.7488   -2.4381 C.ar      1 <0>        -0.0802
     22 C17         1.9237    2.2180   -3.7165 C.ar      1 <0>        -0.1317
     23 C18         2.0235    3.5775   -3.9476 C.ar      1 <0>        -0.0904
     24 C19         1.8806    4.4690   -2.9016 C.ar      1 <0>        -0.1553
     25 C20         1.6373    4.0003   -1.6214 C.ar      1 <0>         0.1179
     26 F1          1.4970    4.8711   -0.5980 F         1 <0>        -0.1314
     27 C21        -1.2287    2.0572    0.0307 C.2       1 <0>         0.4006
     28 O2         -1.2046    3.2716    0.0177 O.2       1 <0>        -0.4399
     29 C22        -2.5535    1.3451    0.0653 C.3       1 <0>        -0.1513
     30 H3         -6.9717   -2.7374    0.6231 H         1 <0>         0.1229
     31 H4         -5.9176   -2.2026    2.7833 H         1 <0>         0.1240
     32 H5         -3.7996   -0.9482    2.8427 H         1 <0>         0.1243
     33 H6         -3.7934   -0.7569   -1.4179 H         1 <0>         0.1236
     34 H7         -5.9077   -2.0176   -1.4776 H         1 <0>         0.1241
     35 H8         -1.6091   -0.9590   -1.0273 H         1 <0>         0.1112
     36 H9         -1.1260   -1.7522    0.4904 H         1 <0>         0.1057
     37 H10         3.2684   -1.8445    0.7996 H         1 <0>         0.4125
     38 H11         4.1673   -0.4614    1.1187 H         1 <0>         0.4271
     39 H12         1.6132    0.6864   -2.2580 H         1 <0>         0.1230
     40 H13         2.0358    1.5219   -4.5346 H         1 <0>         0.1289
     41 H14         2.2129    3.9428   -4.9461 H         1 <0>         0.1324
     42 H15         1.9583    5.5309   -3.0824 H         1 <0>         0.1357
     43 H16        -2.8875    1.2040   -0.8666 H         1 <0>         0.0976
     44 H17        -3.2753    1.9412    0.6237 H         1 <0>         0.1056
@<TRIPOS>BOND
     1    1    6 ar
     2    1    2 ar
     3    1   30 1
     4    2    3 ar
     5    2   31 1
     6    3    4 ar
     7    3   32 1
     8    4    5 ar
     9    4    7 1
    10    5    6 ar
    11    5   33 1
    12    6   34 1
    13    7    8 1
    14    7   29 1
    15    7    9 1
    16    9   10 1
    17    9   35 1
    18    9   36 1
    19   10   16 1
    20   10   11 2
    21   11   12 1
    22   11   27 1
    23   12   13 1
    24   12   14 1
    25   12   20 1
    26   14   15 2
    27   14   18 1
    28   15   16 1
    29   15   17 1
    30   17   37 1
    31   17   38 1
    32   18   19 3
    33   20   25 ar
    34   20   21 ar
    35   21   22 ar
    36   21   39 1
    37   22   23 ar
    38   22   40 1
    39   23   24 ar
    40   23   41 1
    41   24   25 ar
    42   24   42 1
    43   25   26 1
    44   27   28 2
    45   27   29 1
    46   29   43 1
    47   29   44 1
@<TRIPOS>MOLECULE
ZINC00706104
   44    47     0     0     0
SMALL
USER_CHARGES
2-amino-4-(2-fluorophenyl)-5-oxo-7-phenyl-4,6,7,8-tetrahydrochromene-3-carbonitrile
@<TRIPOS>ATOM
      1 C1          6.5649    1.5296    7.0606 C.ar      1 <0>        -0.1171
      2 C2          5.4760    0.7398    6.7421 C.ar      1 <0>        -0.1167
      3 C3          4.7193    1.0254    5.6211 C.ar      1 <0>        -0.1085
      4 C4          5.0509    2.1014    4.8191 C.ar      1 <0>        -0.0835
      5 C5          6.1426    2.8884    5.1349 C.ar      1 <0>        -0.1137
      6 C6          6.8968    2.6053    6.2583 C.ar      1 <0>        -0.1164
      7 C7          4.2259    2.4128    3.5970 C.3       1 <0>        -0.0376
      8 H1          3.4210    1.6844    3.4995 H         1 <0>         0.0973
      9 C8          5.1138    2.3676    2.3521 C.3       1 <0>        -0.0734
     10 C9          4.2966    2.7204    1.1314 C.2       1 <0>         0.1679
     11 C10         3.2592    3.5727    1.2226 C.2       1 <0>        -0.2583
     12 C11         2.4530    3.9350   -0.0012 C.3       1 <0>         0.0910
     13 H2          2.2381    5.0035    0.0109 H         1 <0>         0.1046
     14 C12         3.2248    3.5984   -1.2464 C.2       1 <0>        -0.2590
     15 C13         4.2675    2.7343   -1.1943 C.2       1 <0>         0.4262
     16 O1          4.6377    2.1549   -0.0417 O.3       1 <0>        -0.2370
     17 N1          4.9591    2.4453   -2.3444 N.pl3     1 <0>        -0.8283
     18 C14         2.8560    4.1944   -2.4952 C.1       1 <0>         0.2694
     19 N2          2.5635    4.6672   -3.4859 N.1       1 <0>        -0.4342
     20 C15         1.1577    3.1647    0.0075 C.ar      1 <0>        -0.1093
     21 C16         1.1753    1.7826    0.0004 C.ar      1 <0>        -0.0798
     22 C17        -0.0126    1.0758    0.0080 C.ar      1 <0>        -0.1316
     23 C18        -1.2196    1.7503    0.0173 C.ar      1 <0>        -0.0904
     24 C19        -1.2395    3.1318    0.0298 C.ar      1 <0>        -0.1553
     25 C20        -0.0501    3.8410    0.0222 C.ar      1 <0>         0.1176
     26 F1         -0.0684    5.1919    0.0297 F         1 <0>        -0.1314
     27 C21         2.8918    4.1495    2.4536 C.2       1 <0>         0.4006
     28 O2          1.9592    4.9267    2.4932 O.2       1 <0>        -0.4402
     29 C22         3.6340    3.8209    3.7204 C.3       1 <0>        -0.1515
     30 H3          7.1561    1.3064    7.9364 H         1 <0>         0.1228
     31 H4          5.2168   -0.1007    7.3689 H         1 <0>         0.1241
     32 H5          3.8688    0.4081    5.3720 H         1 <0>         0.1246
     33 H6          6.4043    3.7264    4.5059 H         1 <0>         0.1230
     34 H7          7.7473    3.2226    6.5074 H         1 <0>         0.1238
     35 H8          5.9289    3.0830    2.4617 H         1 <0>         0.1107
     36 H9          5.5246    1.3647    2.2358 H         1 <0>         0.1071
     37 H10         5.7068    1.8279   -2.3185 H         1 <0>         0.4125
     38 H11         4.7000    2.8584   -3.1829 H         1 <0>         0.4270
     39 H12         2.1174    1.2548   -0.0107 H         1 <0>         0.1233
     40 H13         0.0021   -0.0041    0.0020 H         1 <0>         0.1289
     41 H14        -2.1471    1.1970    0.0191 H         1 <0>         0.1323
     42 H15        -2.1824    3.6584    0.0409 H         1 <0>         0.1356
     43 H16         4.3714    4.4811    3.8629 H         1 <0>         0.0972
     44 H17         2.9466    3.8553    4.5656 H         1 <0>         0.1055
@<TRIPOS>BOND
     1    1    6 ar
     2    1    2 ar
     3    1   30 1
     4    2    3 ar
     5    2   31 1
     6    3    4 ar
     7    3   32 1
     8    4    5 ar
     9    4    7 1
    10    5    6 ar
    11    5   33 1
    12    6   34 1
    13    7    8 1
    14    7   29 1
    15    7    9 1
    16    9   10 1
    17    9   35 1
    18    9   36 1
    19   10   16 1
    20   10   11 2
    21   11   12 1
    22   11   27 1
    23   12   13 1
    24   12   14 1
    25   12   20 1
    26   14   15 2
    27   14   18 1
    28   15   16 1
    29   15   17 1
    30   17   37 1
    31   17   38 1
    32   18   19 3
    33   20   25 ar
    34   20   21 ar
    35   21   22 ar
    36   21   39 1
    37   22   23 ar
    38   22   40 1
    39   23   24 ar
    40   23   41 1
    41   24   25 ar
    42   24   42 1
    43   25   26 1
    44   27   28 2
    45   27   29 1
    46   29   43 1
    47   29   44 1
