@<TRIPOS>MOLECULE
ZINC03995766
   20    21     0     0     0
SMALL
USER_CHARGES

@<TRIPOS>ATOM
      1 C1         -0.0112    1.4348    0.0002 C.3       1 <0>         0.0182
      2 C2          1.4711    1.8661   -0.0050 C.3       1 <0>        -0.1779
      3 H1          1.8479    2.3893    0.8738 H         1 <0>         0.1278
      4 C3          2.2316    0.6797   -0.6325 C.3       1 <0>        -0.1343
      5 H2          3.1815    0.3288   -0.2294 H         1 <0>         0.1308
      6 C4          2.1580    2.0709   -1.3567 C.3       1 <0>        -0.1485
      7 H3          3.0690    2.6692   -1.3717 H         1 <0>         0.1180
      8 C5          1.2757    2.2021   -2.5713 C.2       1 <0>         0.5088
      9 O1          0.4106    3.0605   -2.6065 O.co2     1 <0>        -0.6887
     10 O2          1.4271    1.4499   -3.5188 O.co2     1 <0>        -0.6691
     11 C6          1.1476   -0.3777   -0.9330 C.3       1 <0>        -0.0222
     12 H4          0.8061   -0.2896   -1.9643 H         1 <0>         0.1447
     13 N1          0.0308   -0.0500   -0.0238 N.4       1 <0>        -0.4920
     14 C7          1.6791   -1.7637   -0.6730 C.2       1 <0>         0.5049
     15 O3          1.2616   -2.4092    0.2733 O.co2     1 <0>        -0.6889
     16 O4          2.5266   -2.2396   -1.4091 O.co2     1 <0>        -0.6370
     17 H5         -0.5063    1.7865    0.9053 H         1 <0>         0.1217
     18 H6         -0.5208    1.8150   -0.8852 H         1 <0>         0.1424
     19 H7          0.2256   -0.4125    0.8974 H         1 <0>         0.4215
     20 H8         -0.8390   -0.4221   -0.3745 H         1 <0>         0.4200
@<TRIPOS>BOND
     1    1   13 1
     2    1    2 1
     3    1   17 1
     4    1   18 1
     5    2    3 1
     6    2    6 1
     7    2    4 1
     8    4    5 1
     9    4    6 1
    10    4   11 1
    11    6    7 1
    12    6    8 1
    13    8    9 2
    14    8   10 1
    15   11   12 1
    16   11   13 1
    17   11   14 1
    18   13   19 1
    19   13   20 1
    20   14   15 2
    21   14   16 1
@<TRIPOS>MOLECULE
ZINC35636045
   46    47     0     0     0
SMALL
USER_CHARGES

@<TRIPOS>ATOM
      1 C1          0.0041    1.3788    0.1722 C.ar      1 <0>        -0.1067
      2 C2          1.1780    2.0861   -0.0143 C.ar      1 <0>        -0.1014
      3 C3          2.3713    1.4137   -0.2030 C.ar      1 <0>        -0.0573
      4 C4          2.3945    0.0326   -0.2058 C.ar      1 <0>        -0.0906
      5 C5          1.2177   -0.6806   -0.0188 C.ar      1 <0>         0.1297
      6 C6          0.0205   -0.0019    0.1706 C.ar      1 <0>        -0.1416
      7 N1          1.2377   -2.0789   -0.0215 N.am      1 <0>        -0.6663
      8 C7          2.3110   -2.7384    0.4576 C.2       1 <0>         0.5454
      9 O1          3.2198   -2.1224    0.9795 O.2       1 <0>        -0.4852
     10 C8          2.3831   -4.2108    0.3484 C.ar      1 <0>        -0.0955
     11 C9          1.3439   -4.9206   -0.2555 C.ar      1 <0>        -0.0896
     12 C10         1.4174   -6.2947   -0.3541 C.ar      1 <0>        -0.0772
     13 C11         2.5181   -6.9691    0.1439 C.ar      1 <0>        -0.1631
     14 C12         3.5514   -6.2716    0.7440 C.ar      1 <0>        -0.0746
     15 C13         3.4933   -4.8969    0.8436 C.ar      1 <0>        -0.0574
     16 C14         2.5916   -8.4702    0.0326 C.3       1 <0>         0.5081
     17 F1          3.2143   -8.8187   -1.1708 F         1 <0>        -0.1739
     18 F2          3.3301   -8.9818    1.1050 F         1 <0>        -0.1746
     19 F3          1.2986   -9.0037    0.0602 F         1 <0>        -0.1760
     20 C15         3.6478    2.1884   -0.4064 C.3       1 <0>         0.1130
     21 O2          4.2624    2.4346    0.8600 O.3       1 <0>        -0.3521
     22 C16         5.4868    3.1670    0.7792 C.3       1 <0>         0.0135
     23 H1          5.4576    3.8292   -0.0861 H         1 <0>         0.0865
     24 C17         5.6691    3.9976    2.0511 C.3       1 <0>        -0.0264
     25 H2          6.5562    4.6232    1.9524 H         1 <0>         0.1365
     26 C18         4.4588    4.8713    2.2583 C.2       1 <0>         0.4997
     27 O3          3.5131    4.4586    2.9078 O.co2     1 <0>        -0.6641
     28 O4          4.4254    5.9908    1.7765 O.co2     1 <0>        -0.6580
     29 N2          5.8283    3.1003    3.2032 N.4       1 <0>        -0.6056
     30 C19         6.6388    2.2058    0.6375 C.2       1 <0>         0.4615
     31 O5          7.7681    2.6297    0.4604 O.co2     1 <0>        -0.6848
     32 O6          6.4414    1.0043    0.6999 O.co2     1 <0>        -0.6590
     33 H3         -0.9256    1.9071    0.3238 H         1 <0>         0.1264
     34 H4          1.1624    3.1660   -0.0129 H         1 <0>         0.1272
     35 H5          3.3269   -0.4921   -0.3536 H         1 <0>         0.1392
     36 H6         -0.8964   -0.5536    0.3167 H         1 <0>         0.1220
     37 H7          0.4791   -2.5741   -0.3681 H         1 <0>         0.4067
     38 H8          0.4840   -4.3954   -0.6442 H         1 <0>         0.1390
     39 H9          0.6139   -6.8451   -0.8207 H         1 <0>         0.1432
     40 H10         4.4076   -6.8042    1.1310 H         1 <0>         0.1455
     41 H11         4.3029   -4.3532    1.3076 H         1 <0>         0.1541
     42 H12         4.3270    1.6113   -1.0339 H         1 <0>         0.0586
     43 H13         3.4230    3.1380   -0.8919 H         1 <0>         0.0516
     44 H14         5.0072    2.5212    3.2945 H         1 <0>         0.4359
     45 H15         6.6387    2.5154    3.0645 H         1 <0>         0.4206
     46 H16         5.9486    3.6481    4.0420 H         1 <0>         0.4171
@<TRIPOS>BOND
     1    1    6 ar
     2    1    2 ar
     3    1   33 1
     4    2    3 ar
     5    2   34 1
     6    3    4 ar
     7    3   20 1
     8    4    5 ar
     9    4   35 1
    10    5    6 ar
    11    5    7 1
    12    6   36 1
    13    7    8 am
    14    7   37 1
    15    8    9 2
    16    8   10 1
    17   10   15 ar
    18   10   11 ar
    19   11   12 ar
    20   11   38 1
    21   12   13 ar
    22   12   39 1
    23   13   14 ar
    24   13   16 1
    25   14   15 ar
    26   14   40 1
    27   15   41 1
    28   16   17 1
    29   16   18 1
    30   16   19 1
    31   20   21 1
    32   20   42 1
    33   20   43 1
    34   21   22 1
    35   22   23 1
    36   22   24 1
    37   22   30 1
    38   24   25 1
    39   24   26 1
    40   24   29 1
    41   26   27 2
    42   26   28 1
    43   29   44 1
    44   29   45 1
    45   29   46 1
    46   30   31 2
    47   30   32 1
@<TRIPOS>MOLECULE
ZINC39058349
   20    19     0     0     0
SMALL
USER_CHARGES

@<TRIPOS>ATOM
      1 C1         -0.0173    1.4248    0.0099 C.3       1 <0>         0.0272
      2 O1          0.0021   -0.0041    0.0020 O.3       1 <0>        -0.3434
      3 C2         -1.2953   -0.6030    0.0112 C.3       1 <0>         0.0917
      4 H1         -2.0031    0.0555   -0.4924 H         1 <0>         0.1397
      5 C3         -1.2417   -1.9471   -0.7178 C.3       1 <0>        -0.0402
      6 H2         -2.2470   -2.3623   -0.7887 H         1 <0>         0.1568
      7 C4         -0.6827   -1.7454   -2.1027 C.2       1 <0>         0.4963
      8 O2          0.5189   -1.8258   -2.2928 O.co2     1 <0>        -0.6451
      9 O3         -1.4322   -1.5020   -3.0331 O.co2     1 <0>        -0.6325
     10 N1         -0.3803   -2.8745    0.0277 N.4       1 <0>        -0.6132
     11 C5         -1.7378   -0.8212    1.4351 C.2       1 <0>         0.4263
     12 O4         -0.9814   -0.5814    2.3463 O.2       1 <0>        -0.4811
     13 O5         -2.9723   -1.2819    1.6912 O.3       1 <0>        -0.4989
     14 H3          1.0053    1.8021    0.0021 H         1 <0>         0.1042
     15 H4         -0.5445    1.7859   -0.8732 H         1 <0>         0.0582
     16 H5         -0.5275    1.7763    0.9067 H         1 <0>         0.0479
     17 H6         -0.7545   -3.0095    0.9549 H         1 <0>         0.4097
     18 H7         -0.3449   -3.7609   -0.4531 H         1 <0>         0.4365
     19 H8          0.5503   -2.4901    0.0933 H         1 <0>         0.4432
     20 H9         -3.1645   -1.3895    2.6328 H         1 <0>         0.4167
@<TRIPOS>BOND
     1    1    2 1
     2    1   14 1
     3    1   15 1
     4    1   16 1
     5    2    3 1
     6    3    4 1
     7    3    5 1
     8    3   11 1
     9    5    6 1
    10    5    7 1
    11    5   10 1
    12    7    8 2
    13    7    9 1
    14   10   17 1
    15   10   18 1
    16   10   19 1
    17   11   12 2
    18   11   13 1
    19   13   20 1
@<TRIPOS>MOLECULE
ZINC39058349
   19    18     0     0     0
SMALL
USER_CHARGES

@<TRIPOS>ATOM
      1 C1         -0.0173    1.4248    0.0099 C.3       1 <0>         0.0284
      2 O1          0.0021   -0.0041    0.0020 O.3       1 <0>        -0.3334
      3 C2          0.6734   -0.5824    1.1231 C.3       1 <0>         0.0759
      4 H1          0.5745    0.0768    1.9855 H         1 <0>         0.0992
      5 C3          0.0491   -1.9415    1.4459 C.3       1 <0>         0.0352
      6 H2          0.5006   -2.3424    2.3534 H         1 <0>         0.0951
      7 C4         -1.4343   -1.7763    1.6535 C.2       1 <0>         0.5127
      8 O2         -2.1973   -1.8791    0.7081 O.co2     1 <0>        -0.6682
      9 O3         -1.8715   -1.5399    2.7668 O.co2     1 <0>        -0.7007
     10 N1          0.2874   -2.8671    0.3304 N.3       1 <0>        -0.8189
     11 C5          2.1329   -0.7652    0.7952 C.2       1 <0>         0.4490
     12 O4          2.5378   -0.5190   -0.3163 O.2       1 <0>        -0.5093
     13 O5          2.9831   -1.2014    1.7379 O.3       1 <0>        -0.5023
     14 H3          1.0053    1.8021    0.0021 H         1 <0>         0.0345
     15 H4         -0.5445    1.7859   -0.8732 H         1 <0>         0.0897
     16 H5         -0.5275    1.7763    0.9067 H         1 <0>         0.0458
     17 H6         -0.1218   -2.5176   -0.5232 H         1 <0>         0.3551
     18 H7          1.2736   -3.0448    0.2123 H         1 <0>         0.3131
     19 H8          3.8970   -1.2871    1.4340 H         1 <0>         0.3992
@<TRIPOS>BOND
     1    1    2 1
     2    1   14 1
     3    1   15 1
     4    1   16 1
     5    2    3 1
     6    3    4 1
     7    3    5 1
     8    3   11 1
     9    5    6 1
    10    5    7 1
    11    5   10 1
    12    7    8 2
    13    7    9 1
    14   10   17 1
    15   10   18 1
    16   11   12 2
    17   11   13 1
    18   13   19 1
@<TRIPOS>MOLECULE
ZINC13831242
   38    39     0     0     0
SMALL
USER_CHARGES

@<TRIPOS>ATOM
      1 C1          0.0520    1.4663   -0.7361 C.ar      1 <0>        -0.1242
      2 C2          1.2725    2.1064   -0.6521 C.ar      1 <0>        -0.1071
      3 C3          2.3638    1.4503   -0.1009 C.ar      1 <0>         0.0603
      4 C4          2.2294    0.1505    0.3657 C.ar      1 <0>        -0.0944
      5 C5          1.0094   -0.4906    0.2822 C.ar      1 <0>        -0.1044
      6 C6         -0.0832    0.1657   -0.2689 C.ar      1 <0>         0.1418
      7 N1         -1.3214   -0.4843   -0.3539 N.am      1 <0>        -0.6616
      8 C7         -1.3716   -1.8095   -0.5941 C.2       1 <0>         0.5141
      9 O1         -0.3465   -2.4557   -0.6469 O.2       1 <0>        -0.5366
     10 C8         -2.7016   -2.4886   -0.7971 C.3       1 <0>        -0.1504
     11 C9         -2.4788   -3.9809   -1.0505 C.3       1 <0>        -0.0303
     12 H1         -1.8946   -4.4049   -0.2338 H         1 <0>         0.1411
     13 C10        -3.8109   -4.6810   -1.1313 C.2       1 <0>         0.4882
     14 O2         -4.3772   -4.7916   -2.2054 O.co2     1 <0>        -0.6632
     15 O3         -4.3222   -5.1369   -0.1228 O.co2     1 <0>        -0.6311
     16 N2         -1.7539   -4.1600   -2.3155 N.4       1 <0>        -0.6147
     17 O4          3.5652    2.0811   -0.0184 O.3       1 <0>        -0.2310
     18 C11         3.7402    2.9935    0.9739 C.ar      1 <0>         0.1722
     19 C12         2.7144    3.2468    1.8728 C.ar      1 <0>        -0.2030
     20 C13         2.8941    4.1756    2.8819 C.ar      1 <0>         0.1281
     21 C14         4.0991    4.8529    2.9946 C.ar      1 <0>         0.0439
     22 C15         5.1224    4.6005    2.0980 C.ar      1 <0>        -0.0582
     23 C16         4.9472    3.6684    1.0920 C.ar      1 <0>        -0.1098
     24 Br1         6.3495    3.3182   -0.1274 Br        1 <0>        -0.0043
     25 F1          4.2737    5.7603    3.9802 F         1 <0>        -0.1184
     26 F2          1.8955    4.4232    3.7576 F         1 <0>        -0.1146
     27 H2         -0.7985    1.9786   -1.1611 H         1 <0>         0.1395
     28 H3          1.3778    3.1179   -1.0158 H         1 <0>         0.1408
     29 H4          3.0793   -0.3599    0.7940 H         1 <0>         0.1416
     30 H5          0.9050   -1.5024    0.6451 H         1 <0>         0.1519
     31 H6         -2.1424    0.0194   -0.2399 H         1 <0>         0.4211
     32 H7         -3.3155   -2.3590    0.0942 H         1 <0>         0.1424
     33 H8         -3.2083   -2.0461   -1.6548 H         1 <0>         0.1220
     34 H9         -2.2948   -3.7676   -3.0715 H         1 <0>         0.4289
     35 H10        -0.8621   -3.6913   -2.2614 H         1 <0>         0.4208
     36 H11         1.7761    2.7194    1.7846 H         1 <0>         0.1597
     37 H12         6.0601    5.1289    2.1867 H         1 <0>         0.1668
     38 H13        -1.6070   -5.1442   -2.4826 H         1 <0>         0.4324
@<TRIPOS>BOND
     1    1    6 ar
     2    1    2 ar
     3    1   27 1
     4    2    3 ar
     5    2   28 1
     6    3    4 ar
     7    3   17 1
     8    4    5 ar
     9    4   29 1
    10    5    6 ar
    11    5   30 1
    12    6    7 1
    13    7    8 am
    14    7   31 1
    15    8    9 2
    16    8   10 1
    17   10   11 1
    18   10   32 1
    19   10   33 1
    20   11   12 1
    21   11   13 1
    22   11   16 1
    23   13   14 2
    24   13   15 1
    25   16   34 1
    26   16   35 1
    27   16   38 1
    28   17   18 1
    29   18   23 ar
    30   18   19 ar
    31   19   20 ar
    32   19   36 1
    33   20   21 ar
    34   20   26 1
    35   21   22 ar
    36   21   25 1
    37   22   23 ar
    38   22   37 1
    39   23   24 1
@<TRIPOS>MOLECULE
ZINC02558026
   19    19     0     0     0
SMALL
USER_CHARGES

@<TRIPOS>ATOM
      1 C1         -0.0187    1.5258    0.0104 C.3       1 <0>        -0.1597
      2 C2          1.3165    0.7789   -0.0063 C.3       1 <0>        -0.1811
      3 H1          1.9064    0.7818    0.9103 H         1 <0>         0.0952
      4 C3          0.0021   -0.0041    0.0020 C.3       1 <0>        -0.1731
      5 H2         -0.2728   -0.5162    0.9241 H         1 <0>         0.0923
      6 C4         -0.4023   -0.6984   -1.2729 C.2       1 <0>         0.5418
      7 O1         -1.4525   -0.4067   -1.8192 O.co2     1 <0>        -0.6678
      8 O2          0.3206   -1.5520   -1.7579 O.co2     1 <0>        -0.7108
      9 C5          2.1201    0.7974   -1.3082 C.3       1 <0>        -0.0234
     10 H3          2.3141   -0.2258   -1.6300 H         1 <0>         0.1446
     11 C6          1.3346    1.5185   -2.3731 C.2       1 <0>         0.4805
     12 O3          1.7040    2.6111   -2.7685 O.co2     1 <0>        -0.7112
     13 O4          0.3296    1.0093   -2.8393 O.co2     1 <0>        -0.5672
     14 N1          3.3958    1.4912   -1.0865 N.4       1 <0>        -0.6071
     15 H4         -0.3072    2.0201    0.9381 H         1 <0>         0.0788
     16 H5         -0.3248    2.0300   -0.9061 H         1 <0>         0.1143
     17 H6          3.2162    2.4384   -0.7886 H         1 <0>         0.4237
     18 H7          3.9217    1.0084   -0.3735 H         1 <0>         0.4052
     19 H8          3.9257    1.5034   -1.9450 H         1 <0>         0.4249
@<TRIPOS>BOND
     1    1    4 1
     2    1    2 1
     3    1   15 1
     4    1   16 1
     5    2    3 1
     6    2    4 1
     7    2    9 1
     8    4    5 1
     9    4    6 1
    10    6    7 2
    11    6    8 1
    12    9   10 1
    13    9   11 1
    14    9   14 1
    15   11   12 2
    16   11   13 1
    17   14   17 1
    18   14   18 1
    19   14   19 1
@<TRIPOS>MOLECULE
ZINC02506775
   29    29     0     0     0
SMALL
USER_CHARGES

@<TRIPOS>ATOM
      1 C1         -0.0167    1.3781    0.0096 C.ar      1 <0>        -0.1219
      2 C2          1.1709    2.0855    0.0021 C.ar      1 <0>        -0.1280
      3 C3          2.3773    1.4107   -0.0130 C.ar      1 <0>        -0.0924
      4 C4          2.3960    0.0285   -0.0201 C.ar      1 <0>        -0.0772
      5 C5          1.2084   -0.6789   -0.0117 C.ar      1 <0>        -0.0935
      6 C6          0.0021   -0.0041    0.0020 C.ar      1 <0>        -0.1304
      7 C7          3.7112   -0.7071   -0.0376 C.3       1 <0>         0.1118
      8 O1          4.1410   -0.9464    1.3041 O.3       1 <0>        -0.3553
      9 C8          5.3853   -1.6423    1.4004 C.3       1 <0>         0.0134
     10 H1          6.0046   -1.4007    0.5366 H         1 <0>         0.0873
     11 C9          6.1085   -1.2193    2.6806 C.3       1 <0>        -0.0259
     12 H2          7.0952   -1.6816    2.7103 H         1 <0>         0.1375
     13 C10         6.2555    0.2803    2.7024 C.2       1 <0>         0.4991
     14 O2          5.3869    0.9707    3.2078 O.co2     1 <0>        -0.6646
     15 O3          7.2430    0.8032    2.2147 O.co2     1 <0>        -0.6576
     16 N1          5.3298   -1.6520    3.8487 N.4       1 <0>        -0.6056
     17 C11         5.1291   -3.1270    1.4354 C.2       1 <0>         0.4633
     18 O4          3.9868   -3.5499    1.3827 O.co2     1 <0>        -0.6635
     19 O5          6.0642   -3.9052    1.5163 O.co2     1 <0>        -0.6843
     20 H3         -0.9591    1.9053    0.0259 H         1 <0>         0.1169
     21 H4          1.1563    3.1654    0.0076 H         1 <0>         0.1194
     22 H5          3.3051    1.9634   -0.0196 H         1 <0>         0.1235
     23 H6          1.2231   -1.7588   -0.0176 H         1 <0>         0.1266
     24 H7         -0.9258   -0.5567    0.0082 H         1 <0>         0.1190
     25 H8          3.5884   -1.6586   -0.5549 H         1 <0>         0.0602
     26 H9          4.4573   -0.1052   -0.5563 H         1 <0>         0.0492
     27 H10         5.2314   -2.6561    3.8341 H         1 <0>         0.4204
     28 H11         5.8067   -1.3730    4.6930 H         1 <0>         0.4177
     29 H12         4.4164   -1.2241    3.8213 H         1 <0>         0.4349
@<TRIPOS>BOND
     1    1    6 ar
     2    1    2 ar
     3    1   20 1
     4    2    3 ar
     5    2   21 1
     6    3    4 ar
     7    3   22 1
     8    4    5 ar
     9    4    7 1
    10    5    6 ar
    11    5   23 1
    12    6   24 1
    13    7    8 1
    14    7   25 1
    15    7   26 1
    16    8    9 1
    17    9   10 1
    18    9   11 1
    19    9   17 1
    20   11   12 1
    21   11   13 1
    22   11   16 1
    23   13   14 2
    24   13   15 1
    25   16   27 1
    26   16   28 1
    27   16   29 1
    28   17   18 2
    29   17   19 1
