@<TRIPOS>MOLECULE
ZINC02506775
   29    29     0     0     0
SMALL
USER_CHARGES

@<TRIPOS>ATOM
      1 C1         -0.0167    1.3781    0.0096 C.ar      1 <0>        -0.1219
      2 C2          1.1709    2.0855    0.0021 C.ar      1 <0>        -0.1280
      3 C3          2.3773    1.4107   -0.0130 C.ar      1 <0>        -0.0924
      4 C4          2.3960    0.0285   -0.0201 C.ar      1 <0>        -0.0772
      5 C5          1.2084   -0.6789   -0.0117 C.ar      1 <0>        -0.0935
      6 C6          0.0021   -0.0041    0.0020 C.ar      1 <0>        -0.1304
      7 C7          3.7112   -0.7071   -0.0376 C.3       1 <0>         0.1118
      8 O1          4.1410   -0.9464    1.3041 O.3       1 <0>        -0.3553
      9 C8          5.3853   -1.6423    1.4004 C.3       1 <0>         0.0134
     10 H1          6.0046   -1.4007    0.5366 H         1 <0>         0.0873
     11 C9          6.1085   -1.2193    2.6806 C.3       1 <0>        -0.0259
     12 H2          7.0952   -1.6816    2.7103 H         1 <0>         0.1375
     13 C10         6.2555    0.2803    2.7024 C.2       1 <0>         0.4991
     14 O2          5.3869    0.9707    3.2078 O.co2     1 <0>        -0.6646
     15 O3          7.2430    0.8032    2.2147 O.co2     1 <0>        -0.6576
     16 N1          5.3298   -1.6520    3.8487 N.4       1 <0>        -0.6056
     17 C11         5.1291   -3.1270    1.4354 C.2       1 <0>         0.4633
     18 O4          3.9868   -3.5499    1.3827 O.co2     1 <0>        -0.6635
     19 O5          6.0642   -3.9052    1.5163 O.co2     1 <0>        -0.6843
     20 H3         -0.9591    1.9053    0.0259 H         1 <0>         0.1169
     21 H4          1.1563    3.1654    0.0076 H         1 <0>         0.1194
     22 H5          3.3051    1.9634   -0.0196 H         1 <0>         0.1235
     23 H6          1.2231   -1.7588   -0.0176 H         1 <0>         0.1266
     24 H7         -0.9258   -0.5567    0.0082 H         1 <0>         0.1190
     25 H8          3.5884   -1.6586   -0.5549 H         1 <0>         0.0602
     26 H9          4.4573   -0.1052   -0.5563 H         1 <0>         0.0492
     27 H10         5.2314   -2.6561    3.8341 H         1 <0>         0.4204
     28 H11         5.8067   -1.3730    4.6930 H         1 <0>         0.4177
     29 H12         4.4164   -1.2241    3.8213 H         1 <0>         0.4349
@<TRIPOS>BOND
     1    1    6 ar
     2    1    2 ar
     3    1   20 1
     4    2    3 ar
     5    2   21 1
     6    3    4 ar
     7    3   22 1
     8    4    5 ar
     9    4    7 1
    10    5    6 ar
    11    5   23 1
    12    6   24 1
    13    7    8 1
    14    7   25 1
    15    7   26 1
    16    8    9 1
    17    9   10 1
    18    9   11 1
    19    9   17 1
    20   11   12 1
    21   11   13 1
    22   11   16 1
    23   13   14 2
    24   13   15 1
    25   16   27 1
    26   16   28 1
    27   16   29 1
    28   17   18 2
    29   17   19 1
