@<TRIPOS>MOLECULE
ZINC03616630
   52    54     0     0     0
SMALL
USER_CHARGES

@<TRIPOS>ATOM
      1 C1         -0.0187    1.5258    0.0104 C.3       1 <0>        -0.1979
      2 C2          0.0021   -0.0041    0.0020 C.3       1 <0>        -0.0083
      3 H1         -1.0205   -0.3814    0.0098 H         1 <0>         0.1467
      4 C3          0.7421   -0.5109    1.2415 C.3       1 <0>         0.1398
      5 H2          0.8346   -1.5958    1.1912 H         1 <0>         0.1306
      6 C4         -0.0298   -0.1295    2.4784 C.ar      1 <0>        -0.1506
      7 C5          0.0648    1.1546    2.9823 C.ar      1 <0>        -0.0917
      8 C6         -0.6414    1.5067    4.1162 C.ar      1 <0>        -0.1399
      9 C7         -1.4464    0.5707    4.7491 C.ar      1 <0>         0.1318
     10 C8         -1.5399   -0.7170    4.2412 C.ar      1 <0>        -0.1399
     11 C9         -0.8358   -1.0625    3.1041 C.ar      1 <0>        -0.0825
     12 O1         -2.1418    0.9144    5.8650 O.3       1 <0>        -0.4954
     13 O2          2.0438    0.0763    1.2925 O.3       1 <0>        -0.5446
     14 N1          0.6897   -0.4778   -1.2066 N.4       1 <0>        -0.3762
     15 C10        -0.0162    0.0165   -2.3948 C.3       1 <0>        -0.0111
     16 C11         0.7414   -0.4060   -3.6554 C.3       1 <0>        -0.1418
     17 C12         0.8228   -1.9344   -3.7071 C.3       1 <0>        -0.0939
     18 C13         1.4942   -2.4436   -2.4284 C.3       1 <0>        -0.1436
     19 C14         0.7088   -1.9455   -1.2133 C.3       1 <0>        -0.0127
     20 C15         1.6472   -2.3620   -4.9230 C.3       1 <0>        -0.0744
     21 C16         1.6242   -3.8640   -5.0426 C.ar      1 <0>        -0.0948
     22 C17         2.5880   -4.6230   -4.4053 C.ar      1 <0>        -0.1212
     23 C18         2.5668   -6.0008   -4.5150 C.ar      1 <0>        -0.1159
     24 C19         1.5817   -6.6197   -5.2615 C.ar      1 <0>        -0.1163
     25 C20         0.6174   -5.8609   -5.8979 C.ar      1 <0>        -0.1139
     26 C21         0.6360   -4.4833   -5.7848 C.ar      1 <0>        -0.1163
     27 H3          1.0039    1.9031    0.0027 H         1 <0>         0.0834
     28 H4         -0.5459    1.8868   -0.8726 H         1 <0>         0.0917
     29 H5         -0.5289    1.8773    0.9072 H         1 <0>         0.1135
     30 H6          0.6915    1.8829    2.4892 H         1 <0>         0.1279
     31 H7         -0.5667    2.5096    4.5098 H         1 <0>         0.1384
     32 H8         -2.1659   -1.4474    4.7322 H         1 <0>         0.1387
     33 H9         -0.9117   -2.0635    2.7058 H         1 <0>         0.1316
     34 H10        -3.0262    1.2619    5.6858 H         1 <0>         0.4006
     35 H11         2.0381    1.0422    1.3386 H         1 <0>         0.3862
     36 H12        -1.0226   -0.4013   -2.4191 H         1 <0>         0.1283
     37 H13        -0.0762    1.1042   -2.3550 H         1 <0>         0.1325
     38 H14         0.2147   -0.0396   -4.5366 H         1 <0>         0.1136
     39 H15         1.7479    0.0115   -3.6323 H         1 <0>         0.0897
     40 H16        -0.1818   -2.3506   -3.7819 H         1 <0>         0.0907
     41 H17         1.5058   -3.5335   -2.4326 H         1 <0>         0.1159
     42 H18         2.5165   -2.0683   -2.3798 H         1 <0>         0.0897
     43 H19         1.1841   -2.3064   -0.3012 H         1 <0>         0.1315
     44 H20        -0.3131   -2.3215   -1.2627 H         1 <0>         0.1284
     45 H21         1.2224   -1.9192   -5.8239 H         1 <0>         0.0830
     46 H22         2.6760   -2.0229   -4.8019 H         1 <0>         0.0787
     47 H23         3.3577   -4.1394   -3.8221 H         1 <0>         0.1199
     48 H24         3.3202   -6.5937   -4.0177 H         1 <0>         0.1246
     49 H25         1.5656   -7.6962   -5.3477 H         1 <0>         0.1252
     50 H26        -0.1521   -6.3444   -6.4814 H         1 <0>         0.1251
     51 H27        -0.1196   -3.8906   -6.2790 H         1 <0>         0.1213
     52 H28         1.6368   -0.1301   -1.2116 H         1 <0>         0.4242
@<TRIPOS>BOND
     1    1    2 1
     2    1   27 1
     3    1   28 1
     4    1   29 1
     5    2    3 1
     6    2    4 1
     7    2   14 1
     8    4    5 1
     9    4    6 1
    10    4   13 1
    11    6   11 ar
    12    6    7 ar
    13    7    8 ar
    14    7   30 1
    15    8    9 ar
    16    8   31 1
    17    9   10 ar
    18    9   12 1
    19   10   11 ar
    20   10   32 1
    21   11   33 1
    22   12   34 1
    23   13   35 1
    24   14   19 1
    25   14   15 1
    26   14   52 1
    27   15   16 1
    28   15   36 1
    29   15   37 1
    30   16   17 1
    31   16   38 1
    32   16   39 1
    33   17   18 1
    34   17   20 1
    35   17   40 1
    36   18   19 1
    37   18   41 1
    38   18   42 1
    39   19   43 1
    40   19   44 1
    41   20   21 1
    42   20   45 1
    43   20   46 1
    44   21   26 ar
    45   21   22 ar
    46   22   23 ar
    47   22   47 1
    48   23   24 ar
    49   23   48 1
    50   24   25 ar
    51   24   49 1
    52   25   26 ar
    53   25   50 1
    54   26   51 1
@<TRIPOS>MOLECULE
ZINC00538505
   53    55     0     0     0
SMALL
USER_CHARGES

@<TRIPOS>ATOM
      1 C1         -0.0167    1.3779    0.0096 C.ar      1 <0>        -0.1095
      2 C2          1.1711    2.0854    0.0021 C.ar      1 <0>        -0.0819
      3 C3          2.3773    1.4107   -0.0130 C.ar      1 <0>        -0.1296
      4 C4          2.3960    0.0283   -0.0201 C.ar      1 <0>        -0.0587
      5 C5          1.2086   -0.6790   -0.0117 C.ar      1 <0>        -0.1698
      6 C6          0.0021   -0.0041    0.0020 C.ar      1 <0>        -0.0574
      7 C7          1.2291   -2.1858   -0.0204 C.3       1 <0>         0.5061
      8 F1          1.2492   -2.6596    1.2958 F         1 <0>        -0.1726
      9 F2          0.0864   -2.6639   -0.6707 F         1 <0>        -0.1710
     10 F3          2.3706   -2.6328   -0.6944 F         1 <0>        -0.1747
     11 C8          3.6720    2.1819   -0.0222 C.3       1 <0>         0.1745
     12 C9          4.1211    2.4458    1.4178 C.3       1 <0>        -0.1714
     13 C10         5.3928    3.2968    1.4019 C.3       1 <0>        -0.0018
     14 N1          5.1230    4.5737    0.7302 N.4       1 <0>        -0.3831
     15 C11         4.7612    4.3323   -0.6717 C.3       1 <0>        -0.0093
     16 C12         3.4652    3.5212   -0.7356 C.3       1 <0>        -0.1329
     17 C13         6.3239    5.4179    0.7860 C.3       1 <0>        -0.0094
     18 C14         6.0074    6.7944    0.1977 C.3       1 <0>        -0.1428
     19 C15         7.2581    7.6737    0.2559 C.3       1 <0>        -0.1654
     20 C16         6.9464    9.0295   -0.3235 C.2       1 <0>         0.4040
     21 O1          5.8335    9.2689   -0.7418 O.2       1 <0>        -0.4486
     22 C17         7.9913   10.0620   -0.3817 C.ar      1 <0>        -0.1969
     23 C18         9.2781    9.7871    0.0948 C.ar      1 <0>        -0.0431
     24 C19        10.2526   10.7590    0.0374 C.ar      1 <0>        -0.1670
     25 C20         9.9606   12.0080   -0.4910 C.ar      1 <0>         0.1440
     26 C21         8.6871   12.2869   -0.9650 C.ar      1 <0>        -0.1650
     27 C22         7.7052   11.3220   -0.9192 C.ar      1 <0>        -0.0260
     28 F4         10.9207   12.9570   -0.5436 F         1 <0>        -0.1257
     29 O2          4.6736    1.4260   -0.7059 O.3       1 <0>        -0.5462
     30 H1         -0.9591    1.9051    0.0259 H         1 <0>         0.1440
     31 H2          1.1565    3.1653    0.0076 H         1 <0>         0.1349
     32 H3          3.3385   -0.4989   -0.0326 H         1 <0>         0.1361
     33 H4         -0.9258   -0.5567    0.0079 H         1 <0>         0.1445
     34 H5          3.3342    2.9774    1.9529 H         1 <0>         0.1019
     35 H6          4.3240    1.4975    1.9154 H         1 <0>         0.1181
     36 H7          5.7154    3.4864    2.4257 H         1 <0>         0.1338
     37 H8          6.1791    2.7643    0.8669 H         1 <0>         0.1360
     38 H9          4.6176    5.2863   -1.1789 H         1 <0>         0.1363
     39 H10         5.5610    3.7777   -1.1626 H         1 <0>         0.1394
     40 H11         3.1993    3.3415   -1.7773 H         1 <0>         0.1246
     41 H12         2.6647    4.0750   -0.2452 H         1 <0>         0.1050
     42 H13         6.6412    5.5301    1.8227 H         1 <0>         0.1336
     43 H14         7.1230    4.9516    0.2098 H         1 <0>         0.1329
     44 H15         5.6900    6.6822   -0.8390 H         1 <0>         0.0952
     45 H16         5.2082    7.2608    0.7739 H         1 <0>         0.0948
     46 H17         7.5755    7.7859    1.2926 H         1 <0>         0.1128
     47 H18         8.0572    7.2074   -0.3203 H         1 <0>         0.1128
     48 H19         9.5065    8.8154    0.5070 H         1 <0>         0.1412
     49 H20        11.2460   10.5482    0.4048 H         1 <0>         0.1469
     50 H21         8.4663   13.2613   -1.3752 H         1 <0>         0.1478
     51 H22         6.7153   11.5389   -1.2927 H         1 <0>         0.1458
     52 H23         4.8578    0.5650   -0.3060 H         1 <0>         0.3914
     53 H24         4.3618    5.0438    1.1967 H         1 <0>         0.4216
@<TRIPOS>BOND
     1    1    6 ar
     2    1    2 ar
     3    1   30 1
     4    2    3 ar
     5    2   31 1
     6    3    4 ar
     7    3   11 1
     8    4    5 ar
     9    4   32 1
    10    5    6 ar
    11    5    7 1
    12    6   33 1
    13    7    8 1
    14    7    9 1
    15    7   10 1
    16   11   16 1
    17   11   12 1
    18   11   29 1
    19   12   13 1
    20   12   34 1
    21   12   35 1
    22   13   14 1
    23   13   36 1
    24   13   37 1
    25   14   15 1
    26   14   17 1
    27   14   53 1
    28   15   16 1
    29   15   38 1
    30   15   39 1
    31   16   40 1
    32   16   41 1
    33   17   18 1
    34   17   42 1
    35   17   43 1
    36   18   19 1
    37   18   44 1
    38   18   45 1
    39   19   20 1
    40   19   46 1
    41   19   47 1
    42   20   21 2
    43   20   22 1
    44   22   27 ar
    45   22   23 ar
    46   23   24 ar
    47   23   48 1
    48   24   25 ar
    49   24   49 1
    50   25   26 ar
    51   25   28 1
    52   26   27 ar
    53   26   50 1
    54   27   51 1
    55   29   52 1
@<TRIPOS>MOLECULE
ZINC12402836
   58    60     0     0     0
SMALL
USER_CHARGES

@<TRIPOS>ATOM
      1 C1         -0.8538    2.3356   -5.5554 C.3       1 <0>        -0.1878
      2 C2         -1.0529    0.8415   -5.2932 C.3       1 <0>        -0.0174
      3 N1         -0.7528    0.5471   -3.8856 N.4       1 <0>        -0.3876
      4 C3         -1.7299    1.2264   -3.0242 C.3       1 <0>        -0.0157
      5 C4         -1.3270    1.0505   -1.5587 C.3       1 <0>        -0.1892
      6 C5         -0.8274   -0.9028   -3.6618 C.3       1 <0>        -0.0058
      7 C6          0.2741   -1.5998   -4.4629 C.3       1 <0>         0.0256
      8 O1          1.5521   -1.1808   -3.9799 O.3       1 <0>        -0.3271
      9 C7          2.6438   -1.6359   -4.6486 C.ar      1 <0>         0.1168
     10 C8          2.4847   -2.4648   -5.7514 C.ar      1 <0>        -0.2008
     11 C9          3.5897   -2.9283   -6.4327 C.ar      1 <0>        -0.0542
     12 C10         4.8700   -2.5633   -6.0128 C.ar      1 <0>        -0.0628
     13 C11         5.0258   -1.7299   -4.9038 C.ar      1 <0>        -0.0541
     14 C12         3.9156   -1.2664   -4.2309 C.ar      1 <0>        -0.1392
     15 C13         6.0586   -3.0588   -6.7408 C.2       1 <0>        -0.0320
     16 C14         6.2742   -2.6795   -8.0257 C.2       1 <0>        -0.0003
     17 C15         7.3804   -3.2737   -8.7925 C.ar      1 <0>        -0.0654
     18 C16         7.5488   -4.6619   -8.8226 C.ar      1 <0>        -0.0824
     19 C17         8.5877   -5.2111   -9.5439 C.ar      1 <0>        -0.1196
     20 C18         9.4628   -4.3925  -10.2366 C.ar      1 <0>        -0.1015
     21 C19         9.3032   -3.0179  -10.2114 C.ar      1 <0>        -0.1201
     22 C20         8.2656   -2.4537   -9.4998 C.ar      1 <0>        -0.0923
     23 Cl1         5.2448   -1.4930   -8.7647 Cl        1 <0>        -0.0607
     24 C21         7.0125   -3.9682   -6.0680 C.ar      1 <0>        -0.0445
     25 C22         6.6149   -5.2550   -5.7026 C.ar      1 <0>        -0.1038
     26 C23         7.5090   -6.0979   -5.0755 C.ar      1 <0>        -0.1169
     27 C24         8.7973   -5.6698   -4.8083 C.ar      1 <0>        -0.1098
     28 C25         9.1977   -4.3952   -5.1681 C.ar      1 <0>        -0.1143
     29 C26         8.3152   -3.5446   -5.8013 C.ar      1 <0>        -0.0949
     30 H1         -1.5225    2.9094   -4.9137 H         1 <0>         0.0816
     31 H2          0.1793    2.6079   -5.3395 H         1 <0>         0.0810
     32 H3         -1.0765    2.5540   -6.5998 H         1 <0>         0.1068
     33 H4         -2.0860    0.5691   -5.5091 H         1 <0>         0.1312
     34 H5         -0.3842    0.2677   -5.9348 H         1 <0>         0.1278
     35 H6         -1.7542    2.2882   -3.2695 H         1 <0>         0.1338
     36 H7         -2.7176    0.7940   -3.1839 H         1 <0>         0.1298
     37 H8         -0.3642    1.5315   -1.3864 H         1 <0>         0.0818
     38 H9         -2.0811    1.5068   -0.9174 H         1 <0>         0.1068
     39 H10        -1.2488   -0.0120   -1.3284 H         1 <0>         0.0798
     40 H11        -0.6942   -1.1141   -2.6008 H         1 <0>         0.1443
     41 H12        -1.8008   -1.2709   -3.9861 H         1 <0>         0.1493
     42 H13         0.1787   -2.6796   -4.3486 H         1 <0>         0.1095
     43 H14         0.1796   -1.3362   -5.5163 H         1 <0>         0.0864
     44 H15         1.4938   -2.7470   -6.0754 H         1 <0>         0.1291
     45 H16         3.4652   -3.5731   -7.2900 H         1 <0>         0.1307
     46 H17         6.0148   -1.4457   -4.5757 H         1 <0>         0.1362
     47 H18         4.0352   -0.6183   -3.3753 H         1 <0>         0.1351
     48 H19         6.8672   -5.3019   -8.2821 H         1 <0>         0.1237
     49 H20         8.7191   -6.2828   -9.5682 H         1 <0>         0.1269
     50 H21        10.2748   -4.8287  -10.7995 H         1 <0>         0.1265
     51 H22         9.9904   -2.3859  -10.7542 H         1 <0>         0.1279
     52 H23         8.1395   -1.3812   -9.4850 H         1 <0>         0.1252
     53 H24         5.6094   -5.5901   -5.9099 H         1 <0>         0.1205
     54 H25         7.2026   -7.0941   -4.7921 H         1 <0>         0.1253
     55 H26         9.4933   -6.3333   -4.3166 H         1 <0>         0.1247
     56 H27        10.2046   -4.0668   -4.9565 H         1 <0>         0.1256
     57 H28         8.6304   -2.5516   -6.0859 H         1 <0>         0.1212
     58 H29         0.1756    0.8743   -3.6641 H         1 <0>         0.4295
@<TRIPOS>BOND
     1    1    2 1
     2    1   30 1
     3    1   31 1
     4    1   32 1
     5    2    3 1
     6    2   33 1
     7    2   34 1
     8    3    4 1
     9    3    6 1
    10    3   58 1
    11    4    5 1
    12    4   35 1
    13    4   36 1
    14    5   37 1
    15    5   38 1
    16    5   39 1
    17    6    7 1
    18    6   40 1
    19    6   41 1
    20    7    8 1
    21    7   42 1
    22    7   43 1
    23    8    9 1
    24    9   14 ar
    25    9   10 ar
    26   10   11 ar
    27   10   44 1
    28   11   12 ar
    29   11   45 1
    30   12   13 ar
    31   12   15 1
    32   13   14 ar
    33   13   46 1
    34   14   47 1
    35   15   16 2
    36   15   24 1
    37   16   17 1
    38   16   23 1
    39   17   22 ar
    40   17   18 ar
    41   18   19 ar
    42   18   48 1
    43   19   20 ar
    44   19   49 1
    45   20   21 ar
    46   20   50 1
    47   21   22 ar
    48   21   51 1
    49   22   52 1
    50   24   29 ar
    51   24   25 ar
    52   25   26 ar
    53   25   53 1
    54   26   27 ar
    55   26   54 1
    56   27   28 ar
    57   27   55 1
    58   28   29 ar
    59   28   56 1
    60   29   57 1
@<TRIPOS>MOLECULE
ZINC02558953
   56    57     0     0     0
SMALL
USER_CHARGES
(2R)-2-isopropyl-5-[methyl(phenethyl)amino]-2-phenyl-pentanenitrile
@<TRIPOS>ATOM
      1 C1         -4.0642    2.6148    1.4824 C.3       1 <0>        -0.1856
      2 C2         -3.6866    1.9524    0.1559 C.3       1 <0>        -0.0823
      3 C3         -4.3729    2.6896   -0.9959 C.3       1 <0>        -0.1899
      4 C4         -2.1693    2.0141   -0.0312 C.3       1 <0>         0.0955
      5 C5         -1.4850    1.2276    1.0885 C.3       1 <0>        -0.1074
      6 C6         -1.9456   -0.2307    1.0425 C.3       1 <0>        -0.1604
      7 C7         -1.2613   -1.0173    2.1623 C.3       1 <0>        -0.0063
      8 N1         -1.7035   -2.4174    2.1181 N.4       1 <0>        -0.4021
      9 C8         -3.1333   -2.5282    2.4367 C.3       1 <0>        -0.0564
     10 C9         -0.8974   -3.2528    3.0183 C.3       1 <0>        -0.0037
     11 C10        -1.2136   -4.7281    2.7647 C.3       1 <0>        -0.1007
     12 C11        -0.3867   -5.5851    3.6881 C.ar      1 <0>        -0.1082
     13 C12         0.8602   -6.0281    3.2883 C.ar      1 <0>        -0.1104
     14 C13         1.6208   -6.8102    4.1372 C.ar      1 <0>        -0.1140
     15 C14         1.1304   -7.1576    5.3821 C.ar      1 <0>        -0.1044
     16 C15        -0.1189   -6.7193    5.7797 C.ar      1 <0>        -0.1141
     17 C16        -0.8773   -5.9328    4.9328 C.ar      1 <0>        -0.1104
     18 C17        -1.8112    1.4272   -1.3328 C.1       1 <0>         0.2056
     19 N2         -1.5348    0.9743   -2.3373 N.1       1 <0>        -0.4115
     20 C18        -1.7156    3.4505    0.0141 C.ar      1 <0>        -0.0923
     21 C19        -0.3696    3.7532   -0.0720 C.ar      1 <0>        -0.1079
     22 C20         0.0462    5.0710   -0.0361 C.ar      1 <0>        -0.1157
     23 C21        -0.8837    6.0859    0.0911 C.ar      1 <0>        -0.1052
     24 C22        -2.2293    5.7830    0.1824 C.ar      1 <0>        -0.1187
     25 C23        -2.6451    4.4651    0.1466 C.ar      1 <0>        -0.1331
     26 H1         -3.5708    2.0848    2.3104 H         1 <0>         0.0607
     27 H2         -5.1550    2.5705    1.6169 H         1 <0>         0.0693
     28 H3         -3.7382    3.6654    1.4735 H         1 <0>         0.0941
     29 H4         -4.0126    0.9018    0.1648 H         1 <0>         0.0813
     30 H5         -4.1014    2.2133   -1.9496 H         1 <0>         0.0569
     31 H6         -4.0469    3.7402   -1.0048 H         1 <0>         0.0900
     32 H7         -5.4637    2.6453   -0.8614 H         1 <0>         0.0708
     33 H8         -0.3942    1.2720    0.9540 H         1 <0>         0.0876
     34 H9         -1.7526    1.6662    2.0611 H         1 <0>         0.1042
     35 H10        -3.0364   -0.2751    1.1770 H         1 <0>         0.0981
     36 H11        -1.6779   -0.6693    0.0699 H         1 <0>         0.0870
     37 H12        -0.1705   -0.9729    2.0278 H         1 <0>         0.1324
     38 H13        -1.5290   -0.5788    3.1349 H         1 <0>         0.1319
     39 H14        -3.4371   -3.5846    2.3965 H         1 <0>         0.1260
     40 H15        -3.7177   -1.9505    1.7055 H         1 <0>         0.1254
     41 H16        -3.3156   -2.1324    3.4467 H         1 <0>         0.1220
     42 H17         0.1708   -3.0692    2.8305 H         1 <0>         0.1322
     43 H18        -1.1346   -3.0012    4.0625 H         1 <0>         0.1297
     44 H19        -2.2818   -4.9117    2.9525 H         1 <0>         0.0952
     45 H20        -0.9764   -4.9797    1.7205 H         1 <0>         0.0952
     46 H21         1.2417   -5.7601    2.3141 H         1 <0>         0.1239
     47 H22         2.5967   -7.1529    3.8265 H         1 <0>         0.1294
     48 H23         1.7230   -7.7717    6.0439 H         1 <0>         0.1297
     49 H24        -0.5023   -6.9909    6.7521 H         1 <0>         0.1293
     50 H25        -1.8534   -5.5904    5.2434 H         1 <0>         0.1232
     51 H26         0.3569    2.9603   -0.1716 H         1 <0>         0.1191
     52 H27         1.0975    5.3077   -0.1078 H         1 <0>         0.1270
     53 H28        -0.5589    7.1155    0.1187 H         1 <0>         0.1275
     54 H29        -2.9559    6.5759    0.2814 H         1 <0>         0.1295
     55 H30        -3.6965    4.2284    0.2175 H         1 <0>         0.1683
     56 H31        -1.5561   -2.7861    1.0923 H         1 <0>         0.4429
@<TRIPOS>BOND
     1    1    2 1
     2    1   26 1
     3    1   27 1
     4    1   28 1
     5    2    3 1
     6    2    4 1
     7    2   29 1
     8    3   30 1
     9    3   31 1
    10    3   32 1
    11    4    5 1
    12    4   18 1
    13    4   20 1
    14    5    6 1
    15    5   33 1
    16    5   34 1
    17    6    7 1
    18    6   35 1
    19    6   36 1
    20    7    8 1
    21    7   37 1
    22    7   38 1
    23    8    9 1
    24    8   10 1
    25    8   56 1
    26    9   39 1
    27    9   40 1
    28    9   41 1
    29   10   11 1
    30   10   42 1
    31   10   43 1
    32   11   12 1
    33   11   44 1
    34   11   45 1
    35   12   17 ar
    36   12   13 ar
    37   13   14 ar
    38   13   46 1
    39   14   15 ar
    40   14   47 1
    41   15   16 ar
    42   15   48 1
    43   16   17 ar
    44   16   49 1
    45   17   50 1
    46   18   19 3
    47   20   25 ar
    48   20   21 ar
    49   21   22 ar
    50   21   51 1
    51   22   23 ar
    52   22   52 1
    53   23   24 ar
    54   23   53 1
    55   24   25 ar
    56   24   54 1
    57   25   55 1
@<TRIPOS>MOLECULE
ZINC01692389
   64    66     0     0     0
SMALL
USER_CHARGES

@<TRIPOS>ATOM
      1 C1         -2.4102    1.7121    1.8338 C.3       1 <0>        -0.1868
      2 C2         -2.2056    0.1958    1.8368 C.3       1 <0>        -0.0178
      3 N1         -3.4142   -0.4604    2.3531 N.4       1 <0>        -0.3873
      4 C3         -4.5324   -0.2229    1.4305 C.3       1 <0>        -0.0151
      5 C4         -5.8204   -0.7860    2.0346 C.3       1 <0>        -0.1885
      6 C5         -3.1747   -1.9050    2.4707 C.3       1 <0>        -0.0053
      7 C6         -2.0948   -2.1588    3.5244 C.3       1 <0>         0.0260
      8 O1         -2.5749   -1.7495    4.8066 O.3       1 <0>        -0.3275
      9 C7         -1.7318   -1.9085    5.8606 C.ar      1 <0>         0.1167
     10 C8         -0.4664   -2.4420    5.6638 C.ar      1 <0>        -0.2008
     11 C9          0.3889   -2.6022    6.7368 C.ar      1 <0>        -0.0567
     12 C10        -0.0154   -2.2317    8.0060 C.ar      1 <0>        -0.1235
     13 C11        -1.2763   -1.7001    8.2048 C.ar      1 <0>        -0.0691
     14 C12        -2.1330   -1.5322    7.1342 C.ar      1 <0>        -0.1415
     15 C13         0.9195   -2.4079    9.1748 C.3       1 <0>         0.2313
     16 C14         0.1054   -2.6599   10.4455 C.3       1 <0>        -0.1069
     17 C15        -0.6516   -3.9557   10.3084 C.ar      1 <0>        -0.0857
     18 C16        -1.9697   -3.9450    9.8917 C.ar      1 <0>        -0.1025
     19 C17        -2.6646   -5.1331    9.7658 C.ar      1 <0>        -0.1073
     20 C18        -2.0408   -6.3332   10.0569 C.ar      1 <0>        -0.0347
     21 C19        -0.7216   -6.3432   10.4740 C.ar      1 <0>        -0.1043
     22 C20        -0.0261   -5.1549   10.5941 C.ar      1 <0>        -0.1074
     23 Cl1        -2.9131   -7.8259    9.8996 Cl        1 <0>        -0.0648
     24 C21         1.7479   -1.1610    9.3478 C.ar      1 <0>        -0.0852
     25 C22         1.1389    0.0310    9.6929 C.ar      1 <0>        -0.1049
     26 C23         1.8989    1.1748    9.8517 C.ar      1 <0>        -0.1217
     27 C24         3.2678    1.1264    9.6658 C.ar      1 <0>        -0.0776
     28 C25         3.8769   -0.0658    9.3217 C.ar      1 <0>        -0.1226
     29 C26         3.1175   -1.2105    9.1671 C.ar      1 <0>        -0.0858
     30 C27         4.0961    2.3735    9.8379 C.3       1 <0>        -0.1200
     31 O2          1.7807   -3.5221    8.9320 O.3       1 <0>        -0.5445
     32 H1         -1.4772    2.2041    1.5589 H         1 <0>         0.1065
     33 H2         -3.1847    1.9728    1.1126 H         1 <0>         0.0820
     34 H3         -2.7144    2.0395    2.8280 H         1 <0>         0.0801
     35 H4         -2.0123   -0.1467    0.8202 H         1 <0>         0.1314
     36 H5         -1.3563   -0.0550    2.4723 H         1 <0>         0.1279
     37 H6         -4.6464    0.8485    1.2659 H         1 <0>         0.1332
     38 H7         -4.3305   -0.7171    0.4801 H         1 <0>         0.1302
     39 H8         -5.7493   -1.8721    2.0940 H         1 <0>         0.0804
     40 H9         -5.9622   -0.3759    3.0345 H         1 <0>         0.0807
     41 H10        -6.6671   -0.5111    1.4057 H         1 <0>         0.1067
     42 H11        -4.0973   -2.4031    2.7687 H         1 <0>         0.1439
     43 H12        -2.8438   -2.2979    1.5094 H         1 <0>         0.1492
     44 H13        -1.8538   -3.2215    3.5489 H         1 <0>         0.1088
     45 H14        -1.2004   -1.5891    3.2725 H         1 <0>         0.0860
     46 H15        -0.1503   -2.7322    4.6727 H         1 <0>         0.1270
     47 H16         1.3741   -3.0175    6.5841 H         1 <0>         0.1357
     48 H17        -1.5899   -1.4118    9.1972 H         1 <0>         0.1367
     49 H18        -3.1161   -1.1129    7.2893 H         1 <0>         0.1337
     50 H19         0.7776   -2.7205   11.3015 H         1 <0>         0.0947
     51 H20        -0.5990   -1.8414   10.5940 H         1 <0>         0.0879
     52 H21        -2.4567   -3.0081    9.6648 H         1 <0>         0.1315
     53 H22        -3.6944   -5.1247    9.4406 H         1 <0>         0.1324
     54 H23        -0.2342   -7.2797   10.7017 H         1 <0>         0.1370
     55 H24         1.0051   -5.1629   10.9150 H         1 <0>         0.1390
     56 H25         0.0694    0.0688    9.8381 H         1 <0>         0.1187
     57 H26         1.4230    2.1063   10.1206 H         1 <0>         0.1239
     58 H27         4.9464   -0.1036    9.1761 H         1 <0>         0.1244
     59 H28         3.5938   -2.1428    8.9018 H         1 <0>         0.1334
     60 H29         4.4231    2.4523   10.8748 H         1 <0>         0.0743
     61 H30         4.9675    2.3240    9.1849 H         1 <0>         0.0681
     62 H31         3.4969    3.2464    9.5786 H         1 <0>         0.0670
     63 H32         1.3144   -4.3605    8.8106 H         1 <0>         0.3806
     64 H33        -3.6407   -0.0820    3.2606 H         1 <0>         0.4290
@<TRIPOS>BOND
     1    1    2 1
     2    1   32 1
     3    1   33 1
     4    1   34 1
     5    2    3 1
     6    2   35 1
     7    2   36 1
     8    3    4 1
     9    3    6 1
    10    3   64 1
    11    4    5 1
    12    4   37 1
    13    4   38 1
    14    5   39 1
    15    5   40 1
    16    5   41 1
    17    6    7 1
    18    6   42 1
    19    6   43 1
    20    7    8 1
    21    7   44 1
    22    7   45 1
    23    8    9 1
    24    9   14 ar
    25    9   10 ar
    26   10   11 ar
    27   10   46 1
    28   11   12 ar
    29   11   47 1
    30   12   13 ar
    31   12   15 1
    32   13   14 ar
    33   13   48 1
    34   14   49 1
    35   15   16 1
    36   15   24 1
    37   15   31 1
    38   16   17 1
    39   16   50 1
    40   16   51 1
    41   17   22 ar
    42   17   18 ar
    43   18   19 ar
    44   18   52 1
    45   19   20 ar
    46   19   53 1
    47   20   21 ar
    48   20   23 1
    49   21   22 ar
    50   21   54 1
    51   22   55 1
    52   24   29 ar
    53   24   25 ar
    54   25   26 ar
    55   25   56 1
    56   26   27 ar
    57   26   57 1
    58   27   28 ar
    59   27   30 1
    60   28   29 ar
    61   28   58 1
    62   29   59 1
    63   30   60 1
    64   30   61 1
    65   30   62 1
    66   31   63 1
@<TRIPOS>MOLECULE
ZINC03875502
   64    66     0     0     0
SMALL
USER_CHARGES

@<TRIPOS>ATOM
      1 C1          0.0803    1.4519   -0.2179 C.3       1 <0>        -0.1870
      2 C2          0.0233   -0.0652   -0.0284 C.3       1 <0>        -0.0178
      3 N1         -1.3740   -0.4853    0.1417 N.4       1 <0>        -0.3874
      4 C3         -2.1159   -0.2330   -1.1009 C.3       1 <0>        -0.0150
      5 C4         -3.5996   -0.5332   -0.8788 C.3       1 <0>        -0.1887
      6 C5         -1.4193   -1.9194    0.4565 C.3       1 <0>        -0.0055
      7 C6         -0.7548   -2.1652    1.8126 C.3       1 <0>         0.0260
      8 O1         -1.5180   -1.5285    2.8393 O.3       1 <0>        -0.3276
      9 C7         -1.0611   -1.6506    4.1134 C.ar      1 <0>         0.1158
     10 C8          0.1011   -2.3636    4.3694 C.ar      1 <0>        -0.2018
     11 C9          0.5638   -2.4859    5.6653 C.ar      1 <0>        -0.0569
     12 C10        -0.1306   -1.8987    6.7068 C.ar      1 <0>        -0.1304
     13 C11        -1.2894   -1.1880    6.4543 C.ar      1 <0>        -0.0675
     14 C12        -1.7529   -1.0576    5.1595 C.ar      1 <0>        -0.1401
     15 C13         0.3761   -2.0341    8.1196 C.3       1 <0>         0.2305
     16 C14        -0.0308   -0.8003    8.9278 C.3       1 <0>        -0.1070
     17 C15         0.4759   -0.9357   10.3405 C.ar      1 <0>        -0.0745
     18 C16        -0.3099   -1.5450   11.3010 C.ar      1 <0>        -0.1065
     19 C17         0.1543   -1.6695   12.5969 C.ar      1 <0>        -0.1084
     20 C18         1.4056   -1.1842   12.9328 C.ar      1 <0>        -0.0333
     21 C19         2.1915   -0.5745   11.9712 C.ar      1 <0>        -0.1102
     22 C20         1.7286   -0.4556   10.6743 C.ar      1 <0>        -0.0910
     23 Cl1         1.9891   -1.3396   14.5604 Cl        1 <0>        -0.0679
     24 C21        -0.2188   -3.2666    8.7506 C.ar      1 <0>        -0.0785
     25 C22        -1.4202   -3.1843    9.4294 C.ar      1 <0>        -0.1061
     26 C23        -1.9658   -4.3148   10.0083 C.ar      1 <0>        -0.1244
     27 C24        -1.3103   -5.5277    9.9080 C.ar      1 <0>        -0.0741
     28 C25        -0.1093   -5.6102    9.2284 C.ar      1 <0>        -0.1237
     29 C26         0.4342   -4.4805    8.6459 C.ar      1 <0>        -0.0834
     30 C27        -1.9046   -6.7600   10.5399 C.3       1 <0>        -0.1201
     31 O2          1.8006   -2.1462    8.1060 O.3       1 <0>        -0.5382
     32 H1          1.1205    1.7775   -0.2325 H         1 <0>         0.1066
     33 H2         -0.3970    1.7185   -1.1609 H         1 <0>         0.0820
     34 H3         -0.4419    1.9407    0.6045 H         1 <0>         0.0801
     35 H4          0.4465   -0.5569   -0.9044 H         1 <0>         0.1315
     36 H5          0.5964   -0.3426    0.8563 H         1 <0>         0.1278
     37 H6         -1.9958    0.8110   -1.3902 H         1 <0>         0.1333
     38 H7         -1.7295   -0.8760   -1.8917 H         1 <0>         0.1303
     39 H8         -3.7314   -1.6000   -0.6980 H         1 <0>         0.0804
     40 H9         -3.9590    0.0285   -0.0166 H         1 <0>         0.0808
     41 H10        -4.1656   -0.2421   -1.7637 H         1 <0>         0.1068
     42 H11        -2.4571   -2.2503    0.4952 H         1 <0>         0.1440
     43 H12        -0.8885   -2.4776   -0.3147 H         1 <0>         0.1494
     44 H13        -0.7088   -3.2369    2.0057 H         1 <0>         0.1090
     45 H14         0.2547   -1.7541    1.8023 H         1 <0>         0.0863
     46 H15         0.6435   -2.8230    3.5563 H         1 <0>         0.1279
     47 H16         1.4685   -3.0409    5.8651 H         1 <0>         0.1371
     48 H17        -1.8303   -0.7305    7.2696 H         1 <0>         0.1372
     49 H18        -2.6557   -0.4985    4.9623 H         1 <0>         0.1343
     50 H19         0.3994    0.0911    8.4713 H         1 <0>         0.0844
     51 H20        -1.1174   -0.7149    8.9381 H         1 <0>         0.0882
     52 H21        -1.2868   -1.9236   11.0387 H         1 <0>         0.1385
     53 H22        -0.4598   -2.1452   13.3472 H         1 <0>         0.1321
     54 H23         3.1683   -0.1951   12.2329 H         1 <0>         0.1327
     55 H24         2.3439    0.0160    9.9224 H         1 <0>         0.1271
     56 H25        -1.9323   -2.2367    9.5078 H         1 <0>         0.1242
     57 H26        -2.9041   -4.2504   10.5392 H         1 <0>         0.1248
     58 H27         0.4030   -6.5577    9.1503 H         1 <0>         0.1224
     59 H28         1.3706   -4.5457    8.1118 H         1 <0>         0.1253
     60 H29        -2.5549   -7.2591    9.8215 H         1 <0>         0.0719
     61 H30        -1.1044   -7.4376   10.8376 H         1 <0>         0.0684
     62 H31        -2.4844   -6.4746   11.4177 H         1 <0>         0.0687
     63 H32         2.2512   -1.3862    7.7129 H         1 <0>         0.3784
     64 H33        -1.7931    0.0380    0.8958 H         1 <0>         0.4289
@<TRIPOS>BOND
     1    1    2 1
     2    1   32 1
     3    1   33 1
     4    1   34 1
     5    2    3 1
     6    2   35 1
     7    2   36 1
     8    3    4 1
     9    3    6 1
    10    3   64 1
    11    4    5 1
    12    4   37 1
    13    4   38 1
    14    5   39 1
    15    5   40 1
    16    5   41 1
    17    6    7 1
    18    6   42 1
    19    6   43 1
    20    7    8 1
    21    7   44 1
    22    7   45 1
    23    8    9 1
    24    9   14 ar
    25    9   10 ar
    26   10   11 ar
    27   10   46 1
    28   11   12 ar
    29   11   47 1
    30   12   13 ar
    31   12   15 1
    32   13   14 ar
    33   13   48 1
    34   14   49 1
    35   15   16 1
    36   15   24 1
    37   15   31 1
    38   16   17 1
    39   16   50 1
    40   16   51 1
    41   17   22 ar
    42   17   18 ar
    43   18   19 ar
    44   18   52 1
    45   19   20 ar
    46   19   53 1
    47   20   21 ar
    48   20   23 1
    49   21   22 ar
    50   21   54 1
    51   22   55 1
    52   24   29 ar
    53   24   25 ar
    54   25   26 ar
    55   25   56 1
    56   26   27 ar
    57   26   57 1
    58   27   28 ar
    59   27   30 1
    60   28   29 ar
    61   28   58 1
    62   29   59 1
    63   30   60 1
    64   30   61 1
    65   30   62 1
    66   31   63 1
@<TRIPOS>MOLECULE
ZINC04213659
   56    57     0     0     0
SMALL
USER_CHARGES
2-isopropyl-5-(methyl-phenethyl-amino)-2-phenyl-pentanenitrile
@<TRIPOS>ATOM
      1 C1          2.5258    3.9233   -1.3898 C.3       1 <0>        -0.1887
      2 C2          3.3736    3.6781   -0.1400 C.3       1 <0>        -0.0830
      3 C3          2.6104    4.1580    1.0962 C.3       1 <0>        -0.1804
      4 C4          3.6680    2.1824   -0.0088 C.3       1 <0>         0.0950
      5 C5          4.4151    1.9227    1.3009 C.3       1 <0>        -0.1062
      6 C6          5.7310    2.7034    1.3009 C.3       1 <0>        -0.1616
      7 C7          6.4781    2.4436    2.6105 C.3       1 <0>        -0.0042
      8 C8          8.6558    2.6839    1.5796 C.3       1 <0>        -0.0519
      9 C9          8.3728    3.1609    3.9366 C.3       1 <0>        -0.0016
     10 C10         9.5426    4.1464    3.9686 C.3       1 <0>        -0.1010
     11 C11        10.1903    4.1133    5.3289 C.ar      1 <0>        -0.1090
     12 C12         9.7522    4.9670    6.3240 C.ar      1 <0>        -0.1100
     13 C13        10.3430    4.9333    7.5733 C.ar      1 <0>        -0.1139
     14 C14        11.3786    4.0528    7.8245 C.ar      1 <0>        -0.1041
     15 C15        11.8205    3.2030    6.8277 C.ar      1 <0>        -0.1140
     16 C16        11.2262    3.2331    5.5800 C.ar      1 <0>        -0.1103
     17 C17         4.4984    1.7445   -1.1426 C.1       1 <0>         0.2052
     18 N1          5.1392    1.4065   -2.0176 N.1       1 <0>        -0.4113
     19 C18         2.3720    1.4134   -0.0088 C.ar      1 <0>        -0.0919
     20 C19         1.1667    2.0903   -0.0050 C.ar      1 <0>        -0.1335
     21 C20        -0.0222    1.3849   -0.0060 C.ar      1 <0>        -0.1187
     22 C21        -0.0057    0.0027   -0.0088 C.ar      1 <0>        -0.1054
     23 C22         1.1996   -0.6742   -0.0107 C.ar      1 <0>        -0.1154
     24 C23         2.3884    0.0312   -0.0107 C.ar      1 <0>        -0.1082
     25 H1          1.5534    3.4460   -1.2686 H         1 <0>         0.0921
     26 H2          2.3892    4.9954   -1.5316 H         1 <0>         0.0686
     27 H3          3.0308    3.5031   -2.2596 H         1 <0>         0.0563
     28 H4          4.3115    4.2270   -0.2237 H         1 <0>         0.0812
     29 H5          3.1757    3.9049    1.9931 H         1 <0>         0.0626
     30 H6          2.4766    5.2385    1.0438 H         1 <0>         0.0693
     31 H7          1.6352    3.6725    1.1323 H         1 <0>         0.0892
     32 H8          3.8003    2.2469    2.1404 H         1 <0>         0.1050
     33 H9          4.6249    0.8571    1.3943 H         1 <0>         0.0867
     34 H10         6.3458    2.3791    0.4613 H         1 <0>         0.0868
     35 H11         5.5212    3.7689    1.2074 H         1 <0>         0.0974
     36 H12         5.8632    2.7679    3.4501 H         1 <0>         0.1335
     37 H13         6.6878    1.3781    2.7040 H         1 <0>         0.1330
     38 H14         8.1899    2.7841    0.5993 H         1 <0>         0.1220
     39 H15         9.5830    3.2564    1.6015 H         1 <0>         0.1245
     40 H16         8.8727    1.6334    1.7732 H         1 <0>         0.1250
     41 H17         7.6409    3.4409    4.6943 H         1 <0>         0.1313
     42 H18         8.7395    2.1548    4.1399 H         1 <0>         0.1328
     43 H19        10.2744    3.8664    3.2109 H         1 <0>         0.0946
     44 H20         9.1758    5.1525    3.7652 H         1 <0>         0.0945
     45 H21         8.9458    5.6578    6.1265 H         1 <0>         0.1242
     46 H22         9.9980    5.5974    8.3519 H         1 <0>         0.1296
     47 H23        11.8427    4.0290    8.7994 H         1 <0>         0.1298
     48 H24        12.6298    2.5153    7.0239 H         1 <0>         0.1294
     49 H25        11.5714    2.5692    4.8013 H         1 <0>         0.1234
     50 H26         1.1538    3.1702   -0.0031 H         1 <0>         0.1689
     51 H27        -0.9638    1.9138   -0.0090 H         1 <0>         0.1294
     52 H28        -0.9345   -0.5484   -0.0092 H         1 <0>         0.1274
     53 H29         1.2124   -1.7541   -0.0126 H         1 <0>         0.1268
     54 H30         3.3301   -0.4976   -0.0126 H         1 <0>         0.1178
     55 N2          7.7355    3.2206    2.6042 N.4       1 <0>        -0.3972
     56 H31         7.5215    4.1995    2.3804 H         1 <0>         0.4286
@<TRIPOS>BOND
     1    1    2 1
     2    1   25 1
     3    1   26 1
     4    1   27 1
     5    2    3 1
     6    2    4 1
     7    2   28 1
     8    3   29 1
     9    3   30 1
    10    3   31 1
    11    4    5 1
    12    4   17 1
    13    4   19 1
    14    5    6 1
    15    5   32 1
    16    5   33 1
    17    6    7 1
    18    6   34 1
    19    6   35 1
    20    7   36 1
    21    7   37 1
    22    7   55 1
    23    8   38 1
    24    8   39 1
    25    8   40 1
    26    8   55 1
    27    9   10 1
    28    9   41 1
    29    9   42 1
    30    9   55 1
    31   10   11 1
    32   10   43 1
    33   10   44 1
    34   11   16 ar
    35   11   12 ar
    36   12   13 ar
    37   12   45 1
    38   13   14 ar
    39   13   46 1
    40   14   15 ar
    41   14   47 1
    42   15   16 ar
    43   15   48 1
    44   16   49 1
    45   17   18 3
    46   19   24 ar
    47   19   20 ar
    48   20   21 ar
    49   20   50 1
    50   21   22 ar
    51   21   51 1
    52   22   23 ar
    53   22   52 1
    54   23   24 ar
    55   23   53 1
    56   24   54 1
    57   55   56 1
@<TRIPOS>MOLECULE
ZINC00005191
   48    49     0     0     0
SMALL
USER_CHARGES

@<TRIPOS>ATOM
      1 C1         -0.0173    1.4248    0.0099 C.3       1 <0>         0.0211
      2 O1          0.0021   -0.0041    0.0020 O.3       1 <0>        -0.3031
      3 C2         -1.1983   -0.6364    0.0101 C.ar      1 <0>         0.2472
      4 C3         -2.3708    0.1089    0.0196 C.ar      1 <0>        -0.3506
      5 C4         -3.5983   -0.5259    0.0283 C.ar      1 <0>         0.2625
      6 C5         -3.6581   -1.9322    0.0271 C.ar      1 <0>        -0.2834
      7 C6         -2.4646   -2.6783    0.0170 C.ar      1 <0>         0.2464
      8 C7         -1.2469   -2.0249    0.0031 C.ar      1 <0>        -0.2929
      9 O2         -2.5095   -4.0337    0.0157 O.3       1 <0>        -0.3044
     10 C8         -1.2584   -4.7242    0.0052 C.3       1 <0>         0.0159
     11 C9         -4.9511   -2.6133    0.0367 C.2       1 <0>         0.4089
     12 O3         -5.9779   -1.9662    0.0458 O.2       1 <0>        -0.4515
     13 C10        -5.0095   -4.1192    0.0354 C.3       1 <0>        -0.1502
     14 C11        -6.4706   -4.5729    0.0467 C.3       1 <0>        -0.1409
     15 C12        -6.5299   -6.1018    0.0453 C.3       1 <0>        -0.0045
     16 N1         -7.9328   -6.5374    0.0561 N.4       1 <0>        -0.3948
     17 C13        -8.5832   -6.2023   -1.2365 C.3       1 <0>        -0.0075
     18 C14        -9.7861   -7.1772   -1.2914 C.3       1 <0>        -0.1460
     19 C15        -9.2120   -8.4700   -0.6676 C.3       1 <0>        -0.1454
     20 C16        -8.0087   -8.0096    0.1760 C.3       1 <0>        -0.0083
     21 O4         -4.7415    0.2036    0.0384 O.3       1 <0>        -0.2783
     22 C17        -4.6034    1.6259    0.0395 C.3       1 <0>         0.0180
     23 H1          1.0053    1.8021    0.0021 H         1 <0>         0.1109
     24 H2         -0.5445    1.7859   -0.8732 H         1 <0>         0.0626
     25 H3         -0.5275    1.7763    0.9067 H         1 <0>         0.0626
     26 H4         -2.3228    1.1878    0.0205 H         1 <0>         0.1458
     27 H5         -0.3300   -2.5955   -0.0087 H         1 <0>         0.1475
     28 H6         -1.4369   -5.7995    0.0053 H         1 <0>         0.1075
     29 H7         -0.6989   -4.4489   -0.8888 H         1 <0>         0.0661
     30 H8         -0.6852   -4.4510    0.8911 H         1 <0>         0.0662
     31 H9         -4.5173   -4.5011   -0.8591 H         1 <0>         0.1100
     32 H10        -4.5029   -4.5033    0.9208 H         1 <0>         0.1103
     33 H11        -6.9627   -4.1910    0.9411 H         1 <0>         0.0906
     34 H12        -6.9772   -4.1889   -0.8388 H         1 <0>         0.0905
     35 H13        -6.0378   -6.4837   -0.8492 H         1 <0>         0.1295
     36 H14        -6.0233   -6.4858    0.9308 H         1 <0>         0.1302
     37 H15        -8.9262   -5.1677   -1.2377 H         1 <0>         0.1360
     38 H16        -7.9024   -6.3840   -2.0682 H         1 <0>         0.1334
     39 H17       -10.6173   -6.7982   -0.6968 H         1 <0>         0.0977
     40 H18       -10.0953   -7.3507   -2.3221 H         1 <0>         0.1159
     41 H19        -9.9584   -8.9476   -0.0328 H         1 <0>         0.1043
     42 H20        -8.8855   -9.1550   -1.4500 H         1 <0>         0.1030
     43 H21        -7.0931   -8.4610   -0.2060 H         1 <0>         0.1301
     44 H22        -8.1572   -8.2901    1.2188 H         1 <0>         0.1312
     45 H23        -4.0499    1.9366    0.9256 H         1 <0>         0.0615
     46 H24        -4.0639    1.9393   -0.8543 H         1 <0>         0.0615
     47 H25        -5.5911    2.0869    0.0480 H         1 <0>         0.1101
     48 H26        -8.4274   -6.1002    0.8192 H         1 <0>         0.4271
@<TRIPOS>BOND
     1    1    2 1
     2    1   23 1
     3    1   24 1
     4    1   25 1
     5    2    3 1
     6    3    8 ar
     7    3    4 ar
     8    4    5 ar
     9    4   26 1
    10    5    6 ar
    11    5   21 1
    12    6    7 ar
    13    6   11 1
    14    7    8 ar
    15    7    9 1
    16    8   27 1
    17    9   10 1
    18   10   28 1
    19   10   29 1
    20   10   30 1
    21   11   12 2
    22   11   13 1
    23   13   14 1
    24   13   31 1
    25   13   32 1
    26   14   15 1
    27   14   33 1
    28   14   34 1
    29   15   16 1
    30   15   35 1
    31   15   36 1
    32   16   20 1
    33   16   17 1
    34   16   48 1
    35   17   18 1
    36   17   37 1
    37   17   38 1
    38   18   19 1
    39   18   39 1
    40   18   40 1
    41   19   20 1
    42   19   41 1
    43   19   42 1
    44   20   43 1
    45   20   44 1
    46   21   22 1
    47   22   45 1
    48   22   46 1
    49   22   47 1
@<TRIPOS>MOLECULE
ZINC13648120
   82    83     0     0     0
SMALL
USER_CHARGES
N-[2-[4-[(E)-2-[4-(2-diethylaminoethoxy)phenyl]-1-ethyl-but-1-enyl]phenoxy]ethyl]-N-ethyl-ethanamine
@<TRIPOS>ATOM
      1 C1         -1.2596    1.4039    0.2163 C.3       1 <0>        -0.1434
      2 C2         -2.6370    0.7701    0.0116 C.3       1 <0>        -0.0882
      3 C3         -2.5130   -0.7307    0.0689 C.2       1 <0>        -0.0723
      4 C4         -2.7413   -1.3798    1.2222 C.2       1 <0>        -0.0723
      5 C5         -2.4960   -2.8640    1.3129 C.3       1 <0>        -0.0882
      6 C6         -3.8024   -3.6141    1.0456 C.3       1 <0>        -0.1451
      7 C7         -3.2317   -0.6409    2.3989 C.ar      1 <0>        -0.0595
      8 C8         -2.4160   -0.4938    3.5244 C.ar      1 <0>        -0.0671
      9 C9         -2.8773    0.2023    4.6207 C.ar      1 <0>        -0.1987
     10 C10        -4.1543    0.7484    4.6123 C.ar      1 <0>         0.1150
     11 C11        -4.9707    0.5999    3.4985 C.ar      1 <0>        -0.1381
     12 C12        -4.5163   -0.0899    2.3954 C.ar      1 <0>        -0.0661
     13 O1         -4.6065    1.4298    5.6973 O.3       1 <0>        -0.3281
     14 C13        -3.7156    1.5450    6.8086 C.3       1 <0>         0.0260
     15 C14        -4.3947    2.3387    7.9265 C.3       1 <0>        -0.0017
     16 C15        -5.1202    0.3450    9.0932 C.3       1 <0>        -0.0161
     17 C16        -4.3043    0.6898   10.3407 C.3       1 <0>        -0.1869
     18 C17        -6.3637    2.4086    9.3339 C.3       1 <0>        -0.0116
     19 C18        -7.6803    1.6890    9.6336 C.3       1 <0>        -0.1884
     20 C19        -2.1412   -1.4859   -1.1404 C.ar      1 <0>        -0.0590
     21 C20        -0.8943   -2.1127   -1.2199 C.ar      1 <0>        -0.0677
     22 C21        -0.5530   -2.8219   -2.3510 C.ar      1 <0>        -0.1995
     23 C22        -1.4416   -2.9059   -3.4152 C.ar      1 <0>         0.1145
     24 C23        -2.6795   -2.2801   -3.3432 C.ar      1 <0>        -0.1368
     25 C24        -3.0319   -1.5730   -2.2141 C.ar      1 <0>        -0.0663
     26 O2         -1.0988   -3.6023   -4.5303 O.3       1 <0>        -0.3280
     27 C25         0.1891   -4.2214   -4.5381 C.3       1 <0>         0.0262
     28 C26         0.3949   -4.9537   -5.8656 C.3       1 <0>        -0.0018
     29 C27         1.6035   -3.1058   -6.8592 C.3       1 <0>        -0.0158
     30 C28         2.8736   -3.9586   -6.8829 C.3       1 <0>        -0.1873
     31 C29         0.3839   -4.6519   -8.2680 C.3       1 <0>        -0.0123
     32 C30         0.0230   -3.6371   -9.3547 C.3       1 <0>        -0.1889
     33 H1         -1.3618    2.4881    0.2628 H         1 <0>         0.0597
     34 H2         -0.8268    1.0395    1.1480 H         1 <0>         0.0539
     35 H3         -0.6089    1.1356   -0.6160 H         1 <0>         0.0542
     36 H4         -3.0319    1.0652   -0.9605 H         1 <0>         0.0706
     37 H5         -3.3132    1.1090    0.7965 H         1 <0>         0.0765
     38 H6         -1.7516   -3.1551    0.5718 H         1 <0>         0.0761
     39 H7         -2.1322   -3.1118    2.3101 H         1 <0>         0.0700
     40 H8         -4.1213   -3.4340    0.0190 H         1 <0>         0.0552
     41 H9         -3.6451   -4.6823    1.1951 H         1 <0>         0.0583
     42 H10        -4.5715   -3.2605    1.7323 H         1 <0>         0.0553
     43 H11        -1.4244   -0.9216    3.5334 H         1 <0>         0.1298
     44 H12        -2.2462    0.3200    5.4892 H         1 <0>         0.1285
     45 H13        -5.9631    1.0261    3.4967 H         1 <0>         0.1351
     46 H14        -5.1516   -0.2042    1.5295 H         1 <0>         0.1352
     47 H15        -3.4590    0.5504    7.1733 H         1 <0>         0.0862
     48 H16        -2.8087    2.0622    6.4951 H         1 <0>         0.1085
     49 H17        -3.6856    2.5031    8.7378 H         1 <0>         0.1516
     50 H18        -4.7307    3.2999    7.5373 H         1 <0>         0.1415
     51 H19        -5.9966   -0.2356    9.3812 H         1 <0>         0.1322
     52 H20        -4.5065   -0.2395    8.4077 H         1 <0>         0.1250
     53 H21        -3.4769    1.3435   10.0645 H         1 <0>         0.0784
     54 H22        -4.9428    1.1976   11.0636 H         1 <0>         0.0838
     55 H23        -3.9118   -0.2260   10.7827 H         1 <0>         0.1070
     56 H24        -5.8201    2.5740   10.2640 H         1 <0>         0.1338
     57 H25        -6.5735    3.3675    8.8601 H         1 <0>         0.1297
     58 H26        -8.1704    1.4230    8.6971 H         1 <0>         0.0796
     59 H27        -7.4776    0.7846   10.2073 H         1 <0>         0.0804
     60 H28        -8.3307    2.3468   10.2101 H         1 <0>         0.1073
     61 H29        -0.2010   -2.0444   -0.3946 H         1 <0>         0.1300
     62 H30         0.4085   -3.3099   -2.4118 H         1 <0>         0.1284
     63 H31        -3.3670   -2.3479   -4.1733 H         1 <0>         0.1349
     64 H32        -3.9949   -1.0873   -2.1588 H         1 <0>         0.1353
     65 H33         0.9594   -3.4593   -4.4204 H         1 <0>         0.0860
     66 H34         0.2546   -4.9342   -3.7161 H         1 <0>         0.1081
     67 H35         1.3382   -5.4991   -5.8374 H         1 <0>         0.1520
     68 H36        -0.4250   -5.6540   -6.0252 H         1 <0>         0.1411
     69 H37         1.6166   -2.4112   -7.6990 H         1 <0>         0.1323
     70 H38         1.5593   -2.5458   -5.9251 H         1 <0>         0.1252
     71 H39         3.7476   -3.3080   -6.9143 H         1 <0>         0.1075
     72 H40         2.9129   -4.5768   -5.9860 H         1 <0>         0.0795
     73 H41         2.8651   -4.5986   -7.7652 H         1 <0>         0.0825
     74 H42         1.3604   -5.0848   -8.4851 H         1 <0>         0.1335
     75 H43        -0.3668   -5.4418   -8.2448 H         1 <0>         0.1303
     76 H44        -0.9574   -3.2106   -9.1424 H         1 <0>         0.0807
     77 H45         0.7689   -2.8425   -9.3720 H         1 <0>         0.0793
     78 H46         0.0003   -4.1353  -10.3239 H         1 <0>         0.1078
     79 N1         -5.5659    1.5768    8.4085 N.4       1 <0>        -0.3968
     80 H47        -6.1498    1.3187    7.6044 H         1 <0>         0.4348
     81 N2          0.4027   -3.9615   -6.9612 N.4       1 <0>        -0.3970
     82 H48        -0.4344   -3.3721   -6.8834 H         1 <0>         0.4350
@<TRIPOS>BOND
     1    1    2 1
     2    1   33 1
     3    1   34 1
     4    1   35 1
     5    2    3 1
     6    2   36 1
     7    2   37 1
     8    3    4 2
     9    3   20 1
    10    4    5 1
    11    4    7 1
    12    5    6 1
    13    5   38 1
    14    5   39 1
    15    6   40 1
    16    6   41 1
    17    6   42 1
    18    7   12 ar
    19    7    8 ar
    20    8    9 ar
    21    8   43 1
    22    9   10 ar
    23    9   44 1
    24   10   11 ar
    25   10   13 1
    26   11   12 ar
    27   11   45 1
    28   12   46 1
    29   13   14 1
    30   14   15 1
    31   14   47 1
    32   14   48 1
    33   15   49 1
    34   15   50 1
    35   15   79 1
    36   16   17 1
    37   16   51 1
    38   16   52 1
    39   16   79 1
    40   17   53 1
    41   17   54 1
    42   17   55 1
    43   18   19 1
    44   18   56 1
    45   18   57 1
    46   18   79 1
    47   19   58 1
    48   19   59 1
    49   19   60 1
    50   20   25 ar
    51   20   21 ar
    52   21   22 ar
    53   21   61 1
    54   22   23 ar
    55   22   62 1
    56   23   24 ar
    57   23   26 1
    58   24   25 ar
    59   24   63 1
    60   25   64 1
    61   26   27 1
    62   27   28 1
    63   27   65 1
    64   27   66 1
    65   28   67 1
    66   28   68 1
    67   28   81 1
    68   29   30 1
    69   29   69 1
    70   29   70 1
    71   29   81 1
    72   30   71 1
    73   30   72 1
    74   30   73 1
    75   31   32 1
    76   31   74 1
    77   31   75 1
    78   31   81 1
    79   32   76 1
    80   32   77 1
    81   32   78 1
    82   79   80 1
    83   81   82 1
@<TRIPOS>MOLECULE
ZINC00598622
   60    61     0     0     0
SMALL
USER_CHARGES
N-[2-(4-methoxy-3-phenethyloxy-phenyl)ethyl]-N-propyl-propan-1-amine
@<TRIPOS>ATOM
      1 C1         -3.4939    6.6424   -4.5066 C.3       1 <0>        -0.1560
      2 C2         -3.3375    6.2721   -3.0303 C.3       1 <0>        -0.1508
      3 C3         -4.2485    5.0874   -2.7024 C.3       1 <0>        -0.0100
      4 C4         -5.3530    4.0242   -0.8283 C.3       1 <0>        -0.0130
      5 C5         -6.5985    4.9127   -0.8405 C.3       1 <0>        -0.1509
      6 C6         -7.8149    4.0918   -0.4078 C.3       1 <0>        -0.1561
      7 C7         -2.9353    4.1266   -0.9093 C.3       1 <0>        -0.0051
      8 C8         -2.7933    4.0750    0.6132 C.3       1 <0>        -0.0956
      9 C9         -1.5079    3.3764    0.9745 C.ar      1 <0>        -0.1071
     10 C10        -1.4944    2.0055    1.1528 C.ar      1 <0>        -0.1034
     11 C11        -0.3189    1.3606    1.4895 C.ar      1 <0>        -0.1713
     12 C12         0.8516    2.0871    1.6386 C.ar      1 <0>         0.1175
     13 C13         0.8392    3.4663    1.4539 C.ar      1 <0>         0.1111
     14 C14        -0.3436    4.1071    1.1217 C.ar      1 <0>        -0.1662
     15 O1          1.9855    4.1836    1.5987 O.3       1 <0>        -0.2990
     16 C15         1.8977    5.5951    1.3940 C.3       1 <0>         0.0671
     17 C16         3.2762    6.2268    1.5986 C.3       1 <0>        -0.0799
     18 C17         3.1836    7.7153    1.3828 C.ar      1 <0>        -0.0891
     19 C18         3.3896    8.2452    0.1227 C.ar      1 <0>        -0.1147
     20 C19         3.2995    9.6102   -0.0763 C.ar      1 <0>        -0.1181
     21 C20         3.0142   10.4463    0.9869 C.ar      1 <0>        -0.1174
     22 C21         2.8139    9.9170    2.2481 C.ar      1 <0>        -0.1168
     23 C22         2.8984    8.5515    2.4460 C.ar      1 <0>        -0.1134
     24 O2          2.0101    1.4535    1.9642 O.3       1 <0>        -0.3010
     25 C23         1.9479    0.0365    2.1378 C.3       1 <0>         0.0229
     26 H1         -2.8450    7.4864   -4.7402 H         1 <0>         0.0770
     27 H2         -3.2179    5.7893   -5.1264 H         1 <0>         0.0671
     28 H3         -4.5304    6.9152   -4.7048 H         1 <0>         0.0668
     29 H4         -3.6136    7.1252   -2.4105 H         1 <0>         0.0845
     30 H5         -2.3010    5.9992   -2.8320 H         1 <0>         0.0852
     31 H6         -3.9169    4.2096   -3.2571 H         1 <0>         0.1313
     32 H7         -5.2737    5.3287   -2.9831 H         1 <0>         0.1305
     33 H8         -5.4991    3.1844   -1.5077 H         1 <0>         0.1315
     34 H9         -5.1838    3.6496    0.1812 H         1 <0>         0.1312
     35 H10        -6.4578    5.7450   -0.1508 H         1 <0>         0.0856
     36 H11        -6.7599    5.2984   -1.8471 H         1 <0>         0.0846
     37 H12        -8.7022    4.7248   -0.4165 H         1 <0>         0.0771
     38 H13        -7.9556    3.2595   -1.0975 H         1 <0>         0.0668
     39 H14        -7.6536    3.7061    0.5989 H         1 <0>         0.0672
     40 H15        -2.0931    4.6726   -1.3345 H         1 <0>         0.1301
     41 H16        -2.9488    3.1120   -1.3076 H         1 <0>         0.1334
     42 H17        -3.6355    3.5290    1.0383 H         1 <0>         0.0954
     43 H18        -2.7798    5.0896    1.0114 H         1 <0>         0.0930
     44 H19        -2.4052    1.4376    1.0329 H         1 <0>         0.1284
     45 H20        -0.3119    0.2901    1.6319 H         1 <0>         0.1419
     46 H21        -0.3559    5.1773    0.9775 H         1 <0>         0.1357
     47 H22         1.5538    5.7944    0.3791 H         1 <0>         0.0617
     48 H23         1.1928    6.0225    2.1071 H         1 <0>         0.0639
     49 H24         3.6201    6.0275    2.6136 H         1 <0>         0.0874
     50 H25         3.9811    5.7994    0.8856 H         1 <0>         0.0868
     51 H26         3.6168    7.5923   -0.7070 H         1 <0>         0.1224
     52 H27         3.4556   10.0237   -1.0617 H         1 <0>         0.1244
     53 H28         2.9475   11.5131    0.8322 H         1 <0>         0.1245
     54 H29         2.5910   10.5703    3.0788 H         1 <0>         0.1252
     55 H30         2.7419    8.1380    3.4313 H         1 <0>         0.1235
     56 H31         2.9374   -0.3419    2.3945 H         1 <0>         0.1076
     57 H32         1.2488   -0.2010    2.9396 H         1 <0>         0.0589
     58 H33         1.6101   -0.4285    1.2116 H         1 <0>         0.0581
     59 N1         -4.1889    4.8327   -1.2476 N.4       1 <0>        -0.3973
     60 H34        -4.2103    5.7309   -0.7506 H         1 <0>         0.4251
@<TRIPOS>BOND
     1    1    2 1
     2    1   26 1
     3    1   27 1
     4    1   28 1
     5    2    3 1
     6    2   29 1
     7    2   30 1
     8    3   31 1
     9    3   32 1
    10    3   59 1
    11    4    5 1
    12    4   33 1
    13    4   34 1
    14    4   59 1
    15    5    6 1
    16    5   35 1
    17    5   36 1
    18    6   37 1
    19    6   38 1
    20    6   39 1
    21    7    8 1
    22    7   40 1
    23    7   41 1
    24    7   59 1
    25    8    9 1
    26    8   42 1
    27    8   43 1
    28    9   14 ar
    29    9   10 ar
    30   10   11 ar
    31   10   44 1
    32   11   12 ar
    33   11   45 1
    34   12   13 ar
    35   12   24 1
    36   13   14 ar
    37   13   15 1
    38   14   46 1
    39   15   16 1
    40   16   17 1
    41   16   47 1
    42   16   48 1
    43   17   18 1
    44   17   49 1
    45   17   50 1
    46   18   23 ar
    47   18   19 ar
    48   19   20 ar
    49   19   51 1
    50   20   21 ar
    51   20   52 1
    52   21   22 ar
    53   21   53 1
    54   22   23 ar
    55   22   54 1
    56   23   55 1
    57   24   25 1
    58   25   56 1
    59   25   57 1
    60   25   58 1
    61   59   60 1
@<TRIPOS>MOLECULE
ZINC00538045
   64    68     0     0     0
SMALL
USER_CHARGES
1-[2-[4-(6-methoxy-2-phenyl-3,4-dihydronaphthalen-1-yl)phenoxy]ethyl]pyrrolidine
@<TRIPOS>ATOM
      1 C1          3.0367   -2.5290    5.2273 C.3       1 <0>         0.0260
      2 O1          4.0511   -2.1419    4.2982 O.3       1 <0>        -0.3143
      3 C2          3.6680   -1.3552    3.2590 C.ar      1 <0>         0.1397
      4 C3          2.3402   -0.9653    3.1394 C.ar      1 <0>        -0.2124
      5 C4          1.9449   -0.1726    2.0824 C.ar      1 <0>        -0.0645
      6 C5          2.8832    0.2356    1.1355 C.ar      1 <0>        -0.0841
      7 C6          4.2159   -0.1523    1.2638 C.ar      1 <0>        -0.0285
      8 C7          4.5999   -0.9541    2.3167 C.ar      1 <0>        -0.1485
      9 C8          5.2298    0.3178    0.2543 C.3       1 <0>        -0.0819
     10 C9          4.5965    0.4023   -1.1318 C.3       1 <0>        -0.0783
     11 C10         3.3074    1.1765   -1.0834 C.2       1 <0>        -0.0588
     12 C11         2.4788    1.0718   -0.0158 C.2       1 <0>        -0.0375
     13 C12         1.1862    1.7911    0.0004 C.ar      1 <0>        -0.0471
     14 C13        -0.0126    1.0758    0.0080 C.ar      1 <0>        -0.0716
     15 C14        -1.2150    1.7496    0.0173 C.ar      1 <0>        -0.2001
     16 C15        -1.2348    3.1382    0.0297 C.ar      1 <0>         0.1113
     17 C16        -0.0443    3.8534    0.0222 C.ar      1 <0>        -0.1359
     18 C17         1.1621    3.1868    0.0076 C.ar      1 <0>        -0.0556
     19 O2         -2.4219    3.7988    0.0442 O.3       1 <0>        -0.3270
     20 C18        -3.6079    3.0016    0.0512 C.3       1 <0>         0.0268
     21 C19        -4.8358    3.9143    0.0673 C.3       1 <0>         0.0089
     22 C20        -4.8058    3.7847   -2.3638 C.3       1 <0>        -0.0118
     23 C21        -5.3948    4.6469   -3.5085 C.3       1 <0>        -0.1463
     24 C22        -6.5397    5.4148   -2.8089 C.3       1 <0>        -0.1468
     25 C23        -6.1812    5.3947   -1.3114 C.3       1 <0>        -0.0106
     26 C24         2.9432    2.0554   -2.2046 C.ar      1 <0>        -0.0448
     27 C25         1.8208    1.7670   -2.9883 C.ar      1 <0>        -0.1002
     28 C26         1.4829    2.5991   -4.0345 C.ar      1 <0>        -0.1204
     29 C27         2.2569    3.7113   -4.3168 C.ar      1 <0>        -0.1184
     30 C28         3.3722    4.0004   -3.5498 C.ar      1 <0>        -0.1159
     31 C29         3.7205    3.1813   -2.4969 C.ar      1 <0>        -0.1061
     32 H1          2.2611   -3.0898    4.7057 H         1 <0>         0.0566
     33 H2          3.4758   -3.1535    6.0053 H         1 <0>         0.1039
     34 H3          2.5995   -1.6388    5.6795 H         1 <0>         0.0565
     35 H4          1.6165   -1.2831    3.8754 H         1 <0>         0.1297
     36 H5          0.9126    0.1305    1.9883 H         1 <0>         0.1251
     37 H6          5.6312   -1.2593    2.4153 H         1 <0>         0.1357
     38 H7          6.0643   -0.3829    0.2278 H         1 <0>         0.0878
     39 H8          5.5948    1.3029    0.5449 H         1 <0>         0.0841
     40 H9          4.3965   -0.6051   -1.4968 H         1 <0>         0.0837
     41 H10         5.2883    0.8994   -1.8118 H         1 <0>         0.0841
     42 H11         0.0021   -0.0041    0.0020 H         1 <0>         0.1308
     43 H12        -2.1429    1.1970    0.0187 H         1 <0>         0.1269
     44 H13        -0.0638    4.9332    0.0275 H         1 <0>         0.1320
     45 H14         2.0875    3.7436    0.0014 H         1 <0>         0.1328
     46 H15        -3.6311    2.3770   -0.8417 H         1 <0>         0.0858
     47 H16        -3.6145    2.3680    0.9381 H         1 <0>         0.1075
     48 H17        -5.7372    3.3089    0.1622 H         1 <0>         0.1463
     49 H18        -4.7679    4.5999    0.9120 H         1 <0>         0.1421
     50 H19        -3.7687    3.5231   -2.5738 H         1 <0>         0.1356
     51 H20        -5.4061    2.8881   -2.2095 H         1 <0>         0.1333
     52 H21        -5.7853    4.0146   -4.3059 H         1 <0>         0.1160
     53 H22        -4.6462    5.3385   -3.8949 H         1 <0>         0.0985
     54 H23        -7.4914    4.9105   -2.9769 H         1 <0>         0.1034
     55 H24        -6.5849    6.4410   -3.1734 H         1 <0>         0.1052
     56 H25        -6.9537    4.8672   -0.7517 H         1 <0>         0.1312
     57 H26        -6.0807    6.4145   -0.9400 H         1 <0>         0.1339
     58 H27         1.2184    0.8971   -2.7720 H         1 <0>         0.1175
     59 H28         0.6146    2.3799   -4.6382 H         1 <0>         0.1183
     60 H29         1.9894    4.3568   -5.1403 H         1 <0>         0.1205
     61 H30         3.9710    4.8701   -3.7765 H         1 <0>         0.1245
     62 H31         4.5912    3.4080   -1.8995 H         1 <0>         0.1244
     63 N1         -4.9028    4.6898   -1.2078 N.4       1 <0>        -0.3958
     64 H32        -4.1309    5.3664   -1.2313 H         1 <0>         0.4366
@<TRIPOS>BOND
     1    1    2 1
     2    1   32 1
     3    1   33 1
     4    1   34 1
     5    2    3 1
     6    3    8 ar
     7    3    4 ar
     8    4    5 ar
     9    4   35 1
    10    5    6 ar
    11    5   36 1
    12    6   12 1
    13    6    7 ar
    14    7    8 ar
    15    7    9 1
    16    8   37 1
    17    9   10 1
    18    9   38 1
    19    9   39 1
    20   10   11 1
    21   10   40 1
    22   10   41 1
    23   11   12 2
    24   11   26 1
    25   12   13 1
    26   13   18 ar
    27   13   14 ar
    28   14   15 ar
    29   14   42 1
    30   15   16 ar
    31   15   43 1
    32   16   17 ar
    33   16   19 1
    34   17   18 ar
    35   17   44 1
    36   18   45 1
    37   19   20 1
    38   20   21 1
    39   20   46 1
    40   20   47 1
    41   21   48 1
    42   21   49 1
    43   21   63 1
    44   22   23 1
    45   22   50 1
    46   22   51 1
    47   22   63 1
    48   23   24 1
    49   23   52 1
    50   23   53 1
    51   24   25 1
    52   24   54 1
    53   24   55 1
    54   25   56 1
    55   25   57 1
    56   25   63 1
    57   26   31 ar
    58   26   27 ar
    59   27   28 ar
    60   27   58 1
    61   28   29 ar
    62   28   59 1
    63   29   30 ar
    64   29   60 1
    65   30   31 ar
    66   30   61 1
    67   31   62 1
    68   63   64 1
@<TRIPOS>MOLECULE
ZINC00056526
   36    37     0     0     0
SMALL
USER_CHARGES

@<TRIPOS>ATOM
      1 C1          2.5037    1.7126    3.2140 C.3       1 <0>        -0.1237
      2 C2          1.1585    2.2578    2.8086 C.ar      1 <0>        -0.0710
      3 C3          0.9379    3.6213    2.8044 C.ar      1 <0>        -0.1067
      4 C4         -0.2961    4.1223    2.4330 C.ar      1 <0>        -0.0798
      5 C5         -1.3133    3.2607    2.0647 C.ar      1 <0>        -0.1093
      6 C6         -1.0991    1.8965    2.0664 C.ar      1 <0>        -0.0914
      7 C7          0.1412    1.3902    2.4334 C.ar      1 <0>         0.0607
      8 N1          0.3631    0.0092    2.4310 N.pl3     1 <0>        -0.6353
      9 C8          0.4090   -0.6826    3.6204 C.cat     1 <0>         0.7405
     10 N2          0.7150   -1.9495    3.6259 N.pl3     1 <0>        -0.7671
     11 N3          0.1317   -0.0363    4.8039 N.pl3     1 <0>        -0.6291
     12 C9          0.1332   -0.7493    6.0072 C.ar      1 <0>         0.0596
     13 C10         1.1662   -0.5736    6.9191 C.ar      1 <0>        -0.0907
     14 C11         1.1645   -1.2787    8.1063 C.ar      1 <0>        -0.1071
     15 C12         0.1360   -2.1594    8.3878 C.ar      1 <0>        -0.0804
     16 C13        -0.8935   -2.3370    7.4821 C.ar      1 <0>        -0.1047
     17 C14        -0.9010   -1.6301    6.2954 C.ar      1 <0>        -0.0763
     18 C15        -2.0269   -1.8192    5.3117 C.3       1 <0>        -0.1303
     19 H1          3.1435    1.6334    2.3352 H         1 <0>         0.0869
     20 H2          2.9640    2.3834    3.9394 H         1 <0>         0.0836
     21 H3          2.3764    0.7265    3.6608 H         1 <0>         0.0530
     22 H4          1.7300    4.2968    3.0918 H         1 <0>         0.1408
     23 H5         -0.4662    5.1889    2.4309 H         1 <0>         0.1404
     24 H6         -2.2763    3.6551    1.7758 H         1 <0>         0.1415
     25 H7         -1.8940    1.2242    1.7789 H         1 <0>         0.1367
     26 H8          0.4847   -0.4610    1.5914 H         1 <0>         0.4415
     27 H9          0.6889   -2.4511    4.4558 H         1 <0>         0.4432
     28 H10        -0.0647    0.9136    4.8032 H         1 <0>         0.4406
     29 H11         1.9701    0.1134    6.6995 H         1 <0>         0.1367
     30 H12         1.9674   -1.1426    8.8157 H         1 <0>         0.1422
     31 H13         0.1371   -2.7100    9.3170 H         1 <0>         0.1410
     32 H14        -1.6949   -3.0260    7.7046 H         1 <0>         0.1415
     33 H15        -1.7760   -2.6259    4.6230 H         1 <0>         0.0747
     34 H16        -2.9407   -2.0717    5.8496 H         1 <0>         0.0884
     35 H17        -2.1784   -0.8967    4.7512 H         1 <0>         0.0670
     36 H18         0.9688   -2.3908    2.8003 H         1 <0>         0.4426
@<TRIPOS>BOND
     1    1    2 1
     2    1   19 1
     3    1   20 1
     4    1   21 1
     5    2    7 ar
     6    2    3 ar
     7    3    4 ar
     8    3   22 1
     9    4    5 ar
    10    4   23 1
    11    5    6 ar
    12    5   24 1
    13    6    7 ar
    14    6   25 1
    15    7    8 1
    16    8    9 1
    17    8   26 1
    18    9   10 2
    19    9   11 1
    20   10   27 1
    21   10   36 1
    22   11   12 1
    23   11   28 1
    24   12   17 ar
    25   12   13 ar
    26   13   14 ar
    27   13   29 1
    28   14   15 ar
    29   14   30 1
    30   15   16 ar
    31   15   31 1
    32   16   17 ar
    33   16   32 1
    34   17   18 1
    35   18   33 1
    36   18   34 1
    37   18   35 1
@<TRIPOS>MOLECULE
ZINC08220551
   73    78     0     0     0
SMALL
USER_CHARGES
tetramethylBLAHol
@<TRIPOS>ATOM
      1 C1          5.2214   -7.3206   -7.1203 C.3       1 <0>        -0.1519
      2 C2          3.8997   -6.6874   -6.6812 C.3       1 <0>        -0.1147
      3 H1          3.8269   -5.6827   -7.0975 H         1 <0>         0.0915
      4 C3          2.7387   -7.5340   -7.2023 C.3       1 <0>        -0.1346
      5 C4          1.4016   -7.0062   -6.6601 C.3       1 <0>        -0.1387
      6 C5          1.4902   -6.9995   -5.1391 C.3       1 <0>         0.0319
      7 H2          1.6869   -7.9974   -4.7474 H         1 <0>         0.1440
      8 C6          0.2577   -6.3748   -4.4621 C.3       1 <0>        -0.1248
      9 H3         -0.1166   -5.5276   -5.0369 H         1 <0>         0.1231
     10 C7          0.8307   -5.9065   -3.0987 C.3       1 <0>        -0.0913
     11 H4          0.5786   -6.5941   -2.2914 H         1 <0>         0.1203
     12 C8          2.3700   -5.7809   -3.3360 C.3       1 <0>         0.0238
     13 H5          2.9319   -6.4749   -2.7110 H         1 <0>         0.1479
     14 C9          3.8630   -6.6039   -5.1480 C.3       1 <0>         0.0077
     15 C10         2.7429   -4.2993   -3.0275 C.3       1 <0>        -0.1273
     16 C11         1.5921   -3.8355   -2.1289 C.3       1 <0>        -0.0796
     17 H6          1.7194   -4.2261   -1.1193 H         1 <0>         0.0914
     18 C12         0.3578   -4.4862   -2.8084 C.3       1 <0>        -0.0605
     19 C13        -0.8075   -4.3422   -1.8461 C.3       1 <0>        -0.1016
     20 C14        -1.0928   -2.8400   -1.6975 C.3       1 <0>        -0.1260
     21 C15         0.1397   -2.0682   -1.1912 C.3       1 <0>        -0.0663
     22 H7          0.3704   -2.4052   -0.1806 H         1 <0>         0.0714
     23 C16         1.3502   -2.3373   -2.0866 C.3       1 <0>        -0.0713
     24 H8          1.1782   -1.9543   -3.0925 H         1 <0>         0.0862
     25 C17         2.5615   -1.6424   -1.4541 C.3       1 <0>        -0.0835
     26 C18         2.2576   -0.1841   -1.2729 C.2       1 <0>        -0.1638
     27 C19         1.0497    0.2761   -1.1297 C.2       1 <0>        -0.0968
     28 C20        -0.1790   -0.5840   -1.1388 C.3       1 <0>        -0.0141
     29 C21        -1.0249   -0.2739    0.1000 C.3       1 <0>        -0.1038
     30 C22        -1.3116    1.2279    0.1569 C.3       1 <0>        -0.1178
     31 C23         0.0017    1.9983    0.3045 C.3       1 <0>         0.1086
     32 H9          0.5336    1.6441    1.1875 H         1 <0>         0.0551
     33 C24         0.8676    1.7725   -0.9380 C.3       1 <0>        -0.1205
     34 O1         -0.2771    3.3929    0.4438 O.3       1 <0>        -0.5666
     35 C25        -1.0020   -0.2280   -2.3785 C.3       1 <0>        -0.1509
     36 C26         0.0428   -3.7636   -4.1197 C.3       1 <0>        -0.1562
     37 C27        -0.8409   -7.4204   -4.2604 C.3       1 <0>        -0.1456
     38 H10         5.3025   -8.3222   -6.6978 H         1 <0>         0.0672
     39 H11         5.2513   -7.3817   -8.2082 H         1 <0>         0.0772
     40 H12         6.0521   -6.7092   -6.7677 H         1 <0>         0.0687
     41 H13         2.7256   -7.4950   -8.2915 H         1 <0>         0.0945
     42 H14         2.8740   -8.5667   -6.8810 H         1 <0>         0.0825
     43 H15         0.5894   -7.6589   -6.9801 H         1 <0>         0.1127
     44 H16         1.2287   -5.9936   -7.0247 H         1 <0>         0.0868
     45 H17         4.6628   -5.9529   -4.7950 H         1 <0>         0.1310
     46 H18         3.9823   -7.5999   -4.7216 H         1 <0>         0.1277
     47 H19         2.7722   -3.7150   -3.9471 H         1 <0>         0.0855
     48 H20         3.6939   -4.2341   -2.4988 H         1 <0>         0.1003
     49 H21        -1.6852   -4.8486   -2.2478 H         1 <0>         0.0705
     50 H22        -0.5441   -4.7685   -0.8781 H         1 <0>         0.0702
     51 H23        -1.3961   -2.4384   -2.6644 H         1 <0>         0.0773
     52 H24        -1.9062   -2.7013   -0.9854 H         1 <0>         0.0690
     53 H25         3.4274   -1.7553   -2.1065 H         1 <0>         0.0678
     54 H26         2.7751   -2.0928   -0.4848 H         1 <0>         0.0747
     55 H27         3.0801    0.5157   -1.2604 H         1 <0>         0.1063
     56 H28        -0.4814   -0.5744    0.9958 H         1 <0>         0.0655
     57 H29        -1.9656   -0.8217    0.0446 H         1 <0>         0.0743
     58 H30        -1.8119    1.5366   -0.7609 H         1 <0>         0.0748
     59 H31        -1.9555    1.4421    1.0099 H         1 <0>         0.0734
     60 H32         1.8397    2.2457   -0.7989 H         1 <0>         0.0709
     61 H33         0.3743    2.1973   -1.8121 H         1 <0>         0.0816
     62 H34         0.5115    3.9438    0.5421 H         1 <0>         0.3803
     63 H35        -1.2566    0.8316   -2.3536 H         1 <0>         0.0619
     64 H36        -0.4193   -0.4407   -3.2748 H         1 <0>         0.0523
     65 H37        -1.9163   -0.8212   -2.3903 H         1 <0>         0.0658
     66 H38         0.8512   -3.9327   -4.8311 H         1 <0>         0.0386
     67 H39        -0.8901   -4.1485   -4.5317 H         1 <0>         0.0714
     68 H40        -0.0572   -2.6948   -3.9307 H         1 <0>         0.0843
     69 H41        -1.6490   -6.9891   -3.6695 H         1 <0>         0.0759
     70 H42        -1.2271   -7.7334   -5.2304 H         1 <0>         0.0699
     71 H43        -0.4292   -8.2837   -3.7375 H         1 <0>         0.0651
     72 N1          2.5164   -6.0461   -4.7786 N.4       1 <0>        -0.3912
     73 H44         2.3734   -5.1699   -5.2944 H         1 <0>         0.4206
@<TRIPOS>BOND
     1    1    2 1
     2    1   38 1
     3    1   39 1
     4    1   40 1
     5    2    3 1
     6    2   14 1
     7    2    4 1
     8    4    5 1
     9    4   41 1
    10    4   42 1
    11    5    6 1
    12    5   43 1
    13    5   44 1
    14    6    7 1
    15    6    8 1
    16    6   72 1
    17    8    9 1
    18    8   10 1
    19    8   37 1
    20   10   11 1
    21   10   18 1
    22   10   12 1
    23   12   13 1
    24   12   15 1
    25   12   72 1
    26   14   45 1
    27   14   46 1
    28   14   72 1
    29   15   16 1
    30   15   47 1
    31   15   48 1
    32   16   17 1
    33   16   23 1
    34   16   18 1
    35   18   19 1
    36   18   36 1
    37   19   20 1
    38   19   49 1
    39   19   50 1
    40   20   21 1
    41   20   51 1
    42   20   52 1
    43   21   22 1
    44   21   28 1
    45   21   23 1
    46   23   24 1
    47   23   25 1
    48   25   26 1
    49   25   53 1
    50   25   54 1
    51   26   27 2
    52   26   55 1
    53   27   33 1
    54   27   28 1
    55   28   29 1
    56   28   35 1
    57   29   30 1
    58   29   56 1
    59   29   57 1
    60   30   31 1
    61   30   58 1
    62   30   59 1
    63   31   32 1
    64   31   33 1
    65   31   34 1
    66   33   60 1
    67   33   61 1
    68   34   62 1
    69   35   63 1
    70   35   64 1
    71   35   65 1
    72   36   66 1
    73   36   67 1
    74   36   68 1
    75   37   69 1
    76   37   70 1
    77   37   71 1
    78   72   73 1
@<TRIPOS>MOLECULE
ZINC03995983
   70    73     0     0     0
SMALL
USER_CHARGES
3-(2-diethylaminoethoxy)-10,13-dimethyl-1,2,3,4,7,8,9,11,12,14,15,16-dodecahydrocyclopenta[a]phenanthren-17-one
@<TRIPOS>ATOM
      1 C1          3.7330    3.7879  -10.1640 C.3       1 <0>        -0.1869
      2 C2          2.3601    3.6878   -9.4962 C.3       1 <0>        -0.0142
      3 C3          2.0294    1.3703  -10.1146 C.3       1 <0>        -0.0109
      4 C4          0.6847    1.5790  -10.8139 C.3       1 <0>        -0.1880
      5 C5          3.2360    1.9226   -8.0894 C.3       1 <0>        -0.0037
      6 C6          3.1773    2.7805   -6.8239 C.3       1 <0>         0.0281
      7 O1          1.9663    2.5047   -6.1172 O.3       1 <0>        -0.3948
      8 C7          1.8118    3.2580   -4.9128 C.3       1 <0>         0.1004
      9 H1          2.3172    4.2181   -5.0172 H         1 <0>         0.0686
     10 C8          0.3239    3.4915   -4.6446 C.3       1 <0>        -0.1178
     11 C9          0.1562    4.3769   -3.4083 C.3       1 <0>        -0.1052
     12 C10         0.7264    3.6542   -2.1844 C.3       1 <0>        -0.0114
     13 C11         0.5813    4.5280   -0.9499 C.3       1 <0>        -0.0682
     14 H2          0.8116    5.5601   -1.2142 H         1 <0>         0.0687
     15 C12        -0.8673    4.4783   -0.4726 C.3       1 <0>        -0.1218
     16 C13        -1.0655    5.2720    0.8282 C.3       1 <0>        -0.0989
     17 C14        -0.1175    4.6871    1.8569 C.3       1 <0>        -0.1258
     18 C15         1.3505    4.9605    1.3644 C.3       1 <0>        -0.0787
     19 H3          1.4710    6.0112    1.1006 H         1 <0>         0.0837
     20 C16         1.5587    4.0794    0.1451 C.3       1 <0>        -0.0702
     21 H4          1.3850    3.0342    0.4009 H         1 <0>         0.0875
     22 C17         2.9858    4.2663   -0.3820 C.3       1 <0>        -0.0889
     23 C18         3.1408    3.5099   -1.6689 C.2       1 <0>        -0.1387
     24 C19         2.1428    3.2464   -2.4605 C.2       1 <0>        -0.1173
     25 C20         2.4253    2.4825   -3.7432 C.3       1 <0>        -0.1034
     26 C21         2.1459    4.6009    2.6017 C.3       1 <0>        -0.1119
     27 C22         1.2909    5.2024    3.7506 C.3       1 <0>        -0.1761
     28 C23        -0.1370    5.3044    3.2241 C.2       1 <0>         0.3780
     29 O2         -1.0887    5.7841    3.7919 O.2       1 <0>        -0.4343
     30 C24        -0.3450    3.1783    1.9688 C.3       1 <0>        -0.1425
     31 C25        -0.0985    2.3864   -1.9540 C.3       1 <0>        -0.1502
     32 H5          4.5098    3.5638   -9.4330 H         1 <0>         0.0797
     33 H6          3.7903    3.0738  -10.9856 H         1 <0>         0.0807
     34 H7          3.8770    4.7973  -10.5493 H         1 <0>         0.1061
     35 H8          1.5844    3.9316  -10.2221 H         1 <0>         0.1303
     36 H9          2.3100    4.3876   -8.6620 H         1 <0>         0.1257
     37 H10         2.8385    1.5357  -10.8262 H         1 <0>         0.1311
     38 H11         2.0854    0.3515   -9.7313 H         1 <0>         0.1286
     39 H12        -0.1194    1.5186  -10.0805 H         1 <0>         0.0799
     40 H13         0.6704    2.5601  -11.2886 H         1 <0>         0.0793
     41 H14         0.5450    0.8071  -11.5707 H         1 <0>         0.1059
     42 H15         4.1978    2.0666   -8.5817 H         1 <0>         0.1450
     43 H16         3.1183    0.8724   -7.8222 H         1 <0>         0.1370
     44 H17         3.2058    3.8350   -7.0982 H         1 <0>         0.0735
     45 H18         4.0307    2.5475   -6.1871 H         1 <0>         0.0950
     46 H19        -0.1686    2.5340   -4.4746 H         1 <0>         0.0794
     47 H20        -0.1266    3.9831   -5.5068 H         1 <0>         0.0680
     48 H21        -0.9024    4.5821   -3.2489 H         1 <0>         0.0786
     49 H22         0.6902    5.3153   -3.5579 H         1 <0>         0.0655
     50 H23        -1.5109    4.8974   -1.2461 H         1 <0>         0.0647
     51 H24        -1.1493    3.4396   -0.3004 H         1 <0>         0.0771
     52 H25        -0.8302    6.3232    0.6615 H         1 <0>         0.0659
     53 H26        -2.0953    5.1720    1.1711 H         1 <0>         0.0725
     54 H27         3.1732    5.3257   -0.5576 H         1 <0>         0.0767
     55 H28         3.6974    3.8875    0.3517 H         1 <0>         0.0762
     56 H29         4.1261    3.1691   -1.9508 H         1 <0>         0.1043
     57 H30         3.5020    2.3923   -3.8872 H         1 <0>         0.0685
     58 H31         1.9778    1.4903   -3.6857 H         1 <0>         0.0829
     59 H32         3.1295    5.0691    2.5652 H         1 <0>         0.0772
     60 H33         2.2372    3.5203    2.7122 H         1 <0>         0.0791
     61 H34         1.6500    6.1025    3.9973 H         1 <0>         0.0892
     62 H35         1.3217    4.5481    4.6218 H         1 <0>         0.0989
     63 H36        -0.1497    2.7089    1.0046 H         1 <0>         0.0790
     64 H37         0.3296    2.7637    2.7179 H         1 <0>         0.0622
     65 H38        -1.3768    2.9872    2.2635 H         1 <0>         0.0614
     66 H39         0.2231    1.9067   -1.0296 H         1 <0>         0.0587
     67 H40        -1.1540    2.6482   -1.8794 H         1 <0>         0.0660
     68 H41         0.0477    1.7010   -2.7889 H         1 <0>         0.0543
     69 N1          2.1303    2.3197   -8.9862 N.4       1 <0>        -0.3947
     70 H42         1.2502    2.3042   -8.4576 H         1 <0>         0.4356
@<TRIPOS>BOND
     1    1    2 1
     2    1   32 1
     3    1   33 1
     4    1   34 1
     5    2   35 1
     6    2   36 1
     7    2   69 1
     8    3    4 1
     9    3   37 1
    10    3   38 1
    11    3   69 1
    12    4   39 1
    13    4   40 1
    14    4   41 1
    15    5    6 1
    16    5   42 1
    17    5   43 1
    18    5   69 1
    19    6    7 1
    20    6   44 1
    21    6   45 1
    22    7    8 1
    23    8    9 1
    24    8   25 1
    25    8   10 1
    26   10   11 1
    27   10   46 1
    28   10   47 1
    29   11   12 1
    30   11   48 1
    31   11   49 1
    32   12   24 1
    33   12   13 1
    34   12   31 1
    35   13   14 1
    36   13   20 1
    37   13   15 1
    38   15   16 1
    39   15   50 1
    40   15   51 1
    41   16   17 1
    42   16   52 1
    43   16   53 1
    44   17   28 1
    45   17   18 1
    46   17   30 1
    47   18   19 1
    48   18   20 1
    49   18   26 1
    50   20   21 1
    51   20   22 1
    52   22   23 1
    53   22   54 1
    54   22   55 1
    55   23   24 2
    56   23   56 1
    57   24   25 1
    58   25   57 1
    59   25   58 1
    60   26   27 1
    61   26   59 1
    62   26   60 1
    63   27   28 1
    64   27   61 1
    65   27   62 1
    66   28   29 2
    67   30   63 1
    68   30   64 1
    69   30   65 1
    70   31   66 1
    71   31   67 1
    72   31   68 1
    73   69   70 1
@<TRIPOS>MOLECULE
ZINC08143636
   76    81     0     0     0
SMALL
USER_CHARGES
tetramethylBLAHol
@<TRIPOS>ATOM
      1 C1          0.8670    6.7046    4.9087 C.3       1 <0>        -0.1520
      2 C2          0.0859    5.4061    5.1160 C.3       1 <0>        -0.1090
      3 H1         -0.7037    5.5630    5.8479 H         1 <0>         0.0972
      4 C3          1.0369    4.3092    5.6097 C.3       1 <0>        -0.1300
      5 C4          0.2404    3.0138    5.7746 C.3       1 <0>        -0.1269
      6 C5         -0.4090    2.6072    4.4578 C.3       1 <0>         0.2335
      7 C6          0.6112    2.1684    3.3958 C.3       1 <0>        -0.1144
      8 H2          0.9589    3.0093    2.7995 H         1 <0>         0.1114
      9 C7         -0.1302    1.0913    2.5792 C.3       1 <0>        -0.1122
     10 H3          0.5218    0.2112    2.4110 H         1 <0>         0.1174
     11 C8         -1.3403    0.7060    3.4809 C.3       1 <0>         0.0571
     12 H4         -1.3460   -0.3691    3.6778 H         1 <0>         0.1296
     13 O1         -1.2387    1.4509    4.6893 O.3       1 <0>        -0.3335
     14 C9         -2.6038    1.1181    2.6807 C.3       1 <0>        -0.1414
     15 C10        -2.1273    0.9031    1.2397 C.3       1 <0>        -0.0840
     16 H5         -2.0134   -0.1725    1.0517 H         1 <0>         0.0919
     17 C11        -0.7227    1.5722    1.2661 C.3       1 <0>        -0.0660
     18 C12        -0.0127    1.0868    0.0080 C.3       1 <0>        -0.1009
     19 C13        -0.7789    1.6074   -1.2156 C.3       1 <0>        -0.1180
     20 C14        -2.2511    1.2452   -1.1972 C.3       1 <0>        -0.0674
     21 H6         -2.3286    0.1597   -1.3812 H         1 <0>         0.0683
     22 C15        -2.9479    1.5302    0.1398 C.3       1 <0>        -0.0714
     23 H7         -3.0862    2.5928    0.3080 H         1 <0>         0.0785
     24 C16        -4.3441    0.8891    0.0846 C.3       1 <0>        -0.1172
     25 C17        -5.1484    1.5543   -1.0351 C.3       1 <0>        -0.1144
     26 C18        -4.4360    1.3715   -2.3716 C.3       1 <0>        -0.0707
     27 H8         -4.3634    0.2941   -2.5807 H         1 <0>         0.0689
     28 C19        -3.0183    1.9435   -2.3243 C.3       1 <0>        -0.0440
     29 C20        -2.3268    1.6645   -3.6621 C.3       1 <0>        -0.1074
     30 C21        -3.1159    2.2922   -4.8096 C.3       1 <0>        -0.1530
     31 C22        -4.5445    1.7505   -4.8349 C.3       1 <0>         0.1054
     32 H9         -4.5232    0.6756   -5.0167 H         1 <0>         0.0528
     33 C23        -5.2351    2.0244   -3.4971 C.3       1 <0>        -0.1087
     34 O2         -5.2766    2.3913   -5.8834 O.3       1 <0>        -0.5691
     35 C24        -3.0541    3.4513   -2.0820 C.3       1 <0>        -0.1479
     36 C25        -0.8510    3.0888    1.2030 C.3       1 <0>        -0.1550
     37 C26         1.8542    1.5197    4.0409 C.3       1 <0>        -0.1503
     38 C27        -0.5250    4.9580    3.7861 C.3       1 <0>        -0.0061
     39 H10         1.6502    6.5431    4.1680 H         1 <0>         0.0676
     40 H11         0.1901    7.4836    4.5578 H         1 <0>         0.0698
     41 H12         1.3172    7.0124    5.8524 H         1 <0>         0.0795
     42 H13         1.4588    4.6051    6.5706 H         1 <0>         0.1018
     43 H14         1.8382    4.1735    4.8870 H         1 <0>         0.0860
     44 H15        -0.5722    3.2113    6.4975 H         1 <0>         0.0895
     45 H16         0.8493    2.2284    6.1967 H         1 <0>         0.1220
     46 H17        -2.8711    2.1529    2.8664 H         1 <0>         0.0554
     47 H18        -3.4373    0.4534    2.9125 H         1 <0>         0.0954
     48 H19         0.0021   -0.0041    0.0020 H         1 <0>         0.0724
     49 H20         1.0087    1.4674    0.0003 H         1 <0>         0.0692
     50 H21        -0.6345    2.6765   -1.3254 H         1 <0>         0.0686
     51 H22        -0.3278    1.1379   -2.1075 H         1 <0>         0.0663
     52 H23        -4.2427   -0.1748   -0.1188 H         1 <0>         0.0662
     53 H24        -4.8466    1.0405    1.0372 H         1 <0>         0.0634
     54 H25        -6.1349    1.0823   -1.0882 H         1 <0>         0.0650
     55 H26        -5.2831    2.6102   -0.8128 H         1 <0>         0.0648
     56 H27        -2.2586    0.5863   -3.8137 H         1 <0>         0.0634
     57 H28        -1.3209    2.0876   -3.6423 H         1 <0>         0.0678
     58 H29        -2.6255    2.0366   -5.7564 H         1 <0>         0.0621
     59 H30        -3.1315    3.3760   -4.7190 H         1 <0>         0.0737
     60 H31        -6.2387    1.5865   -3.5225 H         1 <0>         0.0676
     61 H32        -5.3306    3.0940   -3.3396 H         1 <0>         0.0736
     62 H33        -4.8977    2.2618   -6.7636 H         1 <0>         0.3803
     63 H34        -2.0357    3.8385   -2.0503 H         1 <0>         0.0541
     64 H35        -3.6021    3.9362   -2.8899 H         1 <0>         0.0641
     65 H36        -3.5501    3.6552   -1.1331 H         1 <0>         0.0551
     66 H37        -1.4178    3.3689    0.3151 H         1 <0>         0.1006
     67 H38        -1.3689    3.4469    2.0927 H         1 <0>         0.0253
     68 H39         0.1421    3.5357    1.1561 H         1 <0>         0.0780
     69 H40         2.5064    1.1285    3.2601 H         1 <0>         0.0806
     70 H41         2.3928    2.2669    4.6238 H         1 <0>         0.0732
     71 H42         1.5411    0.7055    4.6945 H         1 <0>         0.0715
     72 H43        -1.2131    5.7287    3.4296 H         1 <0>         0.1330
     73 H44         0.2736    4.8330    3.0541 H         1 <0>         0.1293
     74 N1         -1.2776    3.6961    3.9574 N.4       1 <0>        -0.5489
     75 H45        -2.0386    3.8506    4.6292 H         1 <0>         0.4265
     76 H46        -1.6722    3.4179    3.0513 H         1 <0>         0.4252
@<TRIPOS>BOND
     1    1    2 1
     2    1   39 1
     3    1   40 1
     4    1   41 1
     5    2    3 1
     6    2   38 1
     7    2    4 1
     8    4    5 1
     9    4   42 1
    10    4   43 1
    11    5    6 1
    12    5   44 1
    13    5   45 1
    14    6   13 1
    15    6    7 1
    16    6   74 1
    17    7    8 1
    18    7    9 1
    19    7   37 1
    20    9   10 1
    21    9   17 1
    22    9   11 1
    23   11   12 1
    24   11   13 1
    25   11   14 1
    26   14   15 1
    27   14   46 1
    28   14   47 1
    29   15   16 1
    30   15   22 1
    31   15   17 1
    32   17   18 1
    33   17   36 1
    34   18   19 1
    35   18   48 1
    36   18   49 1
    37   19   20 1
    38   19   50 1
    39   19   51 1
    40   20   21 1
    41   20   28 1
    42   20   22 1
    43   22   23 1
    44   22   24 1
    45   24   25 1
    46   24   52 1
    47   24   53 1
    48   25   26 1
    49   25   54 1
    50   25   55 1
    51   26   27 1
    52   26   33 1
    53   26   28 1
    54   28   29 1
    55   28   35 1
    56   29   30 1
    57   29   56 1
    58   29   57 1
    59   30   31 1
    60   30   58 1
    61   30   59 1
    62   31   32 1
    63   31   33 1
    64   31   34 1
    65   33   60 1
    66   33   61 1
    67   34   62 1
    68   35   63 1
    69   35   64 1
    70   35   65 1
    71   36   66 1
    72   36   67 1
    73   36   68 1
    74   37   69 1
    75   37   70 1
    76   37   71 1
    77   38   72 1
    78   38   73 1
    79   38   74 1
    80   74   75 1
    81   74   76 1
@<TRIPOS>MOLECULE
ZINC08143640
   76    81     0     0     0
SMALL
USER_CHARGES
tetramethylBLAHol
@<TRIPOS>ATOM
      1 C1         -2.3814    5.0564    7.2092 C.3       1 <0>        -0.1516
      2 C2         -1.3373    4.6447    6.1699 C.3       1 <0>        -0.1089
      3 H1         -0.7176    5.5040    5.9143 H         1 <0>         0.0922
      4 C3         -0.4610    3.5278    6.7369 C.3       1 <0>        -0.1331
      5 C4          0.5367    3.0526    5.6710 C.3       1 <0>        -0.1269
      6 C5         -0.2164    2.6266    4.4159 C.3       1 <0>         0.2313
      7 C6          0.7422    2.1552    3.3055 C.3       1 <0>        -0.1232
      8 H2          1.0689    2.9869    2.6838 H         1 <0>         0.1128
      9 C7         -0.0651    1.0860    2.5457 C.3       1 <0>        -0.1113
     10 H3          0.5541    0.1883    2.3462 H         1 <0>         0.1179
     11 C8         -1.2313    0.7350    3.5171 C.3       1 <0>         0.0574
     12 H4         -1.2438   -0.3344    3.7360 H         1 <0>         0.1286
     13 O1         -1.0584    1.5029    4.7052 O.3       1 <0>        -0.3224
     14 C9         -2.5312    1.1559    2.7818 C.3       1 <0>        -0.1424
     15 C10        -2.1354    0.9261    1.3194 C.3       1 <0>        -0.0837
     16 H5         -2.0481   -0.1522    1.1319 H         1 <0>         0.0914
     17 C11        -0.7227    1.5737    1.2643 C.3       1 <0>        -0.0656
     18 C12        -0.0887    1.0796   -0.0294 C.3       1 <0>        -0.1011
     19 C13        -0.9213    1.5981   -1.2100 C.3       1 <0>        -0.1191
     20 C14        -2.3917    1.2395   -1.1051 C.3       1 <0>        -0.0677
     21 H6         -2.4806    0.1512   -1.2591 H         1 <0>         0.0681
     22 C15        -3.0083    1.5575    0.2628 C.3       1 <0>        -0.0709
     23 H7         -3.1123    2.6255    0.4203 H         1 <0>         0.0777
     24 C16        -4.4169    0.9434    0.3047 C.3       1 <0>        -0.1168
     25 C17        -5.2732    1.5933   -0.7841 C.3       1 <0>        -0.1143
     26 C18        -4.6400    1.3568   -2.1522 C.3       1 <0>        -0.0706
     27 H8         -4.5878    0.2716   -2.3248 H         1 <0>         0.0687
     28 C19        -3.2168    1.9145   -2.2052 C.3       1 <0>        -0.0439
     29 C20        -2.6068    1.5885   -3.5719 C.3       1 <0>        -0.1073
     30 C21        -3.4599    2.1797   -4.6922 C.3       1 <0>        -0.1530
     31 C22        -4.8897    1.6452   -4.6147 C.3       1 <0>         0.1054
     32 H9         -4.8819    0.5635   -4.7543 H         1 <0>         0.0528
     33 C23        -5.4994    1.9763   -3.2511 C.3       1 <0>        -0.1085
     34 O2         -5.6778    2.2485   -5.6438 O.3       1 <0>        -0.5689
     35 C24        -3.2222    3.4294   -2.0029 C.3       1 <0>        -0.1476
     36 C25        -0.8287    3.0927    1.2088 C.3       1 <0>        -0.1587
     37 C26         2.0074    1.5030    3.8971 C.3       1 <0>        -0.1495
     38 C27        -2.0454    4.1368    4.9116 C.3       1 <0>        -0.0047
     39 H10        -3.0010    4.1961    7.4624 H         1 <0>         0.0676
     40 H11        -1.8784    5.4183    8.1060 H         1 <0>         0.0769
     41 H12        -3.0088    5.8483    6.8000 H         1 <0>         0.0679
     42 H13         0.0884    3.8999    7.6022 H         1 <0>         0.0946
     43 H14        -1.0880    2.6899    7.0424 H         1 <0>         0.0878
     44 H15         1.0851    2.2105    6.0965 H         1 <0>         0.1195
     45 H16         1.2215    3.8647    5.4335 H         1 <0>         0.1009
     46 H17        -2.7779    2.1957    2.9736 H         1 <0>         0.0580
     47 H18        -3.3586    0.5030    3.0627 H         1 <0>         0.0939
     48 H19        -0.0765   -0.0108   -0.0318 H         1 <0>         0.0728
     49 H20         0.9322    1.4574   -0.0987 H         1 <0>         0.0697
     50 H21        -0.7816    2.6671   -1.3310 H         1 <0>         0.0692
     51 H22        -0.5232    1.1243   -2.1246 H         1 <0>         0.0670
     52 H23        -4.3448   -0.1271    0.1259 H         1 <0>         0.0658
     53 H24        -4.8590    1.1295    1.2818 H         1 <0>         0.0630
     54 H25        -6.2684    1.1377   -0.7666 H         1 <0>         0.0649
     55 H26        -5.3763    2.6574   -0.5847 H         1 <0>         0.0652
     56 H27        -2.5505    0.5055   -3.6891 H         1 <0>         0.0631
     57 H28        -1.6007    2.0061   -3.6250 H         1 <0>         0.0677
     58 H29        -3.0264    1.8873   -5.6564 H         1 <0>         0.0620
     59 H30        -3.4655    3.2658   -4.6399 H         1 <0>         0.0737
     60 H31        -6.5062    1.5466   -3.2017 H         1 <0>         0.0678
     61 H32        -5.5762    3.0519   -3.1288 H         1 <0>         0.0737
     62 H33        -5.3510    2.0813   -6.5385 H         1 <0>         0.3804
     63 H34        -2.1996    3.8048   -2.0416 H         1 <0>         0.0542
     64 H35        -3.8116    3.8990   -2.7905 H         1 <0>         0.0637
     65 H36        -3.6593    3.6649   -1.0326 H         1 <0>         0.0552
     66 H37        -1.3191    3.3891    0.2815 H         1 <0>         0.1034
     67 H38        -1.4126    3.4475    2.0581 H         1 <0>         0.0307
     68 H39         0.1698    3.5283    1.2470 H         1 <0>         0.0788
     69 H40         2.6134    1.0888    3.0913 H         1 <0>         0.0807
     70 H41         2.5847    2.2537    4.4368 H         1 <0>         0.0725
     71 H42         1.7188    0.7054    4.5816 H         1 <0>         0.0712
     72 H43        -2.6710    4.9263    4.4985 H         1 <0>         0.1278
     73 H44        -2.6596    3.2734    5.1613 H         1 <0>         0.1331
     74 N1         -1.0253    3.7543    3.9154 N.4       1 <0>        -0.5507
     75 H45        -1.4910    3.4762    3.0437 H         1 <0>         0.4234
     76 H46        -0.4113    4.5571    3.7343 H         1 <0>         0.4300
@<TRIPOS>BOND
     1    1    2 1
     2    1   39 1
     3    1   40 1
     4    1   41 1
     5    2    3 1
     6    2   38 1
     7    2    4 1
     8    4    5 1
     9    4   42 1
    10    4   43 1
    11    5    6 1
    12    5   44 1
    13    5   45 1
    14    6   13 1
    15    6    7 1
    16    6   74 1
    17    7    8 1
    18    7    9 1
    19    7   37 1
    20    9   10 1
    21    9   17 1
    22    9   11 1
    23   11   12 1
    24   11   13 1
    25   11   14 1
    26   14   15 1
    27   14   46 1
    28   14   47 1
    29   15   16 1
    30   15   22 1
    31   15   17 1
    32   17   18 1
    33   17   36 1
    34   18   19 1
    35   18   48 1
    36   18   49 1
    37   19   20 1
    38   19   50 1
    39   19   51 1
    40   20   21 1
    41   20   28 1
    42   20   22 1
    43   22   23 1
    44   22   24 1
    45   24   25 1
    46   24   52 1
    47   24   53 1
    48   25   26 1
    49   25   54 1
    50   25   55 1
    51   26   27 1
    52   26   33 1
    53   26   28 1
    54   28   29 1
    55   28   35 1
    56   29   30 1
    57   29   56 1
    58   29   57 1
    59   30   31 1
    60   30   58 1
    61   30   59 1
    62   31   32 1
    63   31   33 1
    64   31   34 1
    65   33   60 1
    66   33   61 1
    67   34   62 1
    68   35   63 1
    69   35   64 1
    70   35   65 1
    71   36   66 1
    72   36   67 1
    73   36   68 1
    74   37   69 1
    75   37   70 1
    76   37   71 1
    77   38   72 1
    78   38   73 1
    79   38   74 1
    80   74   75 1
    81   74   76 1
@<TRIPOS>MOLECULE
ZINC30727277
   60    60     0     0     0
SMALL
USER_CHARGES

@<TRIPOS>ATOM
      1 C1         -0.0187    1.5258    0.0104 C.3       1 <0>        -0.1543
      2 C2          0.0021   -0.0041    0.0020 C.3       1 <0>        -0.1261
      3 C3         -1.4333   -0.5336    0.0129 C.3       1 <0>        -0.1213
      4 C4         -1.4126   -2.0635    0.0045 C.3       1 <0>        -0.1212
      5 C5         -2.8479   -2.5931    0.0153 C.3       1 <0>        -0.1207
      6 C6         -2.8272   -4.1229    0.0069 C.3       1 <0>        -0.1206
      7 C7         -4.2626   -4.6525    0.0178 C.3       1 <0>        -0.1206
      8 C8         -4.2418   -6.1823    0.0094 C.3       1 <0>        -0.1205
      9 C9         -5.6772   -6.7119    0.0202 C.3       1 <0>        -0.1204
     10 C10        -5.6565   -8.2417    0.0118 C.3       1 <0>        -0.1187
     11 C11        -7.0918   -8.7713    0.0227 C.3       1 <0>        -0.1188
     12 C12        -7.0711  -10.3012    0.0143 C.3       1 <0>        -0.1160
     13 C13        -8.5065  -10.8307    0.0251 C.3       1 <0>         0.0549
     14 N1         -8.4866  -12.2996    0.0170 N.3       1 <0>        -0.5395
     15 C14        -7.9172  -12.8256    1.2662 C.3       1 <0>         0.0212
     16 C15        -7.8604  -14.3537    1.1911 C.3       1 <0>         0.0898
     17 H1         -7.1915  -14.6538    0.3844 H         1 <0>         0.0664
     18 O1         -9.1726  -14.8627    0.9376 O.3       1 <0>        -0.3801
     19 C16        -9.7570  -14.3714   -0.2717 C.3       1 <0>         0.0903
     20 H2         -9.1433  -14.6720   -1.1209 H         1 <0>         0.0667
     21 C17        -9.8331  -12.8435   -0.2114 C.3       1 <0>         0.0231
     22 C18       -11.1654  -14.9481   -0.4296 C.3       1 <0>        -0.1454
     23 C19        -7.3426  -14.9116    2.5183 C.3       1 <0>        -0.1455
     24 H3          1.0039    1.9031    0.0027 H         1 <0>         0.0535
     25 H4         -0.5459    1.8868   -0.8726 H         1 <0>         0.0533
     26 H5         -0.5289    1.8773    0.9072 H         1 <0>         0.0533
     27 H6          0.5123   -0.3556   -0.8948 H         1 <0>         0.0603
     28 H7          0.5293   -0.3651    0.8851 H         1 <0>         0.0603
     29 H8         -1.9435   -0.1821    0.9097 H         1 <0>         0.0605
     30 H9         -1.9605   -0.1726   -0.8702 H         1 <0>         0.0605
     31 H10        -0.9024   -2.4150   -0.8923 H         1 <0>         0.0605
     32 H11        -0.8854   -2.4246    0.8875 H         1 <0>         0.0605
     33 H12        -3.3581   -2.2415    0.9121 H         1 <0>         0.0603
     34 H13        -3.3751   -2.2320   -0.8677 H         1 <0>         0.0604
     35 H14        -2.3170   -4.4744   -0.8899 H         1 <0>         0.0605
     36 H15        -2.3000   -4.4840    0.8900 H         1 <0>         0.0604
     37 H16        -4.7728   -4.3010    0.9146 H         1 <0>         0.0602
     38 H17        -4.7898   -4.2914   -0.8653 H         1 <0>         0.0604
     39 H18        -3.7316   -6.5338   -0.8874 H         1 <0>         0.0607
     40 H19        -3.7146   -6.5434    0.8924 H         1 <0>         0.0603
     41 H20        -6.1874   -6.3604    0.9170 H         1 <0>         0.0601
     42 H21        -6.2044   -6.3508   -0.8628 H         1 <0>         0.0608
     43 H22        -5.1463   -8.5933   -0.8850 H         1 <0>         0.0620
     44 H23        -5.1293   -8.6028    0.8949 H         1 <0>         0.0604
     45 H24        -7.6020   -8.4198    0.9195 H         1 <0>         0.0598
     46 H25        -7.6190   -8.4102   -0.8604 H         1 <0>         0.0624
     47 H26        -6.5609  -10.6527   -0.8825 H         1 <0>         0.0711
     48 H27        -6.5439  -10.6622    0.8973 H         1 <0>         0.0615
     49 H28        -9.0167  -10.4792    0.9219 H         1 <0>         0.0342
     50 H29        -9.0337  -10.4697   -0.8579 H         1 <0>         0.0757
     51 H30        -6.9107  -12.4302    1.4023 H         1 <0>         0.0880
     52 H31        -8.5436  -12.5256    2.1064 H         1 <0>         0.0421
     53 H32       -10.4901  -12.5438    0.6051 H         1 <0>         0.0425
     54 H33       -10.2251  -12.4611   -1.1538 H         1 <0>         0.0855
     55 H34       -11.7790  -14.6459    0.4190 H         1 <0>         0.0624
     56 H35       -11.6102  -14.5733   -1.3514 H         1 <0>         0.0730
     57 H36       -11.1102  -16.0360   -0.4690 H         1 <0>         0.0673
     58 H37        -8.0127  -14.6125    3.3243 H         1 <0>         0.0624
     59 H38        -7.3023  -15.9995    2.4642 H         1 <0>         0.0673
     60 H39        -6.3439  -14.5202    2.7120 H         1 <0>         0.0728
@<TRIPOS>BOND
     1    1    2 1
     2    1   24 1
     3    1   25 1
     4    1   26 1
     5    2    3 1
     6    2   27 1
     7    2   28 1
     8    3    4 1
     9    3   29 1
    10    3   30 1
    11    4    5 1
    12    4   31 1
    13    4   32 1
    14    5    6 1
    15    5   33 1
    16    5   34 1
    17    6    7 1
    18    6   35 1
    19    6   36 1
    20    7    8 1
    21    7   37 1
    22    7   38 1
    23    8    9 1
    24    8   39 1
    25    8   40 1
    26    9   10 1
    27    9   41 1
    28    9   42 1
    29   10   11 1
    30   10   43 1
    31   10   44 1
    32   11   12 1
    33   11   45 1
    34   11   46 1
    35   12   13 1
    36   12   47 1
    37   12   48 1
    38   13   14 1
    39   13   49 1
    40   13   50 1
    41   14   21 1
    42   14   15 1
    43   15   16 1
    44   15   51 1
    45   15   52 1
    46   16   17 1
    47   16   18 1
    48   16   23 1
    49   18   19 1
    50   19   20 1
    51   19   21 1
    52   19   22 1
    53   21   53 1
    54   21   54 1
    55   22   55 1
    56   22   56 1
    57   22   57 1
    58   23   58 1
    59   23   59 1
    60   23   60 1
@<TRIPOS>MOLECULE
ZINC21981303
   57    60     0     0     0
SMALL
USER_CHARGES

@<TRIPOS>ATOM
      1 C1         -0.0158    1.3103    0.0092 C.ar      1 <0>        -0.1212
      2 C2          1.2504    2.0631    0.0012 C.ar      1 <0>        -0.0990
      3 C3          2.3957    1.4175   -0.0238 C.ar      1 <0>        -0.1355
      4 C4          2.4154   -0.0573   -0.0438 C.ar      1 <0>         0.1774
      5 C5          1.2872   -0.7303   -0.0141 C.ar      1 <0>        -0.0835
      6 C6          0.0021   -0.0041    0.0020 C.ar      1 <0>        -0.0966
      7 C7          1.2853   -2.1955    0.0402 C.2       1 <0>        -0.0960
      8 C8          2.1005   -2.9722   -0.5975 C.2       1 <0>        -0.0968
      9 C9          3.1721   -2.5248   -1.4939 C.ar      1 <0>        -0.0819
     10 C10         3.4476   -3.2857   -2.7284 C.ar      1 <0>        -0.0971
     11 C11         4.4230   -2.9170   -3.5290 C.ar      1 <0>        -0.1208
     12 C12         5.2437   -1.7405   -3.1942 C.ar      1 <0>        -0.0999
     13 C13         4.9906   -1.0548   -2.1012 C.ar      1 <0>        -0.1353
     14 C14         3.8874   -1.4612   -1.2093 C.ar      1 <0>         0.1763
     15 N1          3.5996   -0.7020   -0.1304 N.pl3     1 <0>        -0.5869
     16 C15         4.5778   -0.5767    0.9530 C.3       1 <0>         0.1376
     17 C16         4.3408   -1.6817    1.9843 C.3       1 <0>        -0.1707
     18 C17         5.3623   -1.5509    3.1158 C.3       1 <0>        -0.0054
     19 N2          5.1348   -2.6119    4.1060 N.4       1 <0>        -0.3852
     20 C18         3.8238   -2.4172    4.7393 C.3       1 <0>        -0.0046
     21 C19         3.5783   -3.5329    5.7575 C.3       1 <0>         0.0272
     22 N3          4.6406   -3.5081    6.7729 N.3       1 <0>        -0.5295
     23 C20         5.9614   -3.6770    6.1507 C.3       1 <0>         0.0210
     24 C21         6.1873   -2.5601    5.1293 C.3       1 <0>        -0.0003
     25 C22         4.4090   -4.5303    7.8021 C.3       1 <0>         0.0537
     26 C23         5.3823   -4.3150    8.9629 C.3       1 <0>         0.0764
     27 O1          5.0971   -3.0673    9.5983 O.3       1 <0>        -0.5624
     28 H1         -0.9580    1.8379    0.0256 H         1 <0>         0.1297
     29 H2          1.2381    3.1429    0.0155 H         1 <0>         0.1290
     30 H3          3.3245    1.9686   -0.0301 H         1 <0>         0.1232
     31 H4         -0.9270   -0.5547    0.0079 H         1 <0>         0.1266
     32 H5          0.5411   -2.6662    0.6654 H         1 <0>         0.1169
     33 H6          1.9826   -4.0367   -0.4581 H         1 <0>         0.1169
     34 H7          2.8462   -4.1483   -2.9745 H         1 <0>         0.1267
     35 H8          4.6222   -3.4759   -4.4314 H         1 <0>         0.1297
     36 H9          6.0521   -1.4418   -3.8451 H         1 <0>         0.1289
     37 H10         5.5919   -0.1920   -1.8553 H         1 <0>         0.1232
     38 H11         5.5847   -0.6694    0.5460 H         1 <0>         0.0832
     39 H12         4.4674    0.3965    1.4314 H         1 <0>         0.0836
     40 H13         3.3339   -1.5890    2.3913 H         1 <0>         0.0898
     41 H14         4.4511   -2.6549    1.5060 H         1 <0>         0.0883
     42 H15         6.3692   -1.6436    2.7088 H         1 <0>         0.1321
     43 H16         5.2519   -0.5777    3.5942 H         1 <0>         0.1321
     44 H17         3.8048   -1.4523    5.2460 H         1 <0>         0.1385
     45 H18         3.0449   -2.4428    3.9774 H         1 <0>         0.1355
     46 H19         2.6120   -3.3803    6.2383 H         1 <0>         0.1234
     47 H20         3.5837   -4.4970    5.2489 H         1 <0>         0.0587
     48 H21         6.7338   -3.6295    6.9183 H         1 <0>         0.1231
     49 H22         6.0061   -4.6434    5.6486 H         1 <0>         0.0591
     50 H23         7.1605   -2.6916    4.6564 H         1 <0>         0.1351
     51 H24         6.1562   -1.5945    5.6340 H         1 <0>         0.1385
     52 H25         3.3850   -4.4526    8.1674 H         1 <0>         0.0971
     53 H26         4.5678   -5.5199    7.3736 H         1 <0>         0.0608
     54 H27         5.2715   -5.1241    9.6848 H         1 <0>         0.0595
     55 H28         6.4039   -4.3043    8.5831 H         1 <0>         0.0457
     56 H29         5.6770   -2.8647   10.3452 H         1 <0>         0.3846
     57 H30         5.1561   -3.5102    3.6471 H         1 <0>         0.4196
@<TRIPOS>BOND
     1    1    6 ar
     2    1    2 ar
     3    1   28 1
     4    2    3 ar
     5    2   29 1
     6    3    4 ar
     7    3   30 1
     8    4   15 1
     9    4    5 ar
    10    5    6 ar
    11    5    7 1
    12    6   31 1
    13    7    8 2
    14    7   32 1
    15    8    9 1
    16    8   33 1
    17    9   14 ar
    18    9   10 ar
    19   10   11 ar
    20   10   34 1
    21   11   12 ar
    22   11   35 1
    23   12   13 ar
    24   12   36 1
    25   13   14 ar
    26   13   37 1
    27   14   15 1
    28   15   16 1
    29   16   17 1
    30   16   38 1
    31   16   39 1
    32   17   18 1
    33   17   40 1
    34   17   41 1
    35   18   19 1
    36   18   42 1
    37   18   43 1
    38   19   24 1
    39   19   20 1
    40   19   57 1
    41   20   21 1
    42   20   44 1
    43   20   45 1
    44   21   22 1
    45   21   46 1
    46   21   47 1
    47   22   23 1
    48   22   25 1
    49   23   24 1
    50   23   48 1
    51   23   49 1
    52   24   50 1
    53   24   51 1
    54   25   26 1
    55   25   52 1
    56   25   53 1
    57   26   27 1
    58   26   54 1
    59   26   55 1
    60   27   56 1
@<TRIPOS>MOLECULE
ZINC21981303
   56    59     0     0     0
SMALL
USER_CHARGES

@<TRIPOS>ATOM
      1 C1         -0.0158    1.3103    0.0092 C.ar      1 <0>        -0.1297
      2 C2          1.2504    2.0631    0.0012 C.ar      1 <0>        -0.1061
      3 C3          2.3957    1.4175   -0.0238 C.ar      1 <0>        -0.1312
      4 C4          2.4154   -0.0573   -0.0438 C.ar      1 <0>         0.1905
      5 C5          1.2872   -0.7303   -0.0141 C.ar      1 <0>        -0.0886
      6 C6          0.0021   -0.0041    0.0020 C.ar      1 <0>        -0.0925
      7 C7          1.2853   -2.1955    0.0402 C.2       1 <0>        -0.0946
      8 C8          2.1005   -2.9722   -0.5975 C.2       1 <0>        -0.0934
      9 C9          3.1721   -2.5248   -1.4939 C.ar      1 <0>        -0.0865
     10 C10         3.4476   -3.2857   -2.7284 C.ar      1 <0>        -0.0927
     11 C11         4.4230   -2.9170   -3.5290 C.ar      1 <0>        -0.1290
     12 C12         5.2437   -1.7405   -3.1942 C.ar      1 <0>        -0.1068
     13 C13         4.9906   -1.0548   -2.1012 C.ar      1 <0>        -0.1307
     14 C14         3.8874   -1.4612   -1.2093 C.ar      1 <0>         0.1898
     15 N1          3.5996   -0.7020   -0.1304 N.pl3     1 <0>        -0.5928
     16 C15         4.5778   -0.5767    0.9530 C.3       1 <0>         0.1328
     17 C16         4.3408   -1.6817    1.9843 C.3       1 <0>        -0.1304
     18 C17         5.3623   -1.5509    3.1158 C.3       1 <0>         0.0595
     19 N2          5.1348   -2.6119    4.1060 N.3       1 <0>        -0.5387
     20 C18         3.8429   -2.4321    4.7831 C.3       1 <0>         0.0569
     21 C19         3.6084   -3.5979    5.7466 C.3       1 <0>         0.0580
     22 N3          4.7072   -3.6534    6.7210 N.3       1 <0>        -0.5309
     23 C20         5.9990   -3.8331    6.0439 C.3       1 <0>         0.0546
     24 C21         6.2335   -2.6673    5.0804 C.3       1 <0>         0.0586
     25 C22         4.4796   -4.7143    7.7112 C.3       1 <0>         0.0541
     26 C23         5.5011   -4.5835    8.8427 C.3       1 <0>         0.0794
     27 O1          5.2807   -3.3581    9.5441 O.3       1 <0>        -0.5597
     28 H1         -0.9580    1.8379    0.0256 H         1 <0>         0.1252
     29 H2          1.2381    3.1429    0.0155 H         1 <0>         0.1250
     30 H3          3.3245    1.9686   -0.0301 H         1 <0>         0.1217
     31 H4         -0.9270   -0.5547    0.0079 H         1 <0>         0.1236
     32 H5          0.5411   -2.6662    0.6654 H         1 <0>         0.1152
     33 H6          1.9826   -4.0367   -0.4581 H         1 <0>         0.1157
     34 H7          2.8462   -4.1483   -2.9745 H         1 <0>         0.1237
     35 H8          4.6222   -3.4759   -4.4314 H         1 <0>         0.1253
     36 H9          6.0521   -1.4418   -3.8451 H         1 <0>         0.1249
     37 H10         5.5919   -0.1920   -1.8553 H         1 <0>         0.1217
     38 H11         5.5847   -0.6694    0.5460 H         1 <0>         0.0730
     39 H12         4.4674    0.3965    1.4314 H         1 <0>         0.0713
     40 H13         3.3339   -1.5890    2.3913 H         1 <0>         0.0651
     41 H14         4.4511   -2.6549    1.5060 H         1 <0>         0.0727
     42 H15         6.3692   -1.6436    2.7088 H         1 <0>         0.0745
     43 H16         5.2519   -0.5777    3.5942 H         1 <0>         0.0349
     44 H17         3.8518   -1.4956    5.3407 H         1 <0>         0.0425
     45 H18         3.0442   -2.4068    4.0418 H         1 <0>         0.0812
     46 H19         2.6642   -3.4518    6.2712 H         1 <0>         0.0790
     47 H20         3.5724   -4.5318    5.1856 H         1 <0>         0.0411
     48 H21         6.7977   -3.8584    6.7852 H         1 <0>         0.0793
     49 H22         5.9901   -4.7696    5.4863 H         1 <0>         0.0411
     50 H23         7.1777   -2.8134    4.5558 H         1 <0>         0.0786
     51 H24         6.2696   -1.7335    5.6414 H         1 <0>         0.0432
     52 H25         3.4727   -4.6216    8.1182 H         1 <0>         0.0829
     53 H26         4.5900   -5.6875    7.2328 H         1 <0>         0.0488
     54 H27         5.3901   -5.4212    9.5311 H         1 <0>         0.0486
     55 H28         6.5081   -4.5871    8.4254 H         1 <0>         0.0454
     56 H29         5.8937   -3.2085   10.2768 H         1 <0>         0.3750
@<TRIPOS>BOND
     1    1    6 ar
     2    1    2 ar
     3    1   28 1
     4    2    3 ar
     5    2   29 1
     6    3    4 ar
     7    3   30 1
     8    4   15 1
     9    4    5 ar
    10    5    6 ar
    11    5    7 1
    12    6   31 1
    13    7    8 2
    14    7   32 1
    15    8    9 1
    16    8   33 1
    17    9   14 ar
    18    9   10 ar
    19   10   11 ar
    20   10   34 1
    21   11   12 ar
    22   11   35 1
    23   12   13 ar
    24   12   36 1
    25   13   14 ar
    26   13   37 1
    27   14   15 1
    28   15   16 1
    29   16   17 1
    30   16   38 1
    31   16   39 1
    32   17   18 1
    33   17   40 1
    34   17   41 1
    35   18   19 1
    36   18   42 1
    37   18   43 1
    38   19   24 1
    39   19   20 1
    40   20   21 1
    41   20   44 1
    42   20   45 1
    43   21   22 1
    44   21   46 1
    45   21   47 1
    46   22   23 1
    47   22   25 1
    48   23   24 1
    49   23   48 1
    50   23   49 1
    51   24   50 1
    52   24   51 1
    53   25   26 1
    54   25   52 1
    55   25   53 1
    56   26   27 1
    57   26   54 1
    58   26   55 1
    59   27   56 1
@<TRIPOS>MOLECULE
ZINC12495255
   55    56     0     0     0
SMALL
USER_CHARGES

@<TRIPOS>ATOM
      1 C1          1.4354   -1.2374   -2.2145 C.3       1 <0>        -0.1456
      2 C2          0.7466   -1.4502   -0.8650 C.3       1 <0>         0.0906
      3 H1          1.2894   -2.2036   -0.2942 H         1 <0>         0.0661
      4 C3         -0.6922   -1.9205   -1.0940 C.3       1 <0>         0.0231
      5 N1         -1.3725   -2.0491    0.2029 N.3       1 <0>        -0.5349
      6 C4         -1.3697   -0.7669    0.9220 C.3       1 <0>         0.0239
      7 C5          0.0759   -0.3081    1.1307 C.3       1 <0>         0.0906
      8 H2          0.5989   -1.0280    1.7603 H         1 <0>         0.0663
      9 O1          0.7312   -0.2191   -0.1373 O.3       1 <0>        -0.3800
     10 C6          0.0838    1.0637    1.8083 C.3       1 <0>        -0.1455
     11 C7         -2.7414   -2.5537    0.0316 C.3       1 <0>         0.0587
     12 C8         -2.6989   -4.0553   -0.2587 C.3       1 <0>        -0.0772
     13 H3         -2.0727   -4.2390   -1.1318 H         1 <0>         0.0702
     14 C9         -2.1180   -4.7921    0.9498 C.3       1 <0>        -0.1396
     15 C10        -4.1164   -4.5622   -0.5321 C.3       1 <0>        -0.0772
     16 C11        -4.0617   -6.0125   -0.9379 C.ar      1 <0>        -0.0811
     17 C12        -3.9259   -6.3526   -2.2709 C.ar      1 <0>        -0.1158
     18 C13        -3.8757   -7.6829   -2.6432 C.ar      1 <0>        -0.1135
     19 C14        -3.9608   -8.6732   -1.6824 C.ar      1 <0>        -0.0728
     20 C15        -4.0958   -8.3331   -0.3494 C.ar      1 <0>        -0.1199
     21 C16        -4.1416   -7.0027    0.0233 C.ar      1 <0>        -0.1112
     22 C17        -3.9071  -10.1235   -2.0884 C.3       1 <0>        -0.0306
     23 C18        -2.5796  -10.4066   -2.7944 C.3       1 <0>        -0.1388
     24 C19        -4.0213  -11.0060   -0.8438 C.3       1 <0>        -0.1449
     25 C20        -5.0660  -10.4302   -3.0391 C.3       1 <0>        -0.1389
     26 H4          2.4592   -0.9011   -2.0509 H         1 <0>         0.0670
     27 H5          1.4455   -2.1756   -2.7693 H         1 <0>         0.0725
     28 H6          0.8922   -0.4839   -2.7849 H         1 <0>         0.0623
     29 H7         -1.2193   -1.1927   -1.7109 H         1 <0>         0.0422
     30 H8         -0.6834   -2.8871   -1.5978 H         1 <0>         0.0861
     31 H9         -1.9076   -0.0205    0.3374 H         1 <0>         0.0422
     32 H10        -1.8555   -0.8913    1.8898 H         1 <0>         0.0854
     33 H11        -0.4183    0.9952    2.7734 H         1 <0>         0.0728
     34 H12         1.1132    1.3897    1.9566 H         1 <0>         0.0670
     35 H13        -0.4380    1.7834    1.1776 H         1 <0>         0.0623
     36 H14        -3.3110   -2.3760    0.9438 H         1 <0>         0.0752
     37 H15        -3.2179   -2.0360   -0.8009 H         1 <0>         0.0372
     38 H16        -1.9863   -5.8459    0.7040 H         1 <0>         0.0522
     39 H17        -1.1536   -4.3569    1.2116 H         1 <0>         0.0659
     40 H18        -2.8002   -4.6986    1.7947 H         1 <0>         0.0482
     41 H19        -4.7192   -4.4599    0.3703 H         1 <0>         0.0722
     42 H20        -4.5630   -3.9766   -1.3357 H         1 <0>         0.0693
     43 H21        -3.8593   -5.5789   -3.0215 H         1 <0>         0.1178
     44 H22        -3.7703   -7.9486   -3.6847 H         1 <0>         0.1186
     45 H23        -4.1626   -9.1068    0.4012 H         1 <0>         0.1248
     46 H24        -4.2433   -6.7370    1.0652 H         1 <0>         0.1195
     47 H25        -1.7540  -10.1881   -2.1171 H         1 <0>         0.0561
     48 H26        -2.5408  -11.4556   -3.0880 H         1 <0>         0.0586
     49 H27        -2.4983   -9.7779   -3.6810 H         1 <0>         0.0564
     50 H28        -4.9670  -10.8043   -0.3408 H         1 <0>         0.0584
     51 H29        -3.9824  -12.0550   -1.1374 H         1 <0>         0.0584
     52 H30        -3.1957  -10.7875   -0.1665 H         1 <0>         0.0585
     53 H31        -4.9846   -9.8015   -3.9258 H         1 <0>         0.0564
     54 H32        -5.0271  -11.4792   -3.3327 H         1 <0>         0.0586
     55 H33        -6.0117  -10.2285   -2.5362 H         1 <0>         0.0560
@<TRIPOS>BOND
     1    1    2 1
     2    1   26 1
     3    1   27 1
     4    1   28 1
     5    2    3 1
     6    2    9 1
     7    2    4 1
     8    4    5 1
     9    4   29 1
    10    4   30 1
    11    5    6 1
    12    5   11 1
    13    6    7 1
    14    6   31 1
    15    6   32 1
    16    7    8 1
    17    7    9 1
    18    7   10 1
    19   10   33 1
    20   10   34 1
    21   10   35 1
    22   11   12 1
    23   11   36 1
    24   11   37 1
    25   12   13 1
    26   12   14 1
    27   12   15 1
    28   14   38 1
    29   14   39 1
    30   14   40 1
    31   15   16 1
    32   15   41 1
    33   15   42 1
    34   16   21 ar
    35   16   17 ar
    36   17   18 ar
    37   17   43 1
    38   18   19 ar
    39   18   44 1
    40   19   20 ar
    41   19   22 1
    42   20   21 ar
    43   20   45 1
    44   21   46 1
    45   22   23 1
    46   22   24 1
    47   22   25 1
    48   23   47 1
    49   23   48 1
    50   23   49 1
    51   24   50 1
    52   24   51 1
    53   24   52 1
    54   25   53 1
    55   25   54 1
    56   25   55 1
@<TRIPOS>MOLECULE
ZINC13545798
   55    56     0     0     0
SMALL
USER_CHARGES
(2S,6R)-4-[(2R)-3-(4-tert-butylphenyl)-2-methyl-propyl]-2,6-dimethyl-morpholine
@<TRIPOS>ATOM
      1 C1         -0.4258    0.8450   -2.4851 C.3       1 <0>        -0.1461
      2 C2         -0.9692    1.4960   -1.2115 C.3       1 <0>         0.0914
      3 H1         -0.8949    2.5922   -1.2643 H         1 <0>         0.0660
      4 C3         -0.2208    0.9433    0.0044 C.3       1 <0>         0.0243
      5 N1         -0.7983    1.5132    1.2304 N.3       1 <0>        -0.5338
      6 C4         -2.2296    1.1926    1.3299 C.3       1 <0>         0.0219
      7 C5         -2.9578    1.7428    0.1006 C.3       1 <0>         0.0915
      8 H2         -2.8463    2.8344    0.0229 H         1 <0>         0.0656
      9 O1         -2.3626    1.2014   -1.0817 O.3       1 <0>        -0.3901
     10 C6         -4.4335    1.3433    0.1597 C.3       1 <0>        -0.1463
     11 C7         -0.0713    1.0506    2.4202 C.3       1 <0>         0.0585
     12 C8         -0.5425    1.8386    3.6441 C.3       1 <0>        -0.0804
     13 H3         -1.6318    1.7305    3.7528 H         1 <0>         0.0715
     14 C9         -0.1921    3.3171    3.4646 C.3       1 <0>        -0.1412
     15 C10         0.1512    1.2985    4.8963 C.3       1 <0>        -0.0780
     16 C11        -0.4027    1.9902    6.1153 C.ar      1 <0>        -0.0811
     17 C12         0.1864    3.1520    6.5781 C.ar      1 <0>        -0.1114
     18 C13        -0.3246    3.7891    7.6934 C.ar      1 <0>        -0.1200
     19 C14        -1.4186    3.2591    8.3517 C.ar      1 <0>        -0.0725
     20 C15        -2.0041    2.0943    7.8921 C.ar      1 <0>        -0.1135
     21 C16        -1.4963    1.4599    6.7738 C.ar      1 <0>        -0.1159
     22 C17        -1.9724    3.9509    9.5706 C.3       1 <0>        -0.0299
     23 C18        -1.9027    3.0039   10.7703 C.3       1 <0>        -0.1405
     24 C19        -1.1482    5.2063    9.8632 C.3       1 <0>        -0.1465
     25 C20        -3.4287    4.3448    9.3158 C.3       1 <0>        -0.1403
     26 H4          0.6459    1.0720   -2.5843 H         1 <0>         0.0736
     27 H5         -0.9665    1.2396   -3.3580 H         1 <0>         0.0675
     28 H6         -0.5662   -0.2445   -2.4286 H         1 <0>         0.0635
     29 H7         -0.3165   -0.1523    0.0269 H         1 <0>         0.0433
     30 H8          0.8424    1.2172   -0.0638 H         1 <0>         0.0863
     31 H9         -2.3585    0.1012    1.3765 H         1 <0>         0.0428
     32 H10        -2.6455    1.6501    2.2397 H         1 <0>         0.0889
     33 H11        -4.9561    1.7389   -0.7237 H         1 <0>         0.0675
     34 H12        -4.8892    1.7573    1.0713 H         1 <0>         0.0734
     35 H13        -4.5161    0.2465    0.1741 H         1 <0>         0.0635
     36 H14        -0.2671   -0.0206    2.5761 H         1 <0>         0.0348
     37 H15         1.0076    1.2088    2.2753 H         1 <0>         0.0777
     38 H16        -0.5309    3.8836    4.3445 H         1 <0>         0.0540
     39 H17        -0.6907    3.7054    2.5642 H         1 <0>         0.0644
     40 H18         0.8972    3.4252    3.3560 H         1 <0>         0.0501
     41 H19        -0.0271    0.2160    4.9762 H         1 <0>         0.0699
     42 H20         1.2326    1.4878    4.8269 H         1 <0>         0.0733
     43 H21         1.0435    3.5638    6.0662 H         1 <0>         0.1198
     44 H22         0.1331    4.6990    8.0526 H         1 <0>         0.1249
     45 H23        -2.8585    1.6800    8.4066 H         1 <0>         0.1186
     46 H24        -1.9538    0.5499    6.4148 H         1 <0>         0.1177
     47 H25        -2.3069    3.5089   11.6600 H         1 <0>         0.0592
     48 H26        -0.8557    2.7206   10.9534 H         1 <0>         0.0565
     49 H27        -2.4953    2.1014   10.5599 H         1 <0>         0.0568
     50 H28        -1.5525    5.7112   10.7529 H         1 <0>         0.0589
     51 H29        -1.1984    5.8871    9.0007 H         1 <0>         0.0590
     52 H30        -0.1012    4.9231   10.0464 H         1 <0>         0.0589
     53 H31        -3.8330    4.8498   10.2055 H         1 <0>         0.0591
     54 H32        -4.0212    3.4422    9.1055 H         1 <0>         0.0568
     55 H33        -3.4788    5.0256    8.4532 H         1 <0>         0.0565
@<TRIPOS>BOND
     1    1    2 1
     2    1   26 1
     3    1   27 1
     4    1   28 1
     5    2    3 1
     6    2    9 1
     7    2    4 1
     8    4    5 1
     9    4   29 1
    10    4   30 1
    11    5    6 1
    12    5   11 1
    13    6    7 1
    14    6   31 1
    15    6   32 1
    16    7    8 1
    17    7    9 1
    18    7   10 1
    19   10   33 1
    20   10   34 1
    21   10   35 1
    22   11   12 1
    23   11   36 1
    24   11   37 1
    25   12   13 1
    26   12   14 1
    27   12   15 1
    28   14   38 1
    29   14   39 1
    30   14   40 1
    31   15   16 1
    32   15   41 1
    33   15   42 1
    34   16   21 ar
    35   16   17 ar
    36   17   18 ar
    37   17   43 1
    38   18   19 ar
    39   18   44 1
    40   19   20 ar
    41   19   22 1
    42   20   21 ar
    43   20   45 1
    44   21   46 1
    45   22   23 1
    46   22   24 1
    47   22   25 1
    48   23   47 1
    49   23   48 1
    50   23   49 1
    51   24   50 1
    52   24   51 1
    53   24   52 1
    54   25   53 1
    55   25   54 1
    56   25   55 1
@<TRIPOS>MOLECULE
ZINC22012325
   60    62     0     0     0
SMALL
USER_CHARGES
1-[2-(3,4-dimethoxyphenyl)ethyl]-4-(3-phenylpropyl)piperazine
@<TRIPOS>ATOM
      1 C1          1.5825   -1.5608    6.3572 C.3       1 <0>         0.0193
      2 O1          1.9921   -0.2961    5.8330 O.3       1 <0>        -0.3012
      3 C2          1.3360    0.1575    4.7315 C.ar      1 <0>         0.1175
      4 C3          0.3208   -0.5984    4.1676 C.ar      1 <0>        -0.1718
      5 C4         -0.3486   -0.1335    3.0510 C.ar      1 <0>        -0.1027
      6 C5          0.0000    1.0800    2.4877 C.ar      1 <0>        -0.1079
      7 C6          1.0120    1.8391    3.0453 C.ar      1 <0>        -0.1658
      8 C7          1.6831    1.3815    4.1678 C.ar      1 <0>         0.1058
      9 O2          2.6791    2.1268    4.7173 O.3       1 <0>        -0.3007
     10 C8          2.9816    3.3723    4.0854 C.3       1 <0>         0.0219
     11 C9         -0.7288    1.5792    1.2668 C.3       1 <0>        -0.0945
     12 C10        -0.0127    1.0858    0.0080 C.3       1 <0>        -0.0037
     13 N1         -0.7232    1.5724   -1.1821 N.4       1 <0>        -0.4010
     14 C11        -2.0582    0.9664   -1.2830 C.3       1 <0>        -0.0041
     15 C12        -2.7940    1.5574   -2.4879 C.3       1 <0>         0.0170
     16 N2         -2.0121    1.3078   -3.7068 N.3       1 <0>        -0.5384
     17 C13        -0.6771    1.9138   -3.6059 C.3       1 <0>         0.0249
     18 C14         0.0588    1.3229   -2.4010 C.3       1 <0>         0.0013
     19 C15        -2.7225    1.7944   -4.8969 C.3       1 <0>         0.0525
     20 C16        -4.1835    1.3438   -4.8385 C.3       1 <0>        -0.1196
     21 C17        -4.9235    1.8506   -6.0780 C.3       1 <0>        -0.0802
     22 C18        -6.3625    1.4068   -6.0205 C.ar      1 <0>        -0.0895
     23 C19        -6.7366    0.2001   -6.5816 C.ar      1 <0>        -0.1167
     24 C20        -8.0557   -0.2093   -6.5246 C.ar      1 <0>        -0.1158
     25 C21        -9.0025    0.5926   -5.9153 C.ar      1 <0>        -0.1198
     26 C22        -8.6295    1.8020   -5.3592 C.ar      1 <0>        -0.1171
     27 C23        -7.3094    2.2089   -5.4116 C.ar      1 <0>        -0.1195
     28 H1          2.1904   -1.8058    7.2406 H         1 <0>         0.1095
     29 H2          1.7201   -2.3375    5.5905 H         1 <0>         0.0592
     30 H3          0.5216   -1.5126    6.6440 H         1 <0>         0.0600
     31 H4          0.0495   -1.5488    4.6031 H         1 <0>         0.1419
     32 H5         -1.1427   -0.7215    2.6151 H         1 <0>         0.1286
     33 H6          1.2791    2.7889    2.6061 H         1 <0>         0.1365
     34 H7          3.7998    3.8692    4.6273 H         1 <0>         0.1086
     35 H8          2.0896    4.0159    4.0978 H         1 <0>         0.0571
     36 H9          3.2882    3.1905    3.0447 H         1 <0>         0.0547
     37 H10        -1.7608    1.1985    1.2746 H         1 <0>         0.0955
     38 H11        -0.7437    2.6791    1.2728 H         1 <0>         0.0937
     39 H12         1.0193    1.4666    0.0002 H         1 <0>         0.1321
     40 H13         0.0023   -0.0141    0.0019 H         1 <0>         0.1306
     41 H14        -1.9583   -0.1216   -1.4107 H         1 <0>         0.1355
     42 H15        -2.6269    1.1772   -0.3653 H         1 <0>         0.1362
     43 H16        -3.7826    1.0843   -2.5820 H         1 <0>         0.1291
     44 H17        -2.9182    2.6412   -2.3463 H         1 <0>         0.0604
     45 H18        -0.1084    1.7029   -4.5236 H         1 <0>         0.1236
     46 H19        -0.7770    3.0018   -3.4783 H         1 <0>         0.0606
     47 H20         1.0473    1.7960   -2.3057 H         1 <0>         0.1356
     48 H21         0.1831    0.2390   -2.5415 H         1 <0>         0.1354
     49 H22        -2.6785    2.8931   -4.9265 H         1 <0>         0.0478
     50 H23        -2.2480    1.3840   -5.8005 H         1 <0>         0.0926
     51 H24        -4.2274    0.2451   -4.8089 H         1 <0>         0.0787
     52 H25        -4.6579    1.7541   -3.9349 H         1 <0>         0.0671
     53 H26        -4.8796    2.9493   -6.1076 H         1 <0>         0.0736
     54 H27        -4.4491    1.4403   -6.9816 H         1 <0>         0.0775
     55 H28        -5.9975   -0.4246   -7.0613 H         1 <0>         0.1212
     56 H29        -8.3472   -1.1540   -6.9594 H         1 <0>         0.1242
     57 H30       -10.0338    0.2745   -5.8740 H         1 <0>         0.1240
     58 H31        -9.3693    2.4287   -4.8834 H         1 <0>         0.1233
     59 H32        -7.0180    3.1537   -4.9771 H         1 <0>         0.1185
     60 H33        -0.8508    2.6599   -1.0770 H         1 <0>         0.4366
@<TRIPOS>BOND
     1    1    2 1
     2    1   28 1
     3    1   29 1
     4    1   30 1
     5    2    3 1
     6    3    8 ar
     7    3    4 ar
     8    4    5 ar
     9    4   31 1
    10    5    6 ar
    11    5   32 1
    12    6    7 ar
    13    6   11 1
    14    7    8 ar
    15    7   33 1
    16    8    9 1
    17    9   10 1
    18   10   34 1
    19   10   35 1
    20   10   36 1
    21   11   12 1
    22   11   37 1
    23   11   38 1
    24   12   13 1
    25   12   39 1
    26   12   40 1
    27   13   18 1
    28   13   14 1
    29   13   60 1
    30   14   15 1
    31   14   41 1
    32   14   42 1
    33   15   16 1
    34   15   43 1
    35   15   44 1
    36   16   17 1
    37   16   19 1
    38   17   18 1
    39   17   45 1
    40   17   46 1
    41   18   47 1
    42   18   48 1
    43   19   20 1
    44   19   49 1
    45   19   50 1
    46   20   21 1
    47   20   51 1
    48   20   52 1
    49   21   22 1
    50   21   53 1
    51   21   54 1
    52   22   27 ar
    53   22   23 ar
    54   23   24 ar
    55   23   55 1
    56   24   25 ar
    57   24   56 1
    58   25   26 ar
    59   25   57 1
    60   26   27 ar
    61   26   58 1
    62   27   59 1
@<TRIPOS>MOLECULE
ZINC22012325
   60    62     0     0     0
SMALL
USER_CHARGES
1-[2-(3,4-dimethoxyphenyl)ethyl]-4-(3-phenylpropyl)piperazine
@<TRIPOS>ATOM
      1 C1          1.5825   -1.5608    6.3572 C.3       1 <0>         0.0214
      2 O1          1.9921   -0.2961    5.8330 O.3       1 <0>        -0.3042
      3 C2          1.3360    0.1575    4.7315 C.ar      1 <0>         0.1047
      4 C3          0.3208   -0.5984    4.1676 C.ar      1 <0>        -0.1712
      5 C4         -0.3486   -0.1335    3.0510 C.ar      1 <0>        -0.1118
      6 C5          0.0000    1.0800    2.4877 C.ar      1 <0>        -0.0932
      7 C6          1.0120    1.8391    3.0453 C.ar      1 <0>        -0.1671
      8 C7          1.6831    1.3815    4.1678 C.ar      1 <0>         0.1041
      9 O2          2.6791    2.1268    4.7173 O.3       1 <0>        -0.3036
     10 C8          2.9816    3.3723    4.0854 C.3       1 <0>         0.0227
     11 C9         -0.7288    1.5792    1.2668 C.3       1 <0>        -0.0710
     12 C10        -0.0127    1.0858    0.0080 C.3       1 <0>         0.0588
     13 N1         -0.7232    1.5724   -1.1821 N.3       1 <0>        -0.5396
     14 C11        -2.0582    0.9664   -1.2830 C.3       1 <0>         0.0199
     15 C12        -2.7940    1.5574   -2.4879 C.3       1 <0>        -0.0067
     16 N2         -2.0121    1.3078   -3.7068 N.4       1 <0>        -0.4003
     17 C13        -0.6771    1.9138   -3.6059 C.3       1 <0>         0.0018
     18 C14         0.0588    1.3229   -2.4010 C.3       1 <0>         0.0248
     19 C15        -2.7225    1.7944   -4.8969 C.3       1 <0>        -0.0066
     20 C16        -4.1835    1.3438   -4.8385 C.3       1 <0>        -0.1458
     21 C17        -4.9235    1.8506   -6.0780 C.3       1 <0>        -0.0747
     22 C18        -6.3625    1.4068   -6.0205 C.ar      1 <0>        -0.1001
     23 C19        -6.7366    0.2001   -6.5816 C.ar      1 <0>        -0.1158
     24 C20        -8.0557   -0.2093   -6.5246 C.ar      1 <0>        -0.1154
     25 C21        -9.0025    0.5926   -5.9153 C.ar      1 <0>        -0.1133
     26 C22        -8.6295    1.8020   -5.3592 C.ar      1 <0>        -0.1153
     27 C23        -7.3094    2.2089   -5.4116 C.ar      1 <0>        -0.1159
     28 H1          2.1904   -1.8058    7.2406 H         1 <0>         0.1064
     29 H2          1.7201   -2.3375    5.5905 H         1 <0>         0.0567
     30 H3          0.5216   -1.5126    6.6440 H         1 <0>         0.0576
     31 H4          0.0495   -1.5488    4.6031 H         1 <0>         0.1375
     32 H5         -1.1427   -0.7215    2.6151 H         1 <0>         0.1235
     33 H6          1.2791    2.7889    2.6061 H         1 <0>         0.1355
     34 H7          3.7998    3.8692    4.6273 H         1 <0>         0.1058
     35 H8          2.0896    4.0159    4.0978 H         1 <0>         0.0565
     36 H9          3.2882    3.1905    3.0447 H         1 <0>         0.0547
     37 H10        -1.7608    1.1985    1.2746 H         1 <0>         0.0734
     38 H11        -0.7437    2.6791    1.2728 H         1 <0>         0.0845
     39 H12         1.0193    1.4666    0.0002 H         1 <0>         0.0900
     40 H13         0.0023   -0.0141    0.0019 H         1 <0>         0.0497
     41 H14        -1.9583   -0.1216   -1.4107 H         1 <0>         0.0610
     42 H15        -2.6269    1.1772   -0.3653 H         1 <0>         0.1255
     43 H16        -3.7826    1.0843   -2.5820 H         1 <0>         0.1392
     44 H17        -2.9182    2.6412   -2.3463 H         1 <0>         0.1355
     45 H18        -0.1084    1.7029   -4.5236 H         1 <0>         0.1360
     46 H19        -0.7770    3.0018   -3.4783 H         1 <0>         0.1350
     47 H20         1.0473    1.7960   -2.3057 H         1 <0>         0.1235
     48 H21         0.1831    0.2390   -2.5415 H         1 <0>         0.0609
     49 H22        -2.6785    2.8931   -4.9265 H         1 <0>         0.1285
     50 H23        -2.2480    1.3840   -5.8005 H         1 <0>         0.1327
     51 H24        -4.2274    0.2451   -4.8089 H         1 <0>         0.0882
     52 H25        -4.6579    1.7541   -3.9349 H         1 <0>         0.0908
     53 H26        -4.8796    2.9493   -6.1076 H         1 <0>         0.0830
     54 H27        -4.4491    1.4403   -6.9816 H         1 <0>         0.0831
     55 H28        -5.9975   -0.4246   -7.0613 H         1 <0>         0.1211
     56 H29        -8.3472   -1.1540   -6.9594 H         1 <0>         0.1260
     57 H30       -10.0338    0.2745   -5.8740 H         1 <0>         0.1265
     58 H31        -9.3693    2.4287   -4.8834 H         1 <0>         0.1261
     59 H32        -7.0180    3.1537   -4.9771 H         1 <0>         0.1211
     60 H33        -1.8846    0.2203   -3.8119 H         1 <0>         0.4381
@<TRIPOS>BOND
     1    1    2 1
     2    1   28 1
     3    1   29 1
     4    1   30 1
     5    2    3 1
     6    3    8 ar
     7    3    4 ar
     8    4    5 ar
     9    4   31 1
    10    5    6 ar
    11    5   32 1
    12    6    7 ar
    13    6   11 1
    14    7    8 ar
    15    7   33 1
    16    8    9 1
    17    9   10 1
    18   10   34 1
    19   10   35 1
    20   10   36 1
    21   11   12 1
    22   11   37 1
    23   11   38 1
    24   12   13 1
    25   12   39 1
    26   12   40 1
    27   13   18 1
    28   13   14 1
    29   14   15 1
    30   14   41 1
    31   14   42 1
    32   15   16 1
    33   15   43 1
    34   15   44 1
    35   16   17 1
    36   16   19 1
    37   16   60 1
    38   17   18 1
    39   17   45 1
    40   17   46 1
    41   18   47 1
    42   18   48 1
    43   19   20 1
    44   19   49 1
    45   19   50 1
    46   20   21 1
    47   20   51 1
    48   20   52 1
    49   21   22 1
    50   21   53 1
    51   21   54 1
    52   22   27 ar
    53   22   23 ar
    54   23   24 ar
    55   23   55 1
    56   24   25 ar
    57   24   56 1
    58   25   26 ar
    59   25   57 1
    60   26   27 ar
    61   26   58 1
    62   27   59 1
@<TRIPOS>MOLECULE
ZINC19418959
   53    56     0     0     0
SMALL
USER_CHARGES

@<TRIPOS>ATOM
      1 C1          0.4204    1.5427   -0.3194 C.3       1 <0>        -0.0460
      2 N1          0.3487    0.0771   -0.2504 N.4       1 <0>        -0.3881
      3 C2          0.9699   -0.5001   -1.4498 C.3       1 <0>        -0.0029
      4 C3          0.8787   -2.0264   -1.3873 C.3       1 <0>         0.0253
      5 N2          1.5653   -2.5063   -0.1797 N.3       1 <0>        -0.5381
      6 C4          0.9701   -1.9172    1.0281 C.3       1 <0>         0.0200
      7 C5          1.0605   -0.3919    0.9458 C.3       1 <0>        -0.0028
      8 C6          1.5488   -3.9737   -0.1128 C.3       1 <0>         0.0563
      9 C7          2.4763   -4.4435    1.0097 C.3       1 <0>        -0.1490
     10 C8          2.4590   -5.9719    1.0794 C.3       1 <0>         0.1115
     11 N3          3.3471   -6.4217    2.1542 N.pl3     1 <0>        -0.5624
     12 C9          2.7947   -6.5759    3.4230 C.ar      1 <0>         0.1921
     13 C10         1.6439   -5.8634    3.7445 C.ar      1 <0>        -0.1625
     14 C11         1.0657   -5.9970    4.9923 C.ar      1 <0>        -0.0785
     15 C12         1.6269   -6.8403    5.9324 C.ar      1 <0>        -0.1323
     16 C13         2.7718   -7.5521    5.6246 C.ar      1 <0>        -0.0529
     17 C14         3.3588   -7.4215    4.3741 C.ar      1 <0>        -0.1573
     18 S1          4.8225   -8.3286    4.0036 S.3       1 <0>         0.0431
     19 C15         5.4784   -7.5174    2.5843 C.ar      1 <0>        -0.1233
     20 C16         4.6781   -6.6680    1.8281 C.ar      1 <0>         0.1899
     21 C17         5.2223   -6.0407    0.7125 C.ar      1 <0>        -0.1146
     22 C18         6.5389   -6.2664    0.3573 C.ar      1 <0>        -0.1463
     23 C19         7.3258   -7.1180    1.1085 C.ar      1 <0>        -0.0830
     24 C20         6.7996   -7.7356    2.2221 C.ar      1 <0>        -0.0588
     25 C21         7.1179   -5.5814   -0.8538 C.3       1 <0>         0.5109
     26 F1          7.6743   -4.3552   -0.4745 F         1 <0>        -0.1740
     27 F2          8.1112   -6.3901   -1.4165 F         1 <0>        -0.1704
     28 F3          6.1057   -5.3632   -1.7946 F         1 <0>        -0.1785
     29 H1          1.4638    1.8534   -0.3722 H         1 <0>         0.1234
     30 H2         -0.1078    1.8910   -1.2070 H         1 <0>         0.1248
     31 H3         -0.0417    1.9713    0.5699 H         1 <0>         0.1244
     32 H4          0.4490   -0.1411   -2.3374 H         1 <0>         0.1368
     33 H5          2.0168   -0.2004   -1.4968 H         1 <0>         0.1381
     34 H6         -0.1685   -2.3271   -1.3541 H         1 <0>         0.0616
     35 H7          1.3528   -2.4555   -2.2701 H         1 <0>         0.1249
     36 H8         -0.0756   -2.2162    1.1011 H         1 <0>         0.0619
     37 H9          1.5109   -2.2667    1.9076 H         1 <0>         0.1238
     38 H10         2.1070   -0.0926    0.8865 H         1 <0>         0.1379
     39 H11         0.6068    0.0475    1.8341 H         1 <0>         0.1360
     40 H12         0.5337   -4.3169    0.0871 H         1 <0>         0.0515
     41 H13         1.8908   -4.3847   -1.0626 H         1 <0>         0.0934
     42 H14         3.4913   -4.1004    0.8098 H         1 <0>         0.0856
     43 H15         2.1342   -4.0326    1.9596 H         1 <0>         0.0755
     44 H16         1.4439   -6.3150    1.2793 H         1 <0>         0.0895
     45 H17         2.8011   -6.3828    0.1296 H         1 <0>         0.0899
     46 H18         1.2002   -5.2020    3.0150 H         1 <0>         0.1272
     47 H19         0.1723   -5.4402    5.2339 H         1 <0>         0.1308
     48 H20         1.1719   -6.9431    6.9065 H         1 <0>         0.1354
     49 H21         3.2102   -8.2112    6.3594 H         1 <0>         0.1375
     50 H22         4.6131   -5.3736    0.1208 H         1 <0>         0.1431
     51 H23         8.3536   -7.2935    0.8271 H         1 <0>         0.1481
     52 H24         7.4163   -8.4005    2.8086 H         1 <0>         0.1492
     53 H25        -0.6172   -0.2102   -0.2010 H         1 <0>         0.4223
@<TRIPOS>BOND
     1    1    2 1
     2    1   29 1
     3    1   30 1
     4    1   31 1
     5    2    7 1
     6    2    3 1
     7    2   53 1
     8    3    4 1
     9    3   32 1
    10    3   33 1
    11    4    5 1
    12    4   34 1
    13    4   35 1
    14    5    6 1
    15    5    8 1
    16    6    7 1
    17    6   36 1
    18    6   37 1
    19    7   38 1
    20    7   39 1
    21    8    9 1
    22    8   40 1
    23    8   41 1
    24    9   10 1
    25    9   42 1
    26    9   43 1
    27   10   11 1
    28   10   44 1
    29   10   45 1
    30   11   20 1
    31   11   12 1
    32   12   17 ar
    33   12   13 ar
    34   13   14 ar
    35   13   46 1
    36   14   15 ar
    37   14   47 1
    38   15   16 ar
    39   15   48 1
    40   16   17 ar
    41   16   49 1
    42   17   18 1
    43   18   19 1
    44   19   24 ar
    45   19   20 ar
    46   20   21 ar
    47   21   22 ar
    48   21   50 1
    49   22   23 ar
    50   22   25 1
    51   23   24 ar
    52   23   51 1
    53   24   52 1
    54   25   26 1
    55   25   27 1
    56   25   28 1
@<TRIPOS>MOLECULE
ZINC19418959
   53    56     0     0     0
SMALL
USER_CHARGES

@<TRIPOS>ATOM
      1 C1          0.4328    1.5258   -0.3011 C.3       1 <0>         0.0191
      2 N1          0.3593    0.0600   -0.2373 N.3       1 <0>        -0.5429
      3 C2          0.8896   -0.5479   -1.4659 C.3       1 <0>         0.0236
      4 C3          0.7405   -2.0687   -1.3844 C.3       1 <0>        -0.0021
      5 N2          1.4724   -2.5705   -0.2140 N.4       1 <0>        -0.3864
      6 C4          0.9155   -1.9734    1.0070 C.3       1 <0>        -0.0074
      7 C5          1.0660   -0.4518    0.9454 C.3       1 <0>         0.0248
      8 C6          1.3441   -4.0323   -0.1464 C.3       1 <0>        -0.0072
      9 C7          2.2069   -4.5677    0.9981 C.3       1 <0>        -0.1860
     10 C8          2.0732   -6.0902    1.0685 C.3       1 <0>         0.1181
     11 N3          2.8994   -6.6028    2.1644 N.pl3     1 <0>        -0.5624
     12 C9          2.3073   -6.7118    3.4198 C.ar      1 <0>         0.1854
     13 C10         1.2060   -5.9141    3.7135 C.ar      1 <0>        -0.1634
     14 C11         0.5902   -6.0007    4.9473 C.ar      1 <0>        -0.0766
     15 C12         1.0642   -6.8815    5.9011 C.ar      1 <0>        -0.1271
     16 C13         2.1593   -7.6780    5.6210 C.ar      1 <0>        -0.0512
     17 C14         2.7837   -7.5950    4.3846 C.ar      1 <0>        -0.1555
     18 S1          4.1834   -8.6105    4.0495 S.3       1 <0>         0.0508
     19 C15         4.9317   -7.8544    2.6456 C.ar      1 <0>        -0.1201
     20 C16         4.2155   -6.9492    1.8701 C.ar      1 <0>         0.1860
     21 C17         4.8314   -6.3674    0.7671 C.ar      1 <0>        -0.1187
     22 C18         6.1353   -6.6922    0.4434 C.ar      1 <0>        -0.1465
     23 C19         6.8381   -7.5986    1.2136 C.ar      1 <0>        -0.0782
     24 C20         6.2409   -8.1721    2.3149 C.ar      1 <0>        -0.0564
     25 C21         6.7925   -6.0557   -0.7542 C.3       1 <0>         0.5107
     26 F1          7.4304   -4.8737   -0.3627 F         1 <0>        -0.1734
     27 F2          7.7352   -6.9381   -1.2927 F         1 <0>        -0.1677
     28 F3          5.8220   -5.7644   -1.7188 F         1 <0>        -0.1812
     29 H1          1.4765    1.8352   -0.3565 H         1 <0>         0.0399
     30 H2         -0.0981    1.8781   -1.1855 H         1 <0>         0.0846
     31 H3         -0.0256    1.9517    0.5914 H         1 <0>         0.0847
     32 H4          0.3342   -0.1736   -2.3259 H         1 <0>         0.1251
     33 H5          1.9434   -0.2910   -1.5732 H         1 <0>         0.0609
     34 H6         -0.3146   -2.3258   -1.2908 H         1 <0>         0.1393
     35 H7          1.1462   -2.5225   -2.2886 H         1 <0>         0.1373
     36 H8         -0.1405   -2.2310    1.0883 H         1 <0>         0.1397
     37 H9          1.4508   -2.3566    1.8757 H         1 <0>         0.1346
     38 H10         2.1227   -0.1933    0.8778 H         1 <0>         0.0606
     39 H11         0.6393   -0.0074    1.8446 H         1 <0>         0.1243
     40 H12         0.3016   -4.2978    0.0297 H         1 <0>         0.1367
     41 H13         1.6765   -4.4702   -1.0876 H         1 <0>         0.1368
     42 H14         3.2494   -4.3022    0.8220 H         1 <0>         0.0947
     43 H15         1.8745   -4.1298    1.9393 H         1 <0>         0.0988
     44 H16         1.0308   -6.3556    1.2446 H         1 <0>         0.1004
     45 H17         2.4057   -6.5280    0.1273 H         1 <0>         0.0974
     46 H18         0.8307   -5.2231    2.9732 H         1 <0>         0.1250
     47 H19        -0.2642   -5.3778    5.1674 H         1 <0>         0.1340
     48 H20         0.5800   -6.9473    6.8642 H         1 <0>         0.1380
     49 H21         2.5295   -8.3664    6.3664 H         1 <0>         0.1394
     50 H22         4.2881   -5.6578    0.1607 H         1 <0>         0.1365
     51 H23         7.8561   -7.8515    0.9568 H         1 <0>         0.1503
     52 H24         6.7918   -8.8800    2.9163 H         1 <0>         0.1515
     53 H25         2.4470   -2.3223   -0.2952 H         1 <0>         0.4212
@<TRIPOS>BOND
     1    1    2 1
     2    1   29 1
     3    1   30 1
     4    1   31 1
     5    2    7 1
     6    2    3 1
     7    3    4 1
     8    3   32 1
     9    3   33 1
    10    4    5 1
    11    4   34 1
    12    4   35 1
    13    5    6 1
    14    5    8 1
    15    5   53 1
    16    6    7 1
    17    6   36 1
    18    6   37 1
    19    7   38 1
    20    7   39 1
    21    8    9 1
    22    8   40 1
    23    8   41 1
    24    9   10 1
    25    9   42 1
    26    9   43 1
    27   10   11 1
    28   10   44 1
    29   10   45 1
    30   11   20 1
    31   11   12 1
    32   12   17 ar
    33   12   13 ar
    34   13   14 ar
    35   13   46 1
    36   14   15 ar
    37   14   47 1
    38   15   16 ar
    39   15   48 1
    40   16   17 ar
    41   16   49 1
    42   17   18 1
    43   18   19 1
    44   19   24 ar
    45   19   20 ar
    46   20   21 ar
    47   21   22 ar
    48   21   50 1
    49   22   23 ar
    50   22   25 1
    51   23   24 ar
    52   23   51 1
    53   24   52 1
    54   25   26 1
    55   25   27 1
    56   25   28 1
@<TRIPOS>MOLECULE
ZINC00537822
   50    52     0     0     0
SMALL
USER_CHARGES

@<TRIPOS>ATOM
      1 C1         -0.0169    1.3952    0.0097 C.ar      1 <0>        -0.0260
      2 C2          1.1683    2.0970    0.0022 C.ar      1 <0>        -0.1650
      3 C3          2.3789    1.4198   -0.0130 C.ar      1 <0>         0.1439
      4 C4          2.4047    0.0329   -0.0212 C.ar      1 <0>        -0.1670
      5 C5          1.2267   -0.6810   -0.0142 C.ar      1 <0>        -0.0432
      6 C6          0.0021   -0.0041    0.0020 C.ar      1 <0>        -0.1967
      7 C7         -1.2591   -0.7596    0.0105 C.2       1 <0>         0.4038
      8 O1         -2.3189   -0.1702    0.0242 O.2       1 <0>        -0.4483
      9 C8         -1.2348   -2.2664    0.0022 C.3       1 <0>        -0.1653
     10 C9         -2.6689   -2.7996    0.0135 C.3       1 <0>        -0.1429
     11 C10        -2.6443   -4.3293    0.0051 C.3       1 <0>        -0.0092
     12 N1         -4.0211   -4.8413    0.0160 N.4       1 <0>        -0.3830
     13 C11        -4.6726   -4.4620    1.2755 C.3       1 <0>        -0.0093
     14 C12        -6.1318   -4.9225    1.2582 C.3       1 <0>        -0.1330
     15 C13        -6.1791   -6.4445    1.0954 C.3       1 <0>         0.1746
     16 C14        -5.4322   -6.8346   -0.1834 C.3       1 <0>        -0.1706
     17 C15        -3.9990   -6.3033   -0.1127 C.3       1 <0>        -0.0017
     18 C16        -7.6135   -6.8966    0.9991 C.ar      1 <0>        -0.1262
     19 C17        -8.5661   -6.0599    0.4482 C.ar      1 <0>        -0.1006
     20 C18        -9.8818   -6.4740    0.3596 C.ar      1 <0>        -0.1039
     21 C19       -10.2453   -7.7262    0.8224 C.ar      1 <0>        -0.0247
     22 C20        -9.2914   -8.5631    1.3735 C.ar      1 <0>        -0.1016
     23 C21        -7.9750   -8.1501    1.4564 C.ar      1 <0>        -0.0934
     24 Cl1       -11.8977   -8.2468    0.7119 Cl        1 <0>        -0.0500
     25 O2         -5.5554   -7.0652    2.2213 O.3       1 <0>        -0.5474
     26 F1          3.5378    2.1141   -0.0204 F         1 <0>        -0.1258
     27 H1         -0.9587    1.9236    0.0260 H         1 <0>         0.1459
     28 H2          1.1551    3.1769    0.0077 H         1 <0>         0.1477
     29 H3          3.3506   -0.4883   -0.0334 H         1 <0>         0.1469
     30 H4          1.2482   -1.7608   -0.0213 H         1 <0>         0.1412
     31 H5         -0.7241   -2.6166   -0.8948 H         1 <0>         0.1127
     32 H6         -0.7064   -2.6261    0.8850 H         1 <0>         0.1127
     33 H7         -3.1796   -2.4493    0.9105 H         1 <0>         0.0952
     34 H8         -3.1973   -2.4398   -0.8693 H         1 <0>         0.0947
     35 H9         -2.1335   -4.6796   -0.8919 H         1 <0>         0.1333
     36 H10        -2.1158   -4.6891    0.8880 H         1 <0>         0.1327
     37 H11        -4.1530   -4.9339    2.1093 H         1 <0>         0.1388
     38 H12        -4.6353   -3.3788    1.3915 H         1 <0>         0.1356
     39 H13        -6.6132   -4.6415    2.1949 H         1 <0>         0.1238
     40 H14        -6.6524   -4.4509    0.4248 H         1 <0>         0.1045
     41 H15        -5.4137   -7.9204   -0.2771 H         1 <0>         0.1175
     42 H16        -5.9384   -6.4027   -1.0467 H         1 <0>         0.1009
     43 H17        -3.4644   -6.5795   -1.0215 H         1 <0>         0.1329
     44 H18        -3.4937   -6.7360    0.7507 H         1 <0>         0.1354
     45 H19        -8.2824   -5.0823    0.0874 H         1 <0>         0.1334
     46 H20       -10.6260   -5.8201   -0.0704 H         1 <0>         0.1408
     47 H21        -9.5746   -9.5405    1.7352 H         1 <0>         0.1414
     48 H22        -7.2294   -8.8051    1.8823 H         1 <0>         0.1323
     49 H23        -5.5495   -8.0314    2.1846 H         1 <0>         0.3907
     50 H24        -4.5327   -4.4442   -0.7578 H         1 <0>         0.4215
@<TRIPOS>BOND
     1    1    6 ar
     2    1    2 ar
     3    1   27 1
     4    2    3 ar
     5    2   28 1
     6    3    4 ar
     7    3   26 1
     8    4    5 ar
     9    4   29 1
    10    5    6 ar
    11    5   30 1
    12    6    7 1
    13    7    8 2
    14    7    9 1
    15    9   10 1
    16    9   31 1
    17    9   32 1
    18   10   11 1
    19   10   33 1
    20   10   34 1
    21   11   12 1
    22   11   35 1
    23   11   36 1
    24   12   17 1
    25   12   13 1
    26   12   50 1
    27   13   14 1
    28   13   37 1
    29   13   38 1
    30   14   15 1
    31   14   39 1
    32   14   40 1
    33   15   16 1
    34   15   18 1
    35   15   25 1
    36   16   17 1
    37   16   41 1
    38   16   42 1
    39   17   43 1
    40   17   44 1
    41   18   23 ar
    42   18   19 ar
    43   19   20 ar
    44   19   45 1
    45   20   21 ar
    46   20   46 1
    47   21   22 ar
    48   21   24 1
    49   22   23 ar
    50   22   47 1
    51   23   48 1
    52   25   49 1
@<TRIPOS>MOLECULE
ZINC01530977
   44    46     0     0     0
SMALL
USER_CHARGES

@<TRIPOS>ATOM
      1 C1         -0.0178    1.4648    0.0101 C.3       1 <0>        -0.0497
      2 N1          0.0021   -0.0041    0.0020 N.4       1 <0>        -0.3849
      3 C2          0.6897   -0.4778   -1.2066 C.3       1 <0>         0.0356
      4 C3         -0.1057   -0.0832   -2.4243 C.2       1 <0>        -0.2490
      5 C4          0.4691    0.6145   -3.3939 C.2       1 <0>        -0.0171
      6 C5         -0.3109    1.0016   -4.5883 C.ar      1 <0>        -0.0988
      7 C6         -1.6541    0.6391   -4.6956 C.ar      1 <0>        -0.1003
      8 C7         -2.3767    1.0034   -5.8131 C.ar      1 <0>        -0.1210
      9 C8         -1.7722    1.7262   -6.8260 C.ar      1 <0>        -0.0951
     10 C9         -0.4407    2.0884   -6.7259 C.ar      1 <0>        -0.1193
     11 C10         0.2911    1.7360   -5.6106 C.ar      1 <0>        -0.0904
     12 C11         0.7126   -0.4907    1.1921 C.3       1 <0>         0.0437
     13 C12        -0.0593   -0.1093    2.4290 C.ar      1 <0>        -0.1597
     14 C13         0.3150    0.9751    3.1618 C.ar      1 <0>        -0.0597
     15 C14        -0.3863    1.3431    4.3081 C.ar      1 <0>        -0.1324
     16 C15        -1.4659    0.6287    4.7288 C.ar      1 <0>        -0.0585
     17 C16        -1.8822   -0.4969    3.9982 C.ar      1 <0>        -0.0583
     18 C17        -1.1725   -0.8676    2.8285 C.ar      1 <0>        -0.0304
     19 C18        -1.5926   -1.9902    2.0945 C.ar      1 <0>        -0.1516
     20 C19        -2.6755   -2.7009    2.5119 C.ar      1 <0>        -0.0785
     21 C20        -3.3773   -2.3325    3.6585 C.ar      1 <0>        -0.1164
     22 C21        -2.9917   -1.2595    4.4017 C.ar      1 <0>        -0.0848
     23 H1          1.0047    1.8421    0.0024 H         1 <0>         0.1214
     24 H2         -0.5450    1.8259   -0.8730 H         1 <0>         0.1241
     25 H3         -0.5280    1.8163    0.9069 H         1 <0>         0.1215
     26 H4          1.6817   -0.0294   -1.2596 H         1 <0>         0.1309
     27 H5          0.7830   -1.5632   -1.1697 H         1 <0>         0.1357
     28 H6         -1.1439   -0.3688   -2.5070 H         1 <0>         0.1365
     29 H7          1.5074    0.9002   -3.3112 H         1 <0>         0.1303
     30 H8         -2.1269    0.0742   -3.9058 H         1 <0>         0.1236
     31 H9         -3.4163    0.7234   -5.8974 H         1 <0>         0.1298
     32 H10        -2.3420    2.0087   -7.6989 H         1 <0>         0.1307
     33 H11         0.0256    2.6521   -7.5204 H         1 <0>         0.1318
     34 H12         1.3291    2.0238   -5.5313 H         1 <0>         0.1290
     35 H13         0.8051   -1.5756    1.1418 H         1 <0>         0.1366
     36 H14         1.7055   -0.0428    1.2310 H         1 <0>         0.1379
     37 H15         1.1686    1.5588    2.8501 H         1 <0>         0.1331
     38 H16        -0.0684    2.2080    4.8715 H         1 <0>         0.1375
     39 H17        -1.9995    0.9253    5.6197 H         1 <0>         0.1398
     40 H18        -1.0590   -2.2871    1.2037 H         1 <0>         0.1192
     41 H19        -2.9962   -3.5631    1.9461 H         1 <0>         0.1322
     42 H20        -4.2336   -2.9135    3.9676 H         1 <0>         0.1342
     43 H21        -3.5447   -0.9864    5.2883 H         1 <0>         0.1378
     44 H22        -0.9445   -0.3533    0.0092 H         1 <0>         0.4230
@<TRIPOS>BOND
     1    1    2 1
     2    1   23 1
     3    1   24 1
     4    1   25 1
     5    2    3 1
     6    2   12 1
     7    2   44 1
     8    3    4 1
     9    3   26 1
    10    3   27 1
    11    4    5 2
    12    4   28 1
    13    5    6 1
    14    5   29 1
    15    6   11 ar
    16    6    7 ar
    17    7    8 ar
    18    7   30 1
    19    8    9 ar
    20    8   31 1
    21    9   10 ar
    22    9   32 1
    23   10   11 ar
    24   10   33 1
    25   11   34 1
    26   12   13 1
    27   12   35 1
    28   12   36 1
    29   13   18 ar
    30   13   14 ar
    31   14   15 ar
    32   14   37 1
    33   15   16 ar
    34   15   38 1
    35   16   17 ar
    36   16   39 1
    37   17   22 ar
    38   17   18 ar
    39   18   19 ar
    40   19   20 ar
    41   19   40 1
    42   20   21 ar
    43   20   41 1
    44   21   22 ar
    45   21   42 1
    46   22   43 1
@<TRIPOS>MOLECULE
ZINC03830212
   61    63     0     0     0
SMALL
USER_CHARGES
(2-butylbenzofuran-3-yl)-[4-(2-diethylaminoethoxy)-3,5-diiodo-phenyl]-methanone
@<TRIPOS>ATOM
      1 C1         -4.1677    4.6447    4.0546 C.3       1 <0>        -0.1559
      2 C2         -2.9795    4.1958    4.9076 C.3       1 <0>        -0.1215
      3 C3         -2.2245    3.0795    4.1832 C.3       1 <0>        -0.1217
      4 C4         -1.0363    2.6306    5.0361 C.3       1 <0>        -0.0556
      5 C5         -0.2927    1.5310    4.3226 C.2       1 <0>         0.1031
      6 C6          0.7390    1.7197    3.4530 C.2       1 <0>        -0.2632
      7 C7          1.1431    0.3689    3.0136 C.ar      1 <0>        -0.0982
      8 C8          2.1157   -0.1196    2.1476 C.ar      1 <0>        -0.0789
      9 C9          2.2335   -1.4791    1.9520 C.ar      1 <0>        -0.1205
     10 C10         1.3877   -2.3551    2.6156 C.ar      1 <0>        -0.0885
     11 C11         0.4203   -1.8818    3.4760 C.ar      1 <0>        -0.0979
     12 C12         0.2862   -0.5146    3.6855 C.ar      1 <0>         0.0534
     13 O1         -0.5429    0.2233    4.4527 O.3       1 <0>        -0.1754
     14 C13         1.3271    3.0012    3.0377 C.2       1 <0>         0.4789
     15 O2          0.9433    3.5452    2.0190 O.2       1 <0>        -0.4115
     16 C14         2.3833    3.6285    3.8565 C.ar      1 <0>        -0.1423
     17 C15         2.9023    2.9553    4.9660 C.ar      1 <0>         0.0014
     18 C16         3.8914    3.5418    5.7244 C.ar      1 <0>        -0.1300
     19 C17         4.3655    4.8065    5.3942 C.ar      1 <0>         0.1789
     20 C18         3.8481    5.4816    4.2943 C.ar      1 <0>        -0.1306
     21 C19         2.8628    4.8995    3.5275 C.ar      1 <0>         0.0029
     22 I1          4.5683    7.3863    3.8021 I         1 <0>        -0.0105
     23 O3          5.3362    5.3834    6.1473 O.3       1 <0>        -0.3308
     24 C20         4.9106    6.1869    7.2496 C.3       1 <0>         0.0219
     25 C21         6.1355    6.7485    7.9743 C.3       1 <0>        -0.0014
     26 C22         6.0477    8.8560    6.7855 C.3       1 <0>        -0.0236
     27 C23         5.8232    9.6517    8.0729 C.3       1 <0>        -0.1842
     28 C24         8.1576    8.0399    7.6484 C.3       1 <0>        -0.0132
     29 C25         9.0268    8.6709    6.5589 C.3       1 <0>        -0.1896
     30 I2          4.6769    2.5302    7.3823 I         1 <0>         0.0118
     31 H1         -3.8070    5.0137    3.0946 H         1 <0>         0.0557
     32 H2         -4.8371    3.8002    3.8910 H         1 <0>         0.0574
     33 H3         -4.7056    5.4399    4.5707 H         1 <0>         0.0582
     34 H4         -3.3403    3.8267    5.8677 H         1 <0>         0.0666
     35 H5         -2.3101    5.0403    5.0713 H         1 <0>         0.0616
     36 H6         -2.8939    2.2350    4.0195 H         1 <0>         0.0747
     37 H7         -1.8638    3.4485    3.2231 H         1 <0>         0.0717
     38 H8         -0.3669    3.4751    5.1998 H         1 <0>         0.0938
     39 H9         -1.3971    2.2615    5.9962 H         1 <0>         0.0985
     40 H10         2.7746    0.5624    1.6307 H         1 <0>         0.1258
     41 H11         2.9870   -1.8632    1.2803 H         1 <0>         0.1358
     42 H12         1.4876   -3.4186    2.4564 H         1 <0>         0.1419
     43 H13        -0.2334   -2.5732    3.9869 H         1 <0>         0.1384
     44 H14         2.5311    1.9750    5.2260 H         1 <0>         0.1552
     45 H15         2.4616    5.4243    2.6731 H         1 <0>         0.1598
     46 H16         4.2961    7.0095    6.8838 H         1 <0>         0.0851
     47 H17         4.3279    5.5772    7.9401 H         1 <0>         0.1097
     48 H18         5.8148    7.2875    8.8658 H         1 <0>         0.1566
     49 H19         6.7945    5.9295    8.2624 H         1 <0>         0.1467
     50 H20         6.5703    9.4791    6.0597 H         1 <0>         0.1322
     51 H21         5.0854    8.5497    6.3753 H         1 <0>         0.1222
     52 H22         6.7760   10.0446    8.4280 H         1 <0>         0.0855
     53 H23         5.1406   10.4781    7.8749 H         1 <0>         0.1082
     54 H24         5.3932    8.9994    8.8329 H         1 <0>         0.0802
     55 H25         8.0090    8.7572    8.4556 H         1 <0>         0.1366
     56 H26         8.6530    7.1510    8.0390 H         1 <0>         0.1317
     57 H27        10.0246    8.8607    6.9545 H         1 <0>         0.1088
     58 H28         9.0959    7.9908    5.7099 H         1 <0>         0.0802
     59 H29         8.5791    9.6109    6.2359 H         1 <0>         0.0800
     60 N1          6.8605    7.6515    7.0557 N.4       1 <0>        -0.3989
     61 H30         7.0320    7.1595    6.1709 H         1 <0>         0.4328
@<TRIPOS>BOND
     1    1    2 1
     2    1   31 1
     3    1   32 1
     4    1   33 1
     5    2    3 1
     6    2   34 1
     7    2   35 1
     8    3    4 1
     9    3   36 1
    10    3   37 1
    11    4    5 1
    12    4   38 1
    13    4   39 1
    14    5   13 1
    15    5    6 2
    16    6    7 1
    17    6   14 1
    18    7   12 ar
    19    7    8 ar
    20    8    9 ar
    21    8   40 1
    22    9   10 ar
    23    9   41 1
    24   10   11 ar
    25   10   42 1
    26   11   12 ar
    27   11   43 1
    28   12   13 1
    29   14   15 2
    30   14   16 1
    31   16   21 ar
    32   16   17 ar
    33   17   18 ar
    34   17   44 1
    35   18   19 ar
    36   18   30 1
    37   19   20 ar
    38   19   23 1
    39   20   21 ar
    40   20   22 1
    41   21   45 1
    42   23   24 1
    43   24   25 1
    44   24   46 1
    45   24   47 1
    46   25   48 1
    47   25   49 1
    48   25   60 1
    49   26   27 1
    50   26   50 1
    51   26   51 1
    52   26   60 1
    53   27   52 1
    54   27   53 1
    55   27   54 1
    56   28   29 1
    57   28   55 1
    58   28   56 1
    59   28   60 1
    60   29   57 1
    61   29   58 1
    62   29   59 1
    63   60   61 1
@<TRIPOS>MOLECULE
ZINC00000393
   38    39     0     0     0
SMALL
USER_CHARGES

@<TRIPOS>ATOM
      1 C1         -0.0187    1.5258    0.0104 C.3       1 <0>        -0.1564
      2 C2          0.0021   -0.0041    0.0020 C.3       1 <0>        -0.1505
      3 C3          0.7421   -0.5109    1.2415 C.3       1 <0>        -0.0112
      4 N1          0.7620   -1.9797    1.2335 N.4       1 <0>        -0.3828
      5 C4         -0.6100   -2.4869    1.3555 C.3       1 <0>        -0.0132
      6 C5         -0.6031   -4.0144    1.2663 C.3       1 <0>        -0.1450
      7 C6          0.2556   -4.5827    2.3998 C.3       1 <0>        -0.1308
      8 C7          1.6644   -3.9894    2.3065 C.3       1 <0>        -0.0593
      9 H1          2.1267   -4.2955    1.3681 H         1 <0>         0.1014
     10 C8          1.5734   -2.4628    2.3572 C.3       1 <0>        -0.0029
     11 C9          2.4961   -4.4835    3.4620 C.ar      1 <0>        -0.0829
     12 C10         2.1020   -4.2173    4.7605 C.ar      1 <0>        -0.1247
     13 C11         2.8627   -4.6692    5.8226 C.ar      1 <0>        -0.0943
     14 C12         4.0194   -5.3879    5.5890 C.ar      1 <0>        -0.1333
     15 C13         4.4169   -5.6562    4.2875 C.ar      1 <0>         0.1174
     16 C14         3.6483   -5.2068    3.2232 C.ar      1 <0>        -0.1345
     17 O1          5.5542   -6.3630    4.0551 O.3       1 <0>        -0.4972
     18 H2          1.0039    1.9031    0.0027 H         1 <0>         0.0673
     19 H3         -0.5459    1.8868   -0.8726 H         1 <0>         0.0775
     20 H4         -0.5289    1.8773    0.9072 H         1 <0>         0.0668
     21 H5         -1.0205   -0.3814    0.0098 H         1 <0>         0.0861
     22 H6          0.5123   -0.3556   -0.8948 H         1 <0>         0.0859
     23 H7          1.7647   -0.1336    1.2338 H         1 <0>         0.1309
     24 H8          0.2319   -0.1594    2.1383 H         1 <0>         0.1292
     25 H9         -1.0257   -2.1814    2.3157 H         1 <0>         0.1287
     26 H10        -1.2207   -2.0791    0.5500 H         1 <0>         0.1328
     27 H11        -1.6224   -4.3891    1.3589 H         1 <0>         0.1146
     28 H12        -0.1877   -4.3210    0.3063 H         1 <0>         0.0887
     29 H13        -0.1878   -4.3194    3.3601 H         1 <0>         0.0849
     30 H14         0.3101   -5.6674    2.3073 H         1 <0>         0.0964
     31 H15         2.5747   -2.0372    2.2912 H         1 <0>         0.1325
     32 H16         1.1111   -2.1578    3.2961 H         1 <0>         0.1305
     33 H17         1.1985   -3.6551    4.9451 H         1 <0>         0.1241
     34 H18         2.5529   -4.4600    6.8359 H         1 <0>         0.1343
     35 H19         4.6138   -5.7401    6.4191 H         1 <0>         0.1362
     36 H20         3.9531   -5.4185    2.2090 H         1 <0>         0.1317
     37 H21         5.4191   -7.3189    4.0010 H         1 <0>         0.3991
     38 H22         1.1627   -2.3049    0.3664 H         1 <0>         0.4223
@<TRIPOS>BOND
     1    1    2 1
     2    1   18 1
     3    1   19 1
     4    1   20 1
     5    2    3 1
     6    2   21 1
     7    2   22 1
     8    3    4 1
     9    3   23 1
    10    3   24 1
    11    4   10 1
    12    4    5 1
    13    4   38 1
    14    5    6 1
    15    5   25 1
    16    5   26 1
    17    6    7 1
    18    6   27 1
    19    6   28 1
    20    7    8 1
    21    7   29 1
    22    7   30 1
    23    8    9 1
    24    8   10 1
    25    8   11 1
    26   10   31 1
    27   10   32 1
    28   11   16 ar
    29   11   12 ar
    30   12   13 ar
    31   12   33 1
    32   13   14 ar
    33   13   34 1
    34   14   15 ar
    35   14   35 1
    36   15   16 ar
    37   15   17 1
    38   16   36 1
    39   17   37 1
@<TRIPOS>MOLECULE
ZINC00538275
   62    66     0     0     0
SMALL
USER_CHARGES

@<TRIPOS>ATOM
      1 C1         -1.0560   -3.6471   -2.9834 C.ar      1 <0>        -0.0731
      2 C2         -0.5292   -3.8209   -4.2441 C.ar      1 <0>        -0.1418
      3 C3         -0.2617   -2.7179   -5.0458 C.ar      1 <0>         0.1273
      4 C4         -0.5240   -1.4352   -4.5802 C.ar      1 <0>        -0.1436
      5 C5         -1.0507   -1.2517   -3.3208 C.ar      1 <0>        -0.0726
      6 C6         -1.3215   -2.3585   -2.5107 C.ar      1 <0>        -0.0443
      7 C7         -1.8857   -2.1673   -1.1621 C.2       1 <0>        -0.0491
      8 C8         -1.4781   -2.7470    0.0324 C.2       1 <0>        -0.1672
      9 C9         -2.2084   -2.3914    1.2518 C.ar      1 <0>        -0.0733
     10 C10        -1.9811   -2.8478    2.5699 C.ar      1 <0>        -0.0620
     11 C11        -2.7636   -2.4131    3.6070 C.ar      1 <0>        -0.1362
     12 C12        -3.8034   -1.5118    3.3971 C.ar      1 <0>         0.1376
     13 C13        -4.0502   -1.0462    2.1156 C.ar      1 <0>        -0.0999
     14 C14        -3.2654   -1.4805    1.0680 C.ar      1 <0>        -0.1027
     15 S1         -3.2496   -1.1310   -0.6716 S.3       1 <0>         0.0989
     16 O1         -4.5695   -1.0928    4.4389 O.3       1 <0>        -0.4890
     17 C15        -0.3552   -3.6836    0.0717 C.2       1 <0>         0.4632
     18 O2         -0.5599   -4.8828    0.0108 O.2       1 <0>        -0.4303
     19 C16         1.0269   -3.1752    0.1852 C.ar      1 <0>        -0.1819
     20 C17         1.2584   -1.8082    0.3588 C.ar      1 <0>        -0.0197
     21 C18         2.5485   -1.3381    0.4641 C.ar      1 <0>        -0.1529
     22 C19         3.6196   -2.2215    0.3980 C.ar      1 <0>         0.1478
     23 C20         3.3936   -3.5820    0.2249 C.ar      1 <0>        -0.2153
     24 C21         2.1062   -4.0607    0.1249 C.ar      1 <0>        -0.0165
     25 O3          4.8897   -1.7543    0.5022 O.3       1 <0>        -0.3241
     26 C22         5.9433   -2.7167    0.4259 C.3       1 <0>         0.0227
     27 C23         7.2923   -2.0079    0.5623 C.3       1 <0>        -0.0010
     28 N1          7.3928   -1.3985    1.8951 N.4       1 <0>        -0.3845
     29 C24         8.6181   -0.5941    1.9726 C.3       1 <0>        -0.0072
     30 C25         8.6868    0.1080    3.3305 C.3       1 <0>        -0.1466
     31 C26         8.6938   -0.9442    4.4432 C.3       1 <0>        -0.1392
     32 C27         7.4482   -1.8247    4.3075 C.3       1 <0>        -0.1453
     33 C28         7.4253   -2.4551    2.9134 C.3       1 <0>        -0.0137
     34 O4          0.2580   -2.8940   -6.2879 O.3       1 <0>        -0.4983
     35 H1         -1.2677   -4.5052   -2.3627 H         1 <0>         0.1336
     36 H2         -0.3235   -4.8160   -4.6100 H         1 <0>         0.1374
     37 H3         -0.3141   -0.5808   -5.2066 H         1 <0>         0.1382
     38 H4         -1.2542   -0.2544   -2.9597 H         1 <0>         0.1348
     39 H5         -1.1813   -3.5477    2.7618 H         1 <0>         0.1270
     40 H6         -2.5705   -2.7766    4.6055 H         1 <0>         0.1391
     41 H7         -4.8538   -0.3469    1.9378 H         1 <0>         0.1433
     42 H8         -4.2357   -0.2987    4.8782 H         1 <0>         0.3978
     43 H9          0.4267   -1.1211    0.4099 H         1 <0>         0.1415
     44 H10         2.7283   -0.2816    0.5980 H         1 <0>         0.1408
     45 H11         4.2285   -4.2651    0.1733 H         1 <0>         0.1355
     46 H12         1.9312   -5.1186   -0.0043 H         1 <0>         0.1432
     47 H13         5.8313   -3.4427    1.2312 H         1 <0>         0.0893
     48 H14         5.8979   -3.2297   -0.5348 H         1 <0>         0.1127
     49 H15         8.0975   -2.7309    0.4318 H         1 <0>         0.1504
     50 H16         7.3737   -1.2321   -0.1990 H         1 <0>         0.1436
     51 H17         9.4861   -1.2428    1.8552 H         1 <0>         0.1295
     52 H18         8.6132    0.1521    1.1781 H         1 <0>         0.1314
     53 H19         9.5982    0.7032    3.3868 H         1 <0>         0.1133
     54 H20         7.8194    0.7572    3.4489 H         1 <0>         0.0880
     55 H21         9.5878   -1.5615    4.3556 H         1 <0>         0.0823
     56 H22         8.6856   -0.4483    5.4139 H         1 <0>         0.0949
     57 H23         7.4742   -2.6108    5.0621 H         1 <0>         0.1125
     58 H24         6.5550   -1.2155    4.4462 H         1 <0>         0.0878
     59 H25         6.5398   -3.0828    2.8135 H         1 <0>         0.1272
     60 H26         8.3188   -3.0642    2.7759 H         1 <0>         0.1308
     61 H27        -0.4076   -2.9906   -6.9827 H         1 <0>         0.3988
     62 H28         6.5925   -0.8047    2.0535 H         1 <0>         0.4291
@<TRIPOS>BOND
     1    1    6 ar
     2    1    2 ar
     3    1   35 1
     4    2    3 ar
     5    2   36 1
     6    3    4 ar
     7    3   34 1
     8    4    5 ar
     9    4   37 1
    10    5    6 ar
    11    5   38 1
    12    6    7 1
    13    7   15 1
    14    7    8 2
    15    8    9 1
    16    8   17 1
    17    9   14 ar
    18    9   10 ar
    19   10   11 ar
    20   10   39 1
    21   11   12 ar
    22   11   40 1
    23   12   13 ar
    24   12   16 1
    25   13   14 ar
    26   13   41 1
    27   14   15 1
    28   16   42 1
    29   17   18 2
    30   17   19 1
    31   19   24 ar
    32   19   20 ar
    33   20   21 ar
    34   20   43 1
    35   21   22 ar
    36   21   44 1
    37   22   23 ar
    38   22   25 1
    39   23   24 ar
    40   23   45 1
    41   24   46 1
    42   25   26 1
    43   26   27 1
    44   26   47 1
    45   26   48 1
    46   27   28 1
    47   27   49 1
    48   27   50 1
    49   28   33 1
    50   28   29 1
    51   28   62 1
    52   29   30 1
    53   29   51 1
    54   29   52 1
    55   30   31 1
    56   30   53 1
    57   30   54 1
    58   31   32 1
    59   31   55 1
    60   31   56 1
    61   32   33 1
    62   32   57 1
    63   32   58 1
    64   33   59 1
    65   33   60 1
    66   34   61 1
@<TRIPOS>MOLECULE
ZINC01530689
   58    60     0     0     0
SMALL
USER_CHARGES

@<TRIPOS>ATOM
      1 C1         -0.8620   -1.2103    0.4196 C.3       1 <0>        -0.1463
      2 C2         -0.0027   -0.0154    0.0014 C.3       1 <0>        -0.0931
      3 C3          0.8449   -0.3968   -1.1848 C.2       1 <0>        -0.0423
      4 C4          2.1086   -0.8505   -0.9971 C.2       1 <0>        -0.0550
      5 C5          2.7052   -0.8396    0.3571 C.ar      1 <0>        -0.0411
      6 C6          2.9272    0.3707    1.0153 C.ar      1 <0>        -0.1082
      7 C7          3.4837    0.3740    2.2776 C.ar      1 <0>        -0.1172
      8 C8          3.8216   -0.8192    2.8911 C.ar      1 <0>        -0.1153
      9 C9          3.6040   -2.0226    2.2439 C.ar      1 <0>        -0.1170
     10 C10         3.0428   -2.0399    0.9837 C.ar      1 <0>        -0.1043
     11 C11         2.8911   -1.3565   -2.1461 C.ar      1 <0>        -0.0464
     12 C12         2.4761   -2.5039   -2.8244 C.ar      1 <0>        -0.0587
     13 C13         3.2080   -2.9722   -3.8945 C.ar      1 <0>        -0.1371
     14 C14         4.3568   -2.3043   -4.2980 C.ar      1 <0>         0.1110
     15 C15         4.7731   -1.1628   -3.6254 C.ar      1 <0>        -0.1995
     16 C16         4.0432   -0.6847   -2.5583 C.ar      1 <0>        -0.0640
     17 O1          5.0755   -2.7690   -5.3531 O.3       1 <0>        -0.3290
     18 C17         6.2462   -2.0338   -5.7148 C.3       1 <0>         0.0247
     19 C18         6.9183   -2.7034   -6.9152 C.3       1 <0>        -0.0016
     20 N1          6.0308   -2.6198   -8.0828 N.4       1 <0>        -0.3887
     21 C19         5.8597   -1.2126   -8.4681 C.3       1 <0>        -0.0544
     22 C20         6.6223   -3.3655   -9.2018 C.3       1 <0>        -0.0475
     23 C21         0.3013   -0.2769   -2.5460 C.ar      1 <0>        -0.0452
     24 C22         0.8638    0.6300   -3.4504 C.ar      1 <0>        -0.1005
     25 C23         0.3487    0.7362   -4.7249 C.ar      1 <0>        -0.1203
     26 C24        -0.7224   -0.0512   -5.1102 C.ar      1 <0>        -0.1185
     27 C25        -1.2849   -0.9506   -4.2211 C.ar      1 <0>        -0.1169
     28 C26        -0.7774   -1.0732   -2.9450 C.ar      1 <0>        -0.1064
     29 H1         -1.5889   -1.4268   -0.3633 H         1 <0>         0.0564
     30 H2         -0.2239   -2.0805    0.5736 H         1 <0>         0.0564
     31 H3         -1.3853   -0.9749    1.3463 H         1 <0>         0.0624
     32 H4         -0.6488    0.8203   -0.2674 H         1 <0>         0.0730
     33 H5          0.6424    0.2760    0.8303 H         1 <0>         0.0829
     34 H6          2.6642    1.3028    0.5373 H         1 <0>         0.1222
     35 H7          3.6564    1.3100    2.7879 H         1 <0>         0.1251
     36 H8          4.2573   -0.8113    3.8793 H         1 <0>         0.1238
     37 H9          3.8702   -2.9506    2.7280 H         1 <0>         0.1239
     38 H10         2.8693   -2.9801    0.4814 H         1 <0>         0.1195
     39 H11         1.5831   -3.0240   -2.5110 H         1 <0>         0.1323
     40 H12         2.8878   -3.8600   -4.4196 H         1 <0>         0.1320
     41 H13         5.6672   -0.6463   -3.9419 H         1 <0>         0.1263
     42 H14         4.3649    0.2058   -2.0388 H         1 <0>         0.1288
     43 H15         5.9678   -1.0131   -5.9769 H         1 <0>         0.0863
     44 H16         6.9389   -2.0168   -4.8734 H         1 <0>         0.1083
     45 H17         7.8574   -2.1958   -7.1356 H         1 <0>         0.1490
     46 H18         7.1165   -3.7499   -6.6836 H         1 <0>         0.1425
     47 H19         5.2012   -1.1506   -9.3345 H         1 <0>         0.1272
     48 H20         5.4209   -0.6593   -7.6378 H         1 <0>         0.1214
     49 H21         6.8302   -0.7837   -8.7180 H         1 <0>         0.1246
     50 H22         6.7492   -4.4096   -8.9159 H         1 <0>         0.1247
     51 H23         5.9637   -3.3034  -10.0682 H         1 <0>         0.1258
     52 H24         7.5927   -2.9366   -9.4516 H         1 <0>         0.1230
     53 H25         1.6992    1.2456   -3.1510 H         1 <0>         0.1181
     54 H26         0.7818    1.4358   -5.4243 H         1 <0>         0.1195
     55 H27        -1.1216    0.0368   -6.1098 H         1 <0>         0.1205
     56 H28        -2.1210   -1.5610   -4.5292 H         1 <0>         0.1239
     57 H29        -1.2145   -1.7786   -2.2539 H         1 <0>         0.1248
     58 H30         5.1325   -3.0168   -7.8515 H         1 <0>         0.4340
@<TRIPOS>BOND
     1    1    2 1
     2    1   29 1
     3    1   30 1
     4    1   31 1
     5    2    3 1
     6    2   32 1
     7    2   33 1
     8    3    4 2
     9    3   23 1
    10    4    5 1
    11    4   11 1
    12    5   10 ar
    13    5    6 ar
    14    6    7 ar
    15    6   34 1
    16    7    8 ar
    17    7   35 1
    18    8    9 ar
    19    8   36 1
    20    9   10 ar
    21    9   37 1
    22   10   38 1
    23   11   16 ar
    24   11   12 ar
    25   12   13 ar
    26   12   39 1
    27   13   14 ar
    28   13   40 1
    29   14   15 ar
    30   14   17 1
    31   15   16 ar
    32   15   41 1
    33   16   42 1
    34   17   18 1
    35   18   19 1
    36   18   43 1
    37   18   44 1
    38   19   20 1
    39   19   45 1
    40   19   46 1
    41   20   21 1
    42   20   22 1
    43   20   58 1
    44   21   47 1
    45   21   48 1
    46   21   49 1
    47   22   50 1
    48   22   51 1
    49   22   52 1
    50   23   28 ar
    51   23   24 ar
    52   24   25 ar
    53   24   53 1
    54   25   26 ar
    55   25   54 1
    56   26   27 ar
    57   26   55 1
    58   27   28 ar
    59   27   56 1
    60   28   57 1
@<TRIPOS>MOLECULE
ZINC01530601
   58    60     0     0     0
SMALL
USER_CHARGES

@<TRIPOS>ATOM
      1 C1         -0.9013    2.7917   -3.4145 C.3       1 <0>        -0.1876
      2 C2         -1.1549    1.2913   -3.5746 C.3       1 <0>        -0.0176
      3 N1         -0.5619    0.5707   -2.4401 N.4       1 <0>        -0.3873
      4 C3         -1.2545    0.9519   -1.2020 C.3       1 <0>        -0.0159
      5 C4         -0.5388    0.3252   -0.0036 C.3       1 <0>        -0.1893
      6 C5         -0.7002   -0.8762   -2.6529 C.3       1 <0>        -0.0060
      7 C6          0.1257   -1.2937   -3.8713 C.3       1 <0>         0.0258
      8 O1          1.5104   -1.0532   -3.6133 O.3       1 <0>        -0.3268
      9 C7          2.3771   -1.2823   -4.6343 C.ar      1 <0>         0.1168
     10 C8          1.9003   -1.7244   -5.8614 C.ar      1 <0>        -0.1976
     11 C9          2.7763   -1.9575   -6.8999 C.ar      1 <0>        -0.0546
     12 C10         4.1443   -1.7486   -6.7168 C.ar      1 <0>        -0.0528
     13 C11         4.6197   -1.3042   -5.4818 C.ar      1 <0>        -0.0612
     14 C12         3.7368   -1.0683   -4.4498 C.ar      1 <0>        -0.1373
     15 C13         5.0879   -1.9981   -7.8285 C.2       1 <0>        -0.0277
     16 C14         5.0455   -1.2227   -8.9412 C.2       1 <0>        -0.0115
     17 C15         4.1538   -0.0534   -8.9896 C.ar      1 <0>        -0.0568
     18 C16         4.1481    0.8703   -7.9393 C.ar      1 <0>        -0.0871
     19 C17         3.3099    1.9638   -7.9923 C.ar      1 <0>        -0.1232
     20 C18         2.4753    2.1484   -9.0808 C.ar      1 <0>        -0.1078
     21 C19         2.4746    1.2387  -10.1239 C.ar      1 <0>        -0.1185
     22 C20         3.3114    0.1434  -10.0887 C.ar      1 <0>        -0.0916
     23 Cl1         6.0434   -1.6104  -10.3078 Cl        1 <0>        -0.0465
     24 C21         6.0778   -3.0931   -7.7270 C.ar      1 <0>        -0.0569
     25 C22         5.6513   -4.4208   -7.6756 C.ar      1 <0>        -0.0964
     26 C23         6.5794   -5.4372   -7.5810 C.ar      1 <0>        -0.1190
     27 C24         7.9305   -5.1423   -7.5366 C.ar      1 <0>        -0.1089
     28 C25         8.3600   -3.8280   -7.5871 C.ar      1 <0>        -0.1171
     29 C26         7.4423   -2.8027   -7.6881 C.ar      1 <0>        -0.0943
     30 H1         -1.3543    3.1397   -2.4861 H         1 <0>         0.0815
     31 H2          0.1724    2.9778   -3.3869 H         1 <0>         0.0810
     32 H3         -1.3412    3.3264   -4.2562 H         1 <0>         0.1068
     33 H4         -2.2285    1.1052   -3.6022 H         1 <0>         0.1311
     34 H5         -0.7018    0.9433   -4.5029 H         1 <0>         0.1279
     35 H6         -1.2486    2.0372   -1.1018 H         1 <0>         0.1338
     36 H7         -2.2841    0.5958   -1.2372 H         1 <0>         0.1299
     37 H8          0.4736    0.7234    0.0639 H         1 <0>         0.0818
     38 H9         -1.0841    0.5622    0.9099 H         1 <0>         0.1069
     39 H10        -0.4961   -0.7565   -0.1310 H         1 <0>         0.0798
     40 H11        -0.3426   -1.4089   -1.7718 H         1 <0>         0.1443
     41 H12        -1.7488   -1.1198   -2.8240 H         1 <0>         0.1493
     42 H13        -0.0283   -2.3547   -4.0684 H         1 <0>         0.1093
     43 H14        -0.1883   -0.7137   -4.7392 H         1 <0>         0.0864
     44 H15         0.8417   -1.8861   -6.0021 H         1 <0>         0.1285
     45 H16         2.4047   -2.3017   -7.8538 H         1 <0>         0.1297
     46 H17         5.6774   -1.1418   -5.3363 H         1 <0>         0.1368
     47 H18         4.1033   -0.7205   -3.4953 H         1 <0>         0.1353
     48 H19         4.7984    0.7272   -7.0889 H         1 <0>         0.1233
     49 H20         3.3044    2.6779   -7.1821 H         1 <0>         0.1229
     50 H21         1.8207    3.0067   -9.1163 H         1 <0>         0.1238
     51 H22         1.8201    1.3895  -10.9696 H         1 <0>         0.1280
     52 H23         3.3133   -0.5631  -10.9056 H         1 <0>         0.1278
     53 H24         4.5969   -4.6523   -7.7095 H         1 <0>         0.1198
     54 H25         6.2507   -6.4651   -7.5411 H         1 <0>         0.1253
     55 H26         8.6531   -5.9415   -7.4618 H         1 <0>         0.1251
     56 H27         9.4160   -3.6044   -7.5517 H         1 <0>         0.1267
     57 H28         7.7790   -1.7775   -7.7323 H         1 <0>         0.1221
     58 H29         0.4160    0.8077   -2.3652 H         1 <0>         0.4293
@<TRIPOS>BOND
     1    1    2 1
     2    1   30 1
     3    1   31 1
     4    1   32 1
     5    2    3 1
     6    2   33 1
     7    2   34 1
     8    3    4 1
     9    3    6 1
    10    3   58 1
    11    4    5 1
    12    4   35 1
    13    4   36 1
    14    5   37 1
    15    5   38 1
    16    5   39 1
    17    6    7 1
    18    6   40 1
    19    6   41 1
    20    7    8 1
    21    7   42 1
    22    7   43 1
    23    8    9 1
    24    9   14 ar
    25    9   10 ar
    26   10   11 ar
    27   10   44 1
    28   11   12 ar
    29   11   45 1
    30   12   13 ar
    31   12   15 1
    32   13   14 ar
    33   13   46 1
    34   14   47 1
    35   15   16 2
    36   15   24 1
    37   16   17 1
    38   16   23 1
    39   17   22 ar
    40   17   18 ar
    41   18   19 ar
    42   18   48 1
    43   19   20 ar
    44   19   49 1
    45   20   21 ar
    46   20   50 1
    47   21   22 ar
    48   21   51 1
    49   22   52 1
    50   24   29 ar
    51   24   25 ar
    52   25   26 ar
    53   25   53 1
    54   26   27 ar
    55   26   54 1
    56   27   28 ar
    57   27   55 1
    58   28   29 ar
    59   28   56 1
    60   29   57 1
