@<TRIPOS>MOLECULE
ZINC03872335
   31    31     0     0     0
SMALL
USER_CHARGES

@<TRIPOS>ATOM
      1 C1         -0.0167    1.3781    0.0096 C.ar      1 <0>        -0.1272
      2 C2          1.1709    2.0855    0.0021 C.ar      1 <0>        -0.1174
      3 C3          2.3773    1.4107   -0.0130 C.ar      1 <0>        -0.1135
      4 C4          2.3960    0.0285   -0.0201 C.ar      1 <0>        -0.0768
      5 C5          1.2084   -0.6789   -0.0117 C.ar      1 <0>        -0.1195
      6 C6          0.0021   -0.0041    0.0020 C.ar      1 <0>        -0.1201
      7 C7          3.7112   -0.7071   -0.0376 C.3       1 <0>        -0.0562
      8 C8          4.1714   -0.9633    1.3989 C.3       1 <0>        -0.0855
      9 H1          4.2087   -0.0191    1.9423 H         1 <0>         0.1072
     10 C9          3.1871   -1.9101    2.0886 C.3       1 <0>        -0.0744
     11 S1          3.6492   -2.0971    3.8327 S.3       1 <0>        -0.2155
     12 C10         5.5425   -1.5884    1.3832 C.2       1 <0>         0.5003
     13 O1          6.0971   -1.8074    0.3271 O.2       1 <0>        -0.5619
     14 N1          6.1525   -1.9040    2.5428 N.am      1 <0>        -0.6810
     15 C11         7.4855   -2.5117    2.5276 C.3       1 <0>         0.0474
     16 C12         7.9387   -2.7640    3.9425 C.2       1 <0>         0.4891
     17 O2          7.2154   -2.4640    4.8770 O.co2     1 <0>        -0.6823
     18 O3          9.0288   -3.2681    4.1527 O.co2     1 <0>        -0.6937
     19 H2         -0.9591    1.9053    0.0259 H         1 <0>         0.1184
     20 H3          1.1563    3.1654    0.0076 H         1 <0>         0.1207
     21 H4          3.3051    1.9634   -0.0196 H         1 <0>         0.1243
     22 H5          1.2231   -1.7588   -0.0176 H         1 <0>         0.1209
     23 H6         -0.9258   -0.5567    0.0082 H         1 <0>         0.1191
     24 H7          3.5884   -1.6586   -0.5549 H         1 <0>         0.0825
     25 H8          4.4573   -0.1052   -0.5563 H         1 <0>         0.0906
     26 H9          2.1799   -1.4989    2.0217 H         1 <0>         0.0963
     27 H10         3.2154   -2.8834    1.5988 H         1 <0>         0.0871
     28 H11         2.7241   -2.9397    4.3259 H         1 <0>         0.0791
     29 H12         5.7090   -1.7288    3.3875 H         1 <0>         0.4138
     30 H13         7.4482   -3.4558    1.9842 H         1 <0>         0.0641
     31 H14         8.1867   -1.8372    2.0363 H         1 <0>         0.0640
@<TRIPOS>BOND
     1    1    6 ar
     2    1    2 ar
     3    1   19 1
     4    2    3 ar
     5    2   20 1
     6    3    4 ar
     7    3   21 1
     8    4    5 ar
     9    4    7 1
    10    5    6 ar
    11    5   22 1
    12    6   23 1
    13    7    8 1
    14    7   24 1
    15    7   25 1
    16    8    9 1
    17    8   10 1
    18    8   12 1
    19   10   11 1
    20   10   26 1
    21   10   27 1
    22   11   28 1
    23   12   13 2
    24   12   14 am
    25   14   15 1
    26   14   29 1
    27   15   16 1
    28   15   30 1
    29   15   31 1
    30   16   17 2
    31   16   18 1
@<TRIPOS>MOLECULE
ZINC03872336
   31    31     0     0     0
SMALL
USER_CHARGES

@<TRIPOS>ATOM
      1 C1          2.6440   -5.2211    3.5972 C.ar      1 <0>        -0.1212
      2 C2          1.8857   -4.0804    3.7836 C.ar      1 <0>        -0.1206
      3 C3          2.0088   -3.0179    2.9080 C.ar      1 <0>        -0.1134
      4 C4          2.8905   -3.0957    1.8463 C.ar      1 <0>        -0.0882
      5 C5          3.6495   -4.2360    1.6604 C.ar      1 <0>        -0.1056
      6 C6          3.5254   -5.2991    2.5352 C.ar      1 <0>        -0.1162
      7 C7          3.0240   -1.9378    0.8911 C.3       1 <0>        -0.0676
      8 C8          4.0524   -0.9440    1.4350 C.3       1 <0>        -0.0844
      9 H1          3.7721   -0.6478    2.4458 H         1 <0>         0.0995
     10 C9          4.0930    0.2921    0.5342 C.3       1 <0>        -0.0511
     11 S1          2.5044    1.1626    0.6300 S.3       1 <0>        -0.2429
     12 C10         5.4126   -1.5921    1.4603 C.2       1 <0>         0.5147
     13 O1          5.9284   -1.9600    0.4261 O.2       1 <0>        -0.5596
     14 N1          6.0560   -1.7629    2.6322 N.am      1 <0>        -0.6892
     15 C11         7.3784   -2.3929    2.6568 C.3       1 <0>         0.0513
     16 C12         7.8746   -2.4640    4.0780 C.2       1 <0>         0.4902
     17 O2          7.1873   -2.0288    4.9861 O.co2     1 <0>        -0.6900
     18 O3          8.9633   -2.9568    4.3197 O.co2     1 <0>        -0.6896
     19 H2          2.5511   -6.0495    4.2839 H         1 <0>         0.1182
     20 H3          1.1968   -4.0196    4.6131 H         1 <0>         0.1193
     21 H4          1.4157   -2.1270    3.0532 H         1 <0>         0.1221
     22 H5          4.3382   -4.2970    0.8306 H         1 <0>         0.1208
     23 H6          4.1182   -6.1902    2.3897 H         1 <0>         0.1190
     24 H7          3.3524   -2.3048   -0.0813 H         1 <0>         0.0829
     25 H8          2.0595   -1.4411    0.7852 H         1 <0>         0.0933
     26 H9          4.8918    0.9562    0.8645 H         1 <0>         0.0885
     27 H10         4.2778   -0.0145   -0.4953 H         1 <0>         0.0961
     28 H11         2.6604    2.2156   -0.1921 H         1 <0>         0.0859
     29 H12         5.6435   -1.4686    3.4593 H         1 <0>         0.4084
     30 H13         7.3088   -3.3999    2.2454 H         1 <0>         0.0650
     31 H14         8.0730   -1.8032    2.0585 H         1 <0>         0.0645
@<TRIPOS>BOND
     1    1    6 ar
     2    1    2 ar
     3    1   19 1
     4    2    3 ar
     5    2   20 1
     6    3    4 ar
     7    3   21 1
     8    4    5 ar
     9    4    7 1
    10    5    6 ar
    11    5   22 1
    12    6   23 1
    13    7    8 1
    14    7   24 1
    15    7   25 1
    16    8    9 1
    17    8   10 1
    18    8   12 1
    19   10   11 1
    20   10   26 1
    21   10   27 1
    22   11   28 1
    23   12   13 2
    24   12   14 am
    25   14   15 1
    26   14   29 1
    27   15   16 1
    28   15   30 1
    29   15   31 1
    30   16   17 2
    31   16   18 1
@<TRIPOS>MOLECULE
ZINC03981918
   38    40     0     0     0
SMALL
USER_CHARGES

@<TRIPOS>ATOM
      1 C1         -0.0166    1.3749    0.0096 C.ar      1 <0>        -0.1413
      2 C2          1.1723    2.0869    0.0021 C.ar      1 <0>        -0.0897
      3 C3          2.3842    1.4293   -0.0135 C.ar      1 <0>        -0.1175
      4 C4          2.4231    0.0400   -0.0218 C.ar      1 <0>         0.0809
      5 C5          1.2189   -0.6774   -0.0137 C.ar      1 <0>        -0.1121
      6 C6          0.0021   -0.0041    0.0020 C.ar      1 <0>        -0.0604
      7 C7          1.6027   -2.1020   -0.0266 C.ar      1 <0>        -0.1269
      8 C8          0.8888   -3.2957   -0.0266 C.ar      1 <0>        -0.0411
      9 C9          1.5652   -4.4973   -0.0412 C.ar      1 <0>        -0.1451
     10 C10         2.9509   -4.5156   -0.0558 C.ar      1 <0>        -0.0609
     11 C11         3.6684   -3.3382   -0.0555 C.ar      1 <0>        -0.1060
     12 C12         3.0042   -2.1173   -0.0413 C.ar      1 <0>         0.0864
     13 O1          3.4475   -0.8409   -0.0379 O.3       1 <0>        -0.2009
     14 C13         3.6801   -5.8344   -0.0717 C.3       1 <0>        -0.0835
     15 C14         3.9118   -6.2716   -1.5195 C.3       1 <0>        -0.0522
     16 H1          4.4325   -5.4805   -2.0590 H         1 <0>         0.1151
     17 C15         4.7468   -7.5259   -1.5378 C.2       1 <0>         0.4986
     18 O2          4.2467   -8.5864   -1.8722 O.co2     1 <0>        -0.6499
     19 O3          5.9226   -7.4803   -1.2184 O.co2     1 <0>        -0.6688
     20 N1          2.6185   -6.5348   -2.1644 N.4       1 <0>        -0.4458
     21 C16         2.8328   -6.8382   -3.5857 C.3       1 <0>        -0.5929
     22 P1          1.2278   -7.1649   -4.3861 P.3       1 <0>         2.1429
     23 O4          0.4794   -8.3020   -3.6106 O.2       1 <0>        -1.1436
     24 O5          0.3597   -5.8609   -4.3670 O.3       1 <0>        -1.1496
     25 O6          1.4651   -7.6126   -5.8686 O.3       1 <0>        -1.1440
     26 H2         -0.9597    1.9009    0.0259 H         1 <0>         0.1311
     27 H3          1.1495    3.1666    0.0081 H         1 <0>         0.1343
     28 H4          3.3044    1.9946   -0.0196 H         1 <0>         0.1320
     29 H5         -0.9245   -0.5589    0.0076 H         1 <0>         0.1323
     30 H6         -0.1911   -3.2815   -0.0149 H         1 <0>         0.1391
     31 H7          1.0140   -5.4260   -0.0409 H         1 <0>         0.1420
     32 H8          4.7481   -3.3646   -0.0662 H         1 <0>         0.1392
     33 H9          4.6400   -5.7248    0.4328 H         1 <0>         0.1138
     34 H10         3.0824   -6.5862    0.4437 H         1 <0>         0.0949
     35 H11         2.1730   -7.3214   -1.7161 H         1 <0>         0.4245
     36 H12         3.3141   -5.9886   -4.0700 H         1 <0>         0.0911
     37 H13         3.4702   -7.7176   -3.6774 H         1 <0>         0.1329
     38 H14         2.0284   -5.7208   -2.0796 H         1 <0>         0.4011
@<TRIPOS>BOND
     1    1    6 ar
     2    1    2 ar
     3    1   26 1
     4    2    3 ar
     5    2   27 1
     6    3    4 ar
     7    3   28 1
     8    4   13 1
     9    4    5 ar
    10    5    6 ar
    11    5    7 1
    12    6   29 1
    13    7   12 ar
    14    7    8 ar
    15    8    9 ar
    16    8   30 1
    17    9   10 ar
    18    9   31 1
    19   10   11 ar
    20   10   14 1
    21   11   12 ar
    22   11   32 1
    23   12   13 1
    24   14   15 1
    25   14   33 1
    26   14   34 1
    27   15   16 1
    28   15   17 1
    29   15   20 1
    30   17   18 2
    31   17   19 1
    32   20   21 1
    33   20   35 1
    34   20   38 1
    35   21   22 1
    36   21   36 1
    37   21   37 1
    38   22   23 2
    39   22   24 1
    40   22   25 1
@<TRIPOS>MOLECULE
ZINC03816089
   62    65     0     0     0
SMALL
USER_CHARGES
5-(3,3-dimethylbutanoylamino)-1-[(2-fluorophenyl)methyl]-N-phenyl-indole-2-carboxamide
@<TRIPOS>ATOM
      1 C1         12.7393   -3.2745   -6.0217 C.3       1 <0>        -0.1551
      2 C2         13.4948   -3.9752   -4.8907 C.3       1 <0>        -0.0510
      3 C3         14.9838   -4.0409   -5.2362 C.3       1 <0>        -0.1437
      4 C4         12.9489   -5.3937   -4.7150 C.3       1 <0>        -0.1548
      5 C5         13.3071   -3.1918   -3.5900 C.3       1 <0>        -0.1324
      6 C6         11.8404   -3.1270   -3.2497 C.2       1 <0>         0.5143
      7 O1         11.0254   -3.6556   -3.9761 O.2       1 <0>        -0.5094
      8 N1         11.4343   -2.4819   -2.1383 N.am      1 <0>        -0.6743
      9 C7         10.0836   -2.5096   -1.7661 C.ar      1 <0>         0.1250
     10 C8          9.3073   -3.6326   -2.0535 C.ar      1 <0>        -0.0812
     11 C9          7.9799   -3.6763   -1.6952 C.ar      1 <0>        -0.1046
     12 C10         7.3986   -2.5939   -1.0401 C.ar      1 <0>         0.1139
     13 C11         8.1769   -1.4574   -0.7472 C.ar      1 <0>        -0.0995
     14 C12         9.5278   -1.4257   -1.1175 C.ar      1 <0>        -0.0933
     15 C13         7.3292   -0.5342   -0.0884 C.2       1 <0>        -0.0926
     16 C14         6.0966   -1.0987    0.0067 C.2       1 <0>         0.0091
     17 N2          6.1289   -2.3558   -0.5645 N.pl3     1 <0>        -0.4666
     18 C15         4.9971   -3.2817   -0.6532 C.3       1 <0>         0.1419
     19 C16         4.8526   -4.0247    0.6499 C.ar      1 <0>        -0.1661
     20 C17         3.7843   -3.7553    1.4846 C.ar      1 <0>        -0.0891
     21 C18         3.6512   -4.4369    2.6797 C.ar      1 <0>        -0.1210
     22 C19         4.5861   -5.3892    3.0414 C.ar      1 <0>        -0.0752
     23 C20         5.6546   -5.6606    2.2085 C.ar      1 <0>        -0.1510
     24 C21         5.7866   -4.9814    1.0089 C.ar      1 <0>         0.1280
     25 F1          6.8282   -5.2495    0.1913 F         1 <0>        -0.1263
     26 C22         4.9183   -0.4734    0.6247 C.2       1 <0>         0.5857
     27 O2          5.0001    0.6453    1.0958 O.2       1 <0>        -0.4979
     28 N3          3.7475   -1.1395    0.6693 N.am      1 <0>        -0.6822
     29 C23         2.6301   -0.5499    1.2685 C.ar      1 <0>         0.1403
     30 C24         1.3513   -0.9385    0.8905 C.ar      1 <0>        -0.1558
     31 C25         0.2499   -0.3546    1.4846 C.ar      1 <0>        -0.0959
     32 C26         0.4190    0.6161    2.4549 C.ar      1 <0>        -0.1356
     33 C27         1.6908    1.0054    2.8336 C.ar      1 <0>        -0.0969
     34 C28         2.7965    0.4254    2.2434 C.ar      1 <0>        -0.1294
     35 H1         13.1281   -2.2639   -6.1469 H         1 <0>         0.0464
     36 H2         12.8730   -3.8326   -6.9483 H         1 <0>         0.0524
     37 H3         11.6785   -3.2277   -5.7756 H         1 <0>         0.0824
     38 H4         15.5220   -4.5401   -4.4304 H         1 <0>         0.0550
     39 H5         15.1175   -4.5991   -6.1628 H         1 <0>         0.0593
     40 H6         15.3727   -3.0304   -5.3613 H         1 <0>         0.0551
     41 H7         11.8881   -5.3469   -4.4689 H         1 <0>         0.0817
     42 H8         13.0826   -5.9518   -5.6417 H         1 <0>         0.0527
     43 H9         13.4871   -5.8929   -3.9093 H         1 <0>         0.0466
     44 H10        13.6959   -2.1812   -3.7152 H         1 <0>         0.0960
     45 H11        13.8453   -3.6910   -2.7843 H         1 <0>         0.0969
     46 H12        12.0770   -1.9984   -1.5960 H         1 <0>         0.4105
     47 H13         9.7525   -4.4753   -2.5614 H         1 <0>         0.1423
     48 H14         7.3881   -4.5507   -1.9225 H         1 <0>         0.1269
     49 H15        10.1310   -0.5575   -0.8965 H         1 <0>         0.1304
     50 H16         7.6114    0.4436    0.2731 H         1 <0>         0.1593
     51 H17         4.0842   -2.7214   -0.8552 H         1 <0>         0.0986
     52 H18         5.1724   -3.9936   -1.4598 H         1 <0>         0.1177
     53 H19         3.0534   -3.0117    1.2030 H         1 <0>         0.1343
     54 H20         2.8161   -4.2257    3.3312 H         1 <0>         0.1363
     55 H21         4.4809   -5.9214    3.9753 H         1 <0>         0.1391
     56 H22         6.3845   -6.4047    2.4911 H         1 <0>         0.1415
     57 H23         3.6799   -2.0278    0.2857 H         1 <0>         0.4091
     58 H24         1.2185   -1.6963    0.1325 H         1 <0>         0.1226
     59 H25        -0.7447   -0.6560    1.1909 H         1 <0>         0.1277
     60 H26        -0.4440    1.0744    2.9148 H         1 <0>         0.1244
     61 H27         1.8195    1.7640    3.5914 H         1 <0>         0.1273
     62 H28         3.7895    0.7301    2.5393 H         1 <0>         0.1503
@<TRIPOS>BOND
     1    1    2 1
     2    1   35 1
     3    1   36 1
     4    1   37 1
     5    2    3 1
     6    2    4 1
     7    2    5 1
     8    3   38 1
     9    3   39 1
    10    3   40 1
    11    4   41 1
    12    4   42 1
    13    4   43 1
    14    5    6 1
    15    5   44 1
    16    5   45 1
    17    6    7 2
    18    6    8 am
    19    8    9 1
    20    8   46 1
    21    9   14 ar
    22    9   10 ar
    23   10   11 ar
    24   10   47 1
    25   11   12 ar
    26   11   48 1
    27   12   17 1
    28   12   13 ar
    29   13   14 ar
    30   13   15 1
    31   14   49 1
    32   15   16 2
    33   15   50 1
    34   16   17 1
    35   16   26 1
    36   17   18 1
    37   18   19 1
    38   18   51 1
    39   18   52 1
    40   19   24 ar
    41   19   20 ar
    42   20   21 ar
    43   20   53 1
    44   21   22 ar
    45   21   54 1
    46   22   23 ar
    47   22   55 1
    48   23   24 ar
    49   23   56 1
    50   24   25 1
    51   26   27 2
    52   26   28 am
    53   28   29 1
    54   28   57 1
    55   29   34 ar
    56   29   30 ar
    57   30   31 ar
    58   30   58 1
    59   31   32 ar
    60   31   59 1
    61   32   33 ar
    62   32   60 1
    63   33   34 ar
    64   33   61 1
    65   34   62 1
@<TRIPOS>MOLECULE
ZINC28524413
   65    68     0     0     0
SMALL
USER_CHARGES
5-(3,3-dimethylbutanoylamino)-1-(m-tolylmethyl)-N-phenyl-indole-2-carboxamide
@<TRIPOS>ATOM
      1 C1          3.2523   -5.3201    3.3171 C.3       1 <0>        -0.1226
      2 C2          4.2691   -5.3497    2.2052 C.ar      1 <0>        -0.0727
      3 C3          5.2013   -6.3692    2.1479 C.ar      1 <0>        -0.1061
      4 C4          6.1335   -6.3966    1.1279 C.ar      1 <0>        -0.1068
      5 C5          6.1306   -5.4075    0.1619 C.ar      1 <0>        -0.0976
      6 C6          5.2020   -4.3855    0.2221 C.ar      1 <0>        -0.1230
      7 C7          4.2695   -4.3581    1.2425 C.ar      1 <0>        -0.1209
      8 C8          5.2022   -3.3045   -0.8278 C.3       1 <0>         0.1306
      9 N1          6.2541   -2.3307   -0.5259 N.pl3     1 <0>        -0.4637
     10 C9          7.5858   -2.4631   -0.8489 C.ar      1 <0>         0.1177
     11 C10         8.3105   -3.4572   -1.5009 C.ar      1 <0>        -0.1205
     12 C11         9.6659   -3.3126   -1.6856 C.ar      1 <0>        -0.0703
     13 C12        10.3279   -2.1746   -1.2238 C.ar      1 <0>         0.1218
     14 C13         9.6291   -1.1773   -0.5747 C.ar      1 <0>        -0.0783
     15 C14         8.2481   -1.3120   -0.3804 C.ar      1 <0>        -0.1034
     16 C15         7.2683   -0.4889    0.2256 C.2       1 <0>        -0.0971
     17 C16         6.0732   -1.1287    0.1300 C.2       1 <0>         0.0135
     18 C17         4.7910   -0.6198    0.6382 C.2       1 <0>         0.5854
     19 O1          4.7069    0.5261    1.0381 O.2       1 <0>        -0.5031
     20 N2          3.7087   -1.4227    0.6611 N.am      1 <0>        -0.7004
     21 C18         2.4666   -0.9108    1.0486 C.ar      1 <0>         0.1423
     22 C19         1.3005   -1.4129    0.4852 C.ar      1 <0>        -0.1508
     23 C20         0.0752   -0.9054    0.8705 C.ar      1 <0>        -0.0988
     24 C21         0.0085    0.1014    1.8161 C.ar      1 <0>        -0.1347
     25 C22         1.1675    0.6035    2.3790 C.ar      1 <0>        -0.0993
     26 C23         2.3960    0.1004    1.9981 C.ar      1 <0>        -0.1244
     27 N3         11.7093   -2.0440   -1.4197 N.am      1 <0>        -0.6919
     28 C24        12.5319   -3.0699   -1.1241 C.2       1 <0>         0.5170
     29 O2         12.0718   -4.1262   -0.7452 O.2       1 <0>        -0.5164
     30 C25        14.0232   -2.9045   -1.2645 C.3       1 <0>        -0.1327
     31 C26        14.7203   -4.2078   -0.8691 C.3       1 <0>        -0.0499
     32 C27        14.2443   -5.3385   -1.7834 C.3       1 <0>        -0.1560
     33 C28        16.2344   -4.0399   -1.0116 C.3       1 <0>        -0.1451
     34 C29        14.3793   -4.5483    0.5830 C.3       1 <0>        -0.1565
     35 H1          3.4086   -6.1839    3.9800 H         1 <0>         0.0707
     36 H2          2.2398   -5.3646    2.8894 H         1 <0>         0.0740
     37 H3          3.3663   -4.3902    3.8935 H         1 <0>         0.0729
     38 H4          5.2007   -7.1443    2.9000 H         1 <0>         0.1283
     39 H5          6.8615   -7.1932    1.0830 H         1 <0>         0.1297
     40 H6          6.8562   -5.4314   -0.6376 H         1 <0>         0.1267
     41 H7          3.5411   -3.5619    1.2870 H         1 <0>         0.1215
     42 H8          5.3894   -3.7522   -1.8150 H         1 <0>         0.1153
     43 H9          4.2253   -2.7989   -0.8338 H         1 <0>         0.1039
     44 H10         7.8080   -4.3422   -1.8624 H         1 <0>         0.1241
     45 H11        10.2227   -4.0871   -2.1920 H         1 <0>         0.1328
     46 H12        10.1441   -0.2973   -0.2186 H         1 <0>         0.1304
     47 H13         7.4404    0.4737    0.6841 H         1 <0>         0.1584
     48 H14         3.8026   -2.4807    0.3749 H         1 <0>         0.4282
     49 H15         1.3519   -2.1989   -0.2536 H         1 <0>         0.1217
     50 H16        -0.8319   -1.2951    0.4326 H         1 <0>         0.1270
     51 H17        -0.9507    0.4996    2.1125 H         1 <0>         0.1242
     52 H18         1.1120    1.3900    3.1170 H         1 <0>         0.1267
     53 H19         3.3009    0.4927    2.4384 H         1 <0>         0.1428
     54 H20        12.1224   -1.1041   -1.8148 H         1 <0>         0.4321
     55 H21        14.2683   -2.6597   -2.3085 H         1 <0>         0.0956
     56 H22        14.3655   -2.0916   -0.6072 H         1 <0>         0.0959
     57 H23        14.7455   -6.2755   -1.4991 H         1 <0>         0.0519
     58 H24        14.4895   -5.0936   -2.8274 H         1 <0>         0.0461
     59 H25        13.1558   -5.4592   -1.6810 H         1 <0>         0.0830
     60 H26        16.7356   -4.9769   -0.7273 H         1 <0>         0.0591
     61 H27        16.5766   -3.2270   -0.3543 H         1 <0>         0.0552
     62 H28        16.4795   -3.7951   -2.0556 H         1 <0>         0.0552
     63 H29        14.8805   -5.4853    0.8673 H         1 <0>         0.0517
     64 H30        13.2907   -4.6690    0.6854 H         1 <0>         0.0836
     65 H31        14.7215   -3.7354    1.2403 H         1 <0>         0.0459
@<TRIPOS>BOND
     1    1    2 1
     2    1   35 1
     3    1   36 1
     4    1   37 1
     5    2    7 ar
     6    2    3 ar
     7    3    4 ar
     8    3   38 1
     9    4    5 ar
    10    4   39 1
    11    5    6 ar
    12    5   40 1
    13    6    7 ar
    14    6    8 1
    15    7   41 1
    16    8    9 1
    17    8   42 1
    18    8   43 1
    19    9   17 1
    20    9   10 1
    21   10   15 ar
    22   10   11 ar
    23   11   12 ar
    24   11   44 1
    25   12   13 ar
    26   12   45 1
    27   13   14 ar
    28   13   27 1
    29   14   15 ar
    30   14   46 1
    31   15   16 1
    32   16   17 2
    33   16   47 1
    34   17   18 1
    35   18   19 2
    36   18   20 am
    37   20   21 1
    38   20   48 1
    39   21   26 ar
    40   21   22 ar
    41   22   23 ar
    42   22   49 1
    43   23   24 ar
    44   23   50 1
    45   24   25 ar
    46   24   51 1
    47   25   26 ar
    48   25   52 1
    49   26   53 1
    50   27   28 am
    51   27   54 1
    52   28   29 2
    53   28   30 1
    54   30   31 1
    55   30   55 1
    56   30   56 1
    57   31   32 1
    58   31   33 1
    59   31   34 1
    60   32   57 1
    61   32   58 1
    62   32   59 1
    63   33   60 1
    64   33   61 1
    65   33   62 1
    66   34   63 1
    67   34   64 1
    68   34   65 1
@<TRIPOS>MOLECULE
ZINC03979014
   62    62     0     0     0
SMALL
USER_CHARGES

@<TRIPOS>ATOM
      1 C1          3.2541    2.1779    2.6729 C.3       1 <0>        -0.1533
      2 C2          3.5223    0.6722    2.6297 C.3       1 <0>        -0.1245
      3 C3          2.1925   -0.0837    2.6626 C.3       1 <0>        -0.1167
      4 C4          2.4606   -1.5894    2.6195 C.3       1 <0>        -0.1220
      5 C5          1.1309   -2.3454    2.6523 C.3       1 <0>        -0.1012
      6 C6          1.3906   -3.8423    2.4715 C.3       1 <0>        -0.0906
      7 H1          1.9759   -4.0028    1.5661 H         1 <0>         0.1121
      8 C7          0.0559   -4.5810    2.3536 C.3       1 <0>        -0.1229
      9 C8         -0.6306   -4.1768    1.0744 C.2       1 <0>         0.5261
     10 O1         -0.0560   -3.4677    0.2757 O.2       1 <0>        -0.5085
     11 N1         -1.8830   -4.6035    0.8179 N.am      1 <0>        -0.5979
     12 O2         -2.5281   -4.2238   -0.3841 O.3       1 <0>        -0.3170
     13 C9          2.1519   -4.3674    3.6614 C.2       1 <0>         0.5240
     14 O3          2.4567   -3.6181    4.5650 O.2       1 <0>        -0.5188
     15 N2          2.4941   -5.6696    3.7213 N.am      1 <0>        -0.7120
     16 C10         3.2342   -6.1801    4.8780 C.3       1 <0>         0.1368
     17 H2          3.9252   -5.4157    5.2334 H         1 <0>         0.1131
     18 C11         2.2515   -6.5381    5.9947 C.3       1 <0>        -0.1069
     19 C12         1.4658   -5.2901    6.4022 C.3       1 <0>        -0.1379
     20 C13         1.2815   -7.6111    5.4959 C.3       1 <0>        -0.1463
     21 C14         4.0080   -7.4094    4.4766 C.2       1 <0>         0.5325
     22 O4          3.9473   -7.8188    3.3366 O.2       1 <0>        -0.5380
     23 N3          4.7676   -8.0538    5.3845 N.am      1 <0>        -0.6013
     24 C15         4.9262   -7.6706    6.7992 C.3       1 <0>         0.0968
     25 C16         6.2883   -8.2744    7.2233 C.3       1 <0>        -0.1335
     26 C17         6.2883   -9.6182    6.4476 C.3       1 <0>        -0.1268
     27 C18         5.5701   -9.2590    5.1296 C.3       1 <0>         0.1392
     28 H3          6.3063   -9.0564    4.3518 H         1 <0>         0.0890
     29 C19         4.6583  -10.4101    4.7002 C.3       1 <0>         0.0623
     30 O5          3.7918  -10.7602    5.7813 O.3       1 <0>        -0.5666
     31 H4          2.7180    2.4254    3.5891 H         1 <0>         0.0527
     32 H5          4.2015    2.7165    2.6495 H         1 <0>         0.0520
     33 H6          2.6518    2.4646    1.8108 H         1 <0>         0.0528
     34 H7          4.0583    0.4248    1.7135 H         1 <0>         0.0590
     35 H8          4.1246    0.3856    3.4918 H         1 <0>         0.0600
     36 H9          1.6564    0.1637    3.5789 H         1 <0>         0.0596
     37 H10         1.5902    0.2029    1.8006 H         1 <0>         0.0585
     38 H11         2.9967   -1.8369    1.7032 H         1 <0>         0.0556
     39 H12         3.0630   -1.8761    3.4815 H         1 <0>         0.0786
     40 H13         0.6396   -2.1750    3.6103 H         1 <0>         0.0680
     41 H14         0.4897   -1.9880    1.8466 H         1 <0>         0.0795
     42 H15         0.2351   -5.6561    2.3458 H         1 <0>         0.1035
     43 H16        -0.5776   -4.3244    3.2027 H         1 <0>         0.1055
     44 H17        -2.3426   -5.1707    1.4566 H         1 <0>         0.4082
     45 H18        -3.4228   -4.5780   -0.4792 H         1 <0>         0.3886
     46 H19         2.2503   -6.2689    2.9986 H         1 <0>         0.4080
     47 H20         2.8021   -6.9179    6.8553 H         1 <0>         0.0882
     48 H21         0.7657   -5.5451    7.1978 H         1 <0>         0.0518
     49 H22         2.1568   -4.5257    6.7576 H         1 <0>         0.0658
     50 H23         0.9152   -4.9103    5.5416 H         1 <0>         0.0555
     51 H24         1.8412   -8.5002    5.2056 H         1 <0>         0.0560
     52 H25         0.5814   -7.8661    6.2915 H         1 <0>         0.0598
     53 H26         0.7308   -7.2313    4.6353 H         1 <0>         0.0542
     54 H27         4.9450   -6.5853    6.8985 H         1 <0>         0.0785
     55 H28         4.1205   -8.0934    7.3994 H         1 <0>         0.0793
     56 H29         7.1140   -7.6388    6.9035 H         1 <0>         0.0768
     57 H30         6.3222   -8.4445    8.2994 H         1 <0>         0.0878
     58 H31         7.3078   -9.9524    6.2553 H         1 <0>         0.0815
     59 H32         5.7286  -10.3782    6.9928 H         1 <0>         0.0913
     60 H33         4.0618  -10.1004    3.8421 H         1 <0>         0.0611
     61 H34         5.2662  -11.2729    4.4278 H         1 <0>         0.0544
     62 H35         3.1843  -11.4850    5.5795 H         1 <0>         0.3790
@<TRIPOS>BOND
     1    1    2 1
     2    1   31 1
     3    1   32 1
     4    1   33 1
     5    2    3 1
     6    2   34 1
     7    2   35 1
     8    3    4 1
     9    3   36 1
    10    3   37 1
    11    4    5 1
    12    4   38 1
    13    4   39 1
    14    5    6 1
    15    5   40 1
    16    5   41 1
    17    6    7 1
    18    6    8 1
    19    6   13 1
    20    8    9 1
    21    8   42 1
    22    8   43 1
    23    9   10 2
    24    9   11 am
    25   11   12 1
    26   11   44 1
    27   12   45 1
    28   13   14 2
    29   13   15 am
    30   15   16 1
    31   15   46 1
    32   16   17 1
    33   16   18 1
    34   16   21 1
    35   18   19 1
    36   18   20 1
    37   18   47 1
    38   19   48 1
    39   19   49 1
    40   19   50 1
    41   20   51 1
    42   20   52 1
    43   20   53 1
    44   21   22 2
    45   21   23 am
    46   23   27 1
    47   23   24 1
    48   24   25 1
    49   24   54 1
    50   24   55 1
    51   25   26 1
    52   25   56 1
    53   25   57 1
    54   26   27 1
    55   26   58 1
    56   26   59 1
    57   27   28 1
    58   27   29 1
    59   29   30 1
    60   29   60 1
    61   29   61 1
    62   30   62 1
@<TRIPOS>MOLECULE
ZINC06020153
   38    38     0     0     0
SMALL
USER_CHARGES
(2S)-2-[[(2R)-2-benzyl-4-(hydroxyamino)-4-oxo-butanoyl]amino]propanoic acid
@<TRIPOS>ATOM
      1 C1         -5.6720    7.8357   -1.6245 C.3       1 <0>        -0.1338
      2 C2         -6.0443    6.4031   -2.0117 C.3       1 <0>         0.1040
      3 H1         -6.6185    5.9140   -1.2110 H         1 <0>         0.0838
      4 C3         -6.8536    6.4205   -3.2828 C.2       1 <0>         0.4649
      5 O1         -6.4519    5.8391   -4.2628 O.co2     1 <0>        -0.6384
      6 O2         -8.0209    7.0818   -3.3262 O.co2     1 <0>        -0.7584
      7 N1         -4.8234    5.6209   -2.2209 N.am      1 <0>        -0.7175
      8 C4         -4.2073    5.0399   -1.1723 C.2       1 <0>         0.5189
      9 O3         -4.6637    5.1647   -0.0556 O.2       1 <0>        -0.5385
     10 C5         -2.9515    4.2353   -1.3874 C.3       1 <0>        -0.0834
     11 H2         -3.1797    3.4024   -2.0688 H         1 <0>         0.1062
     12 C6         -2.4592    3.6897   -0.0454 C.3       1 <0>        -0.0736
     13 C7         -1.2751    2.7861   -0.2745 C.ar      1 <0>        -0.0718
     14 C8         -1.4698    1.4379   -0.5101 C.ar      1 <0>        -0.1160
     15 C9         -0.3833    0.6082   -0.7153 C.ar      1 <0>        -0.1173
     16 C10         0.8972    1.1284   -0.6954 C.ar      1 <0>        -0.1296
     17 C11         1.0916    2.4775   -0.4650 C.ar      1 <0>        -0.1195
     18 C12         0.0055    3.3063   -0.2546 C.ar      1 <0>        -0.1204
     19 C13        -1.8721    5.1290   -2.0015 C.3       1 <0>        -0.1256
     20 C14        -1.6481    6.3272   -1.1155 C.2       1 <0>         0.5145
     21 O4         -2.3492    6.5004   -0.1411 O.2       1 <0>        -0.4901
     22 N2         -0.6687    7.2064   -1.4059 N.am      1 <0>        -0.6046
     23 O5         -0.4583    8.3323   -0.5734 O.3       1 <0>        -0.3500
     24 H3         -5.0813    7.8230   -0.6967 H         1 <0>         0.0511
     25 H4         -6.5887    8.4231   -1.4675 H         1 <0>         0.0667
     26 H5         -5.0784    8.2910   -2.4309 H         1 <0>         0.0425
     27 H6         -4.4095    5.5077   -3.2338 H         1 <0>         0.4158
     28 H7         -2.1618    4.5265    0.6037 H         1 <0>         0.0970
     29 H8         -3.2670    3.1203    0.4375 H         1 <0>         0.0838
     30 H9         -2.4705    1.0322   -0.5301 H         1 <0>         0.1234
     31 H10        -0.5353   -0.4458   -0.8956 H         1 <0>         0.1200
     32 H11         1.7457    0.4810   -0.8602 H         1 <0>         0.1179
     33 H12         2.0921    2.8841   -0.4498 H         1 <0>         0.1183
     34 H13         0.1573    4.3604   -0.0749 H         1 <0>         0.1169
     35 H14        -0.9347    4.5610   -2.0940 H         1 <0>         0.1064
     36 H15        -2.1970    5.4649   -2.9973 H         1 <0>         0.1059
     37 H16        -0.0328    7.0493   -2.2896 H         1 <0>         0.4198
     38 H17         0.3410    9.0499   -0.8104 H         1 <0>         0.4107
@<TRIPOS>BOND
     1    1    2 1
     2    1   24 1
     3    1   25 1
     4    1   26 1
     5    2    3 1
     6    2    4 1
     7    2    7 1
     8    4    5 2
     9    4    6 1
    10    7    8 am
    11    7   27 1
    12    8    9 2
    13    8   10 1
    14   10   11 1
    15   10   12 1
    16   10   19 1
    17   12   13 1
    18   12   28 1
    19   12   29 1
    20   13   18 ar
    21   13   14 ar
    22   14   15 ar
    23   14   30 1
    24   15   16 ar
    25   15   31 1
    26   16   17 ar
    27   16   32 1
    28   17   18 ar
    29   17   33 1
    30   18   34 1
    31   19   20 1
    32   19   35 1
    33   19   36 1
    34   20   21 2
    35   20   22 am
    36   22   23 1
    37   22   37 1
    38   23   38 1
