@<TRIPOS>MOLECULE
ZINC60291636
   85    88     0     0     0
SMALL
USER_CHARGES

@<TRIPOS>ATOM
      1 C1         -5.4025    1.3849   -3.9242 C.3       1 <0>        -0.1458
      2 C2         -5.2204   -0.0231   -3.3538 C.3       1 <0>        -0.0937
      3 C3         -6.2892   -0.2849   -2.2908 C.3       1 <0>        -0.1500
      4 C4         -5.3576   -1.0508   -4.4789 C.3       1 <0>        -0.1115
      5 C5         -5.0533   -2.4450   -3.9348 C.3       1 <0>         0.1291
      6 H1         -5.6984   -2.6505   -3.0756 H         1 <0>         0.1034
      7 C6         -5.2929   -3.4912   -4.9968 C.2       1 <0>         0.5124
      8 O1         -5.5322   -3.1620   -6.1381 O.2       1 <0>        -0.4913
      9 N1         -5.2381   -4.8034   -4.6427 N.am      1 <0>        -0.7150
     10 C7         -5.3319   -5.7933   -5.7393 C.3       1 <0>         0.1345
     11 H2         -5.6043   -5.3024   -6.6716 H         1 <0>         0.1151
     12 C8         -3.9719   -6.4354   -5.8765 C.2       1 <0>         0.5193
     13 O2         -3.4704   -6.9977   -4.9264 O.2       1 <0>        -0.5415
     14 N2         -3.3204   -6.3791   -7.0754 N.am      1 <0>        -0.6769
     15 C9         -1.9388   -6.9353   -7.0587 C.3       1 <0>         0.1669
     16 H3         -1.8718   -7.7574   -6.3527 H         1 <0>         0.1139
     17 C10        -1.0174   -5.8129   -6.6450 C.2       1 <0>         0.5118
     18 O3         -1.3656   -4.6731   -6.9004 O.2       1 <0>        -0.5050
     19 N3          0.1576   -6.0399   -6.0422 N.am      1 <0>        -0.6094
     20 C11         0.9208   -7.2957   -6.0527 C.3       1 <0>         0.0975
     21 C12         2.4044   -6.9253   -5.9381 C.3       1 <0>        -0.1325
     22 C13         2.4269   -5.4154   -5.6746 C.3       1 <0>        -0.1229
     23 C14         0.9753   -5.0816   -5.2837 C.3       1 <0>         0.1033
     24 H4          0.8822   -5.2680   -4.2168 H         1 <0>         0.1079
     25 C15         0.6480   -3.6731   -5.6412 C.2       1 <0>         0.5468
     26 O4          1.5306   -3.0220   -6.2170 O.2       1 <0>        -0.5431
     27 N4         -0.5095   -3.0232   -5.4052 N.am      1 <0>        -0.7071
     28 C16        -1.3020   -3.1105   -4.1741 C.3       1 <0>         0.1432
     29 H5         -0.9074   -2.4160   -3.4228 H         1 <0>         0.0848
     30 C17        -2.7172   -2.6823   -4.5120 C.2       1 <0>         0.5043
     31 O5         -2.9961   -2.4645   -5.6704 O.2       1 <0>        -0.4704
     32 N5         -3.6354   -2.5500   -3.5210 N.am      1 <0>        -0.7349
     33 C18        -1.3762   -4.5090   -3.5693 C.3       1 <0>        -0.1127
     34 C19        -0.2453   -4.6862   -2.5540 C.3       1 <0>        -0.1539
     35 C20        -2.7239   -4.6907   -2.8683 C.3       1 <0>        -0.1647
     36 C21        -1.5751   -7.4153   -8.4656 C.3       1 <0>        -0.1919
     37 C22        -2.4683   -8.5665   -8.8503 C.2       1 <0>         0.4966
     38 O6         -3.3171   -8.9661   -8.0716 O.co2     1 <0>        -0.6797
     39 O7         -2.3422   -9.0982   -9.9402 O.co2     1 <0>        -0.6992
     40 C23        -6.3722   -6.8601   -5.3900 C.3       1 <0>        -0.0453
     41 C24        -7.7369   -6.2254   -5.3146 C.2       1 <0>        -0.1502
     42 C25        -8.3459   -5.7704   -4.2083 C.2       1 <0>         0.0490
     43 N6         -9.5749   -5.2608   -4.5282 N.pl3     1 <0>        -0.5972
     44 H6        -10.1999   -4.8743   -3.8950 H         1 <0>         0.4120
     45 C26        -9.7922   -5.3785   -5.8827 C.ar      1 <0>         0.0970
     46 C27        -8.6478   -5.9821   -6.4358 C.ar      1 <0>        -0.0965
     47 C28        -8.5825   -6.2238   -7.8090 C.ar      1 <0>        -0.0625
     48 C29        -9.6308   -5.8690   -8.6109 C.ar      1 <0>        -0.1477
     49 C30       -10.7601   -5.2697   -8.0709 C.ar      1 <0>        -0.0980
     50 C31       -10.8494   -5.0304   -6.7168 C.ar      1 <0>        -0.1376
     51 H7         -5.3048    2.1171   -3.1227 H         1 <0>         0.0525
     52 H8         -4.6411    1.5714   -4.6815 H         1 <0>         0.0550
     53 H9         -6.3914    1.4693   -4.3748 H         1 <0>         0.0543
     54 H10        -4.2315   -0.1075   -2.9033 H         1 <0>         0.0693
     55 H11        -7.2781   -0.2005   -2.7414 H         1 <0>         0.0549
     56 H12        -6.1595   -1.2880   -1.8845 H         1 <0>         0.0528
     57 H13        -6.1914    0.4473   -1.4893 H         1 <0>         0.0537
     58 H14        -6.3747   -1.0276   -4.8702 H         1 <0>         0.0751
     59 H15        -4.6555   -0.8112   -5.2775 H         1 <0>         0.0866
     60 H16        -5.1449   -5.0771   -3.7136 H         1 <0>         0.4062
     61 H17        -3.7227   -6.0063   -7.8776 H         1 <0>         0.4107
     62 H18         0.6302   -7.9042   -5.2005 H         1 <0>         0.0733
     63 H19         0.7516   -7.8280   -6.9821 H         1 <0>         0.0840
     64 H20         2.8587   -7.4568   -5.1050 H         1 <0>         0.0796
     65 H21         2.9189   -7.1505   -6.8690 H         1 <0>         0.0795
     66 H22         3.0941   -5.1832   -4.8516 H         1 <0>         0.0809
     67 H23         2.7021   -4.8804   -6.5773 H         1 <0>         0.0896
     68 H24        -0.8476   -2.4233   -6.1368 H         1 <0>         0.4214
     69 H25        -3.3772   -2.5213   -2.5807 H         1 <0>         0.4121
     70 H26        -1.2746   -5.2526   -4.3597 H         1 <0>         0.0989
     71 H27        -0.4856   -4.1380   -1.6431 H         1 <0>         0.0614
     72 H28        -0.1288   -5.7446   -2.3210 H         1 <0>         0.0662
     73 H29         0.6841   -4.3024   -2.9747 H         1 <0>         0.0568
     74 H30        -3.5303   -4.5235   -3.5823 H         1 <0>         0.0867
     75 H31        -2.7937   -5.7037   -2.4719 H         1 <0>         0.0651
     76 H32        -2.8079   -3.9742   -2.0511 H         1 <0>         0.0491
     77 H33        -1.7098   -6.5983   -9.1744 H         1 <0>         0.0686
     78 H34        -0.5351   -7.7416   -8.4807 H         1 <0>         0.0721
     79 H35        -6.3727   -7.6326   -6.1589 H         1 <0>         0.0936
     80 H36        -6.1254   -7.3066   -4.4267 H         1 <0>         0.0828
     81 H37        -7.9279   -5.8021   -3.2129 H         1 <0>         0.1641
     82 H38        -7.7066   -6.6891   -8.2363 H         1 <0>         0.1250
     83 H39        -9.5798   -6.0562   -9.6733 H         1 <0>         0.1217
     84 H40       -11.5801   -4.9944   -8.7176 H         1 <0>         0.1214
     85 H41       -11.7319   -4.5624   -6.3064 H         1 <0>         0.1148
@<TRIPOS>BOND
     1    1    2 1
     2    1   51 1
     3    1   52 1
     4    1   53 1
     5    2    3 1
     6    2    4 1
     7    2   54 1
     8    3   55 1
     9    3   56 1
    10    3   57 1
    11    4    5 1
    12    4   58 1
    13    4   59 1
    14    5    6 1
    15    5   32 1
    16    5    7 1
    17    7    8 2
    18    7    9 am
    19    9   10 1
    20    9   60 1
    21   10   11 1
    22   10   12 1
    23   10   40 1
    24   12   13 2
    25   12   14 am
    26   14   15 1
    27   14   61 1
    28   15   16 1
    29   15   17 1
    30   15   36 1
    31   17   18 2
    32   17   19 am
    33   19   23 1
    34   19   20 1
    35   20   21 1
    36   20   62 1
    37   20   63 1
    38   21   22 1
    39   21   64 1
    40   21   65 1
    41   22   23 1
    42   22   66 1
    43   22   67 1
    44   23   24 1
    45   23   25 1
    46   25   26 2
    47   25   27 am
    48   27   28 1
    49   27   68 1
    50   28   29 1
    51   28   30 1
    52   28   33 1
    53   30   31 2
    54   30   32 am
    55   32   69 1
    56   33   34 1
    57   33   35 1
    58   33   70 1
    59   34   71 1
    60   34   72 1
    61   34   73 1
    62   35   74 1
    63   35   75 1
    64   35   76 1
    65   36   37 1
    66   36   77 1
    67   36   78 1
    68   37   38 2
    69   37   39 1
    70   40   41 1
    71   40   79 1
    72   40   80 1
    73   41   46 1
    74   41   42 2
    75   42   43 1
    76   42   81 1
    77   43   44 1
    78   43   45 1
    79   45   50 ar
    80   45   46 ar
    81   46   47 ar
    82   47   48 ar
    83   47   82 1
    84   48   49 ar
    85   48   83 1
    86   49   50 ar
    87   49   84 1
    88   50   85 1
@<TRIPOS>MOLECULE
ZINC00017028
   30    31     0     0     0
SMALL
USER_CHARGES

@<TRIPOS>ATOM
      1 C1         -0.0184    1.5028    0.0103 C.3       1 <0>        -0.0341
      2 C2          0.0021   -0.0041    0.0020 C.2       1 <0>        -0.3692
      3 C3          0.0081   -0.8210   -1.1362 C.2       1 <0>         0.1190
      4 N1          0.0275   -2.0660   -0.7453 N.2       1 <0>        -0.3847
      5 O1          0.0346   -2.0827    0.6707 O.3       1 <0>        -0.1665
      6 C4          0.0239   -0.8085    1.0974 C.2       1 <0>         0.3941
      7 N2          0.0305   -0.3906    2.4152 N.2       1 <0>        -1.0242
      8 S1          0.0580   -1.5072    3.6379 S.o2      1 <0>         2.6134
      9 O2         -1.1783   -2.2053    3.5781 O.2       1 <0>        -1.0191
     10 O3          1.3121   -2.1701    3.5544 O.2       1 <0>        -1.0231
     11 C5          0.0598   -0.6156    5.1577 C.ar      1 <0>        -0.7010
     12 C6         -1.0119   -0.7213    6.0226 C.ar      1 <0>         0.0179
     13 C7         -1.0114   -0.0216    7.2152 C.ar      1 <0>        -0.2090
     14 C8          0.0615    0.7857    7.5465 C.ar      1 <0>        -0.0333
     15 C9          1.1363    0.8956    6.6866 C.ar      1 <0>        -0.2250
     16 C10         1.1415    0.1898    5.4899 C.ar      1 <0>         0.3160
     17 N3          2.2294    0.2945    4.6202 N.pl3     1 <0>        -0.8603
     18 C11        -0.0061   -0.3442   -2.5657 C.3       1 <0>        -0.0733
     19 H1          1.0042    1.8801    0.0026 H         1 <0>         0.0350
     20 H2         -0.5455    1.8639   -0.8728 H         1 <0>         0.0376
     21 H3         -0.5286    1.8543    0.9071 H         1 <0>         0.0575
     22 H4         -1.8513   -1.3509    5.7669 H         1 <0>         0.1360
     23 H5         -1.8510   -0.1055    7.8893 H         1 <0>         0.1217
     24 H6          0.0585    1.3312    8.4786 H         1 <0>         0.1217
     25 H7          1.9737    1.5265    6.9458 H         1 <0>         0.1227
     26 H8          2.2301   -0.1956    3.7831 H         1 <0>         0.4119
     27 H9          2.9843    0.8573    4.8533 H         1 <0>         0.3990
     28 H10         1.0181   -0.2145   -2.9156 H         1 <0>         0.0753
     29 H11        -0.5125   -1.0809   -3.1894 H         1 <0>         0.0677
     30 H12        -0.5340    0.6075   -2.6261 H         1 <0>         0.0765
@<TRIPOS>BOND
     1    1    2 1
     2    1   19 1
     3    1   20 1
     4    1   21 1
     5    2    6 2
     6    2    3 1
     7    3    4 2
     8    3   18 1
     9    4    5 1
    10    5    6 1
    11    6    7 1
    12    7    8 1
    13    8    9 2
    14    8   10 2
    15    8   11 1
    16   11   16 ar
    17   11   12 ar
    18   12   13 ar
    19   12   22 1
    20   13   14 ar
    21   13   23 1
    22   14   15 ar
    23   14   24 1
    24   15   16 ar
    25   15   25 1
    26   16   17 1
    27   17   26 1
    28   17   27 1
    29   18   28 1
    30   18   29 1
    31   18   30 1
@<TRIPOS>MOLECULE
ZINC01538857
   67    70     0     0     0
SMALL
USER_CHARGES

@<TRIPOS>ATOM
      1 C1         -0.0187    1.5258    0.0104 C.3       1 <0>        -0.1382
      2 C2          0.0021   -0.0041    0.0020 C.3       1 <0>        -0.0336
      3 C3          0.7421   -0.5109    1.2415 C.3       1 <0>        -0.1381
      4 C4         -1.4333   -0.5336    0.0129 C.3       1 <0>        -0.1445
      5 C5          0.7074   -0.4901   -1.2379 C.ar      1 <0>        -0.0354
      6 C6          0.0361   -1.2843   -2.1485 C.ar      1 <0>        -0.1476
      7 C7          0.6831   -1.7301   -3.2859 C.ar      1 <0>        -0.0191
      8 C8          2.0014   -1.3813   -3.5127 C.ar      1 <0>        -0.6294
      9 C9          2.6724   -0.5863   -2.6025 C.ar      1 <0>        -0.0193
     10 C10         2.0241   -0.1370   -1.4673 C.ar      1 <0>        -0.1421
     11 S1          2.8264   -1.9505   -4.9618 S.o2      1 <0>         2.6326
     12 O1          4.2169   -1.9365   -4.6694 O.2       1 <0>        -1.0088
     13 O2          2.1477   -3.1268   -5.3801 O.2       1 <0>        -1.0083
     14 N1          2.5798   -0.8164   -6.1431 N.2       1 <0>        -1.0341
     15 C11         3.1213   -1.0025   -7.4082 C.ar      1 <0>         0.4864
     16 C12         2.9242   -0.0487   -8.4114 C.ar      1 <0>        -0.0858
     17 C13         3.4885   -0.2805   -9.6652 C.ar      1 <0>         0.3658
     18 N2          4.1886   -1.3910   -9.8627 N.ar      1 <0>        -0.5868
     19 C14         4.3546   -2.2729   -8.8879 C.ar      1 <0>         0.4316
     20 N3          3.8386   -2.0865   -7.6813 N.ar      1 <0>        -0.5766
     21 C15         5.1445   -3.5012   -9.1529 C.ar      1 <0>         0.3858
     22 N4          5.6700   -3.6854  -10.3558 N.ar      1 <0>        -0.4764
     23 C16         6.3788   -4.7680  -10.6251 C.ar      1 <0>         0.1378
     24 C17         6.5692   -5.7165   -9.6309 C.ar      1 <0>        -0.2285
     25 C18         6.0051   -5.4919   -8.3836 C.ar      1 <0>         0.1431
     26 N5          5.3120   -4.3852   -8.1794 N.ar      1 <0>        -0.4640
     27 O3          3.3238    0.6161  -10.6697 O.3       1 <0>        -0.2846
     28 C19         3.9337    0.3046  -11.9239 C.3       1 <0>         0.0698
     29 C20         3.6412    1.4238  -12.9252 C.3       1 <0>         0.0778
     30 O4          4.2702    2.6302  -12.4883 O.3       1 <0>        -0.5631
     31 O5          2.1999    1.0769   -8.1704 O.3       1 <0>        -0.1988
     32 C21         2.8591    2.1742   -7.7125 C.ar      1 <0>         0.1327
     33 C22         4.2295    2.1271   -7.5099 C.ar      1 <0>        -0.1513
     34 C23         4.8981    3.2439   -7.0447 C.ar      1 <0>        -0.1158
     35 C24         4.2029    4.4094   -6.7801 C.ar      1 <0>        -0.1338
     36 C25         2.8359    4.4632   -6.9795 C.ar      1 <0>        -0.1781
     37 C26         2.1602    3.3494   -7.4515 C.ar      1 <0>         0.0921
     38 O6          0.8166    3.4025   -7.6540 O.3       1 <0>        -0.3032
     39 C27         0.1654    4.6412   -7.3649 C.3       1 <0>         0.0300
     40 H1          1.0039    1.9031    0.0027 H         1 <0>         0.0583
     41 H2         -0.5459    1.8868   -0.8726 H         1 <0>         0.0582
     42 H3         -0.5289    1.8773    0.9072 H         1 <0>         0.0573
     43 H4          0.2319   -0.1594    2.1383 H         1 <0>         0.0576
     44 H5          0.7568   -1.6008    1.2356 H         1 <0>         0.0567
     45 H6          1.7647   -0.1336    1.2338 H         1 <0>         0.0582
     46 H7         -1.9605   -0.1726   -0.8702 H         1 <0>         0.0606
     47 H8         -1.4185   -1.6235    0.0069 H         1 <0>         0.0594
     48 H9         -1.9435   -0.1821    0.9097 H         1 <0>         0.0568
     49 H10        -0.9938   -1.5568   -1.9713 H         1 <0>         0.1293
     50 H11         0.1588   -2.3512   -3.9970 H         1 <0>         0.1351
     51 H12         3.7024   -0.3141   -2.7796 H         1 <0>         0.1344
     52 H13         2.5473    0.4872   -0.7580 H         1 <0>         0.1235
     53 H14         6.8041   -4.9126  -11.6072 H         1 <0>         0.1694
     54 H15         7.1437   -6.6105   -9.8238 H         1 <0>         0.1470
     55 H16         6.1342   -6.2107   -7.5879 H         1 <0>         0.1709
     56 H17         5.0112    0.2091  -11.7902 H         1 <0>         0.0737
     57 H18         3.5296   -0.6350  -12.3009 H         1 <0>         0.0814
     58 H19         4.0297    1.1456  -13.9049 H         1 <0>         0.0645
     59 H20         2.5644    1.5792  -12.9922 H         1 <0>         0.0548
     60 H21         4.1268    3.3840  -13.0768 H         1 <0>         0.3753
     61 H22         4.7748    1.2177   -7.7151 H         1 <0>         0.1227
     62 H23         5.9659    3.2059   -6.8872 H         1 <0>         0.1185
     63 H24         4.7289    5.2797   -6.4164 H         1 <0>         0.1181
     64 H25         2.2954    5.3748   -6.7716 H         1 <0>         0.1266
     65 H26         0.5872    5.4280   -7.9903 H         1 <0>         0.0486
     66 H27        -0.9012    4.5474   -7.5691 H         1 <0>         0.0938
     67 H28         0.3136    4.8932   -6.3148 H         1 <0>         0.0495
@<TRIPOS>BOND
     1    1    2 1
     2    1   40 1
     3    1   41 1
     4    1   42 1
     5    2    3 1
     6    2    4 1
     7    2    5 1
     8    3   43 1
     9    3   44 1
    10    3   45 1
    11    4   46 1
    12    4   47 1
    13    4   48 1
    14    5   10 ar
    15    5    6 ar
    16    6    7 ar
    17    6   49 1
    18    7    8 ar
    19    7   50 1
    20    8    9 ar
    21    8   11 1
    22    9   10 ar
    23    9   51 1
    24   10   52 1
    25   11   12 2
    26   11   13 2
    27   11   14 1
    28   14   15 1
    29   15   20 ar
    30   15   16 ar
    31   16   17 ar
    32   16   31 1
    33   17   18 ar
    34   17   27 1
    35   18   19 ar
    36   19   20 ar
    37   19   21 1
    38   21   26 ar
    39   21   22 ar
    40   22   23 ar
    41   23   24 ar
    42   23   53 1
    43   24   25 ar
    44   24   54 1
    45   25   26 ar
    46   25   55 1
    47   27   28 1
    48   28   29 1
    49   28   56 1
    50   28   57 1
    51   29   30 1
    52   29   58 1
    53   29   59 1
    54   30   60 1
    55   31   32 1
    56   32   37 ar
    57   32   33 ar
    58   33   34 ar
    59   33   61 1
    60   34   35 ar
    61   34   62 1
    62   35   36 ar
    63   35   63 1
    64   36   37 ar
    65   36   64 1
    66   37   38 1
    67   38   39 1
    68   39   65 1
    69   39   66 1
    70   39   67 1
@<TRIPOS>MOLECULE
ZINC03826221
   51    53     0     0     0
SMALL
USER_CHARGES
2-(4,6-dimethoxypyrimidin-2-yl)oxy-3-methoxy-3,3-diphenyl-propanoic acid
@<TRIPOS>ATOM
      1 C1         -1.9248    2.7869   -2.7597 C.3       1 <0>         0.0354
      2 O1         -2.9464    1.9295   -2.2467 O.3       1 <0>        -0.2976
      3 C2         -2.6284    1.1688   -1.1709 C.ar      1 <0>         0.4219
      4 C3         -3.5681    0.3091   -0.6137 C.ar      1 <0>        -0.3163
      5 C4         -3.1971   -0.4513    0.4894 C.ar      1 <0>         0.4179
      6 N1         -1.9643   -0.3323    0.9720 N.ar      1 <0>        -0.5987
      7 C5         -1.0961    0.4964    0.4158 C.ar      1 <0>         0.5899
      8 N2         -1.4156    1.2389   -0.6313 N.ar      1 <0>        -0.6303
      9 O2          0.1511    0.5913    0.9355 O.3       1 <0>        -0.2545
     10 C6          1.0517    1.5001    0.2992 C.3       1 <0>         0.0317
     11 H1          0.4880    2.3256   -0.1354 H         1 <0>         0.0992
     12 C7          1.8072    0.7802   -0.7880 C.2       1 <0>         0.4711
     13 O3          1.6892   -0.4155   -0.9156 O.co2     1 <0>        -0.6219
     14 C8          2.0402    2.0455    1.3319 C.3       1 <0>         0.2223
     15 C9          2.8840    3.1223    0.6998 C.ar      1 <0>        -0.0319
     16 C10         2.2802    4.2227    0.1206 C.ar      1 <0>        -0.0953
     17 C11         3.0544    5.2128   -0.4550 C.ar      1 <0>        -0.1228
     18 C12         4.4320    5.0974   -0.4605 C.ar      1 <0>        -0.1224
     19 C13         5.0355    3.9945    0.1141 C.ar      1 <0>        -0.1237
     20 C14         4.2615    3.0069    0.6942 C.ar      1 <0>        -0.0715
     21 C15         1.2806    2.6225    2.4985 C.ar      1 <0>        -0.0902
     22 C16         0.0953    3.3008    2.2841 C.ar      1 <0>        -0.1062
     23 C17        -0.6039    3.8259    3.3547 C.ar      1 <0>        -0.1196
     24 C18        -0.1126    3.6819    4.6387 C.ar      1 <0>        -0.1232
     25 C19         1.0754    3.0081    4.8527 C.ar      1 <0>        -0.1219
     26 C20         1.7720    2.4785    3.7826 C.ar      1 <0>        -0.0977
     27 O4          2.8836    0.9866    1.7895 O.3       1 <0>        -0.3614
     28 C21         2.1744   -0.1224    2.3456 C.3       1 <0>         0.0228
     29 O5         -4.0806   -1.3030    1.0649 O.3       1 <0>        -0.2960
     30 C22        -3.6215   -2.0486    2.1941 C.3       1 <0>         0.0371
     31 H2         -2.3100    3.3380   -3.6176 H         1 <0>         0.0996
     32 H3         -1.6171    3.4893   -1.9851 H         1 <0>         0.0611
     33 H4         -1.0682    2.1875   -3.0678 H         1 <0>         0.0701
     34 H5         -4.5626    0.2335   -1.0281 H         1 <0>         0.1552
     35 H6          1.2038    4.3107    0.1210 H         1 <0>         0.1096
     36 H7          2.5829    6.0743   -0.9042 H         1 <0>         0.1157
     37 H8          5.0366    5.8688   -0.9141 H         1 <0>         0.1141
     38 H9          6.1117    3.9041    0.1094 H         1 <0>         0.1162
     39 H10         4.7330    2.1450    1.1428 H         1 <0>         0.1257
     40 H11        -0.2863    3.4172    1.2805 H         1 <0>         0.1153
     41 H12        -1.5319    4.3526    3.1876 H         1 <0>         0.1179
     42 H13        -0.6566    4.0960    5.4748 H         1 <0>         0.1179
     43 H14         1.4594    2.8959    5.8558 H         1 <0>         0.1202
     44 H15         2.7003    1.9524    3.9496 H         1 <0>         0.1284
     45 H16         2.8812   -0.8088    2.8119 H         1 <0>         0.0766
     46 H17         1.4684    0.2365    3.0945 H         1 <0>         0.0431
     47 H18         1.6326   -0.6408    1.5545 H         1 <0>         0.0751
     48 H19        -2.7700   -2.6632    1.9020 H         1 <0>         0.0649
     49 H20        -3.3195   -1.3616    2.9847 H         1 <0>         0.0627
     50 H21        -4.4247   -2.6897    2.5572 H         1 <0>         0.0977
     51 O6          2.6068    1.4681   -1.6181 O.co2     1 <0>        -0.7333
@<TRIPOS>BOND
     1    1    2 1
     2    1   31 1
     3    1   32 1
     4    1   33 1
     5    2    3 1
     6    3    8 ar
     7    3    4 ar
     8    4    5 ar
     9    4   34 1
    10    5    6 ar
    11    5   29 1
    12    6    7 ar
    13    7    8 ar
    14    7    9 1
    15    9   10 1
    16   10   11 1
    17   10   12 1
    18   10   14 1
    19   12   13 2
    20   12   51 1
    21   14   15 1
    22   14   21 1
    23   14   27 1
    24   15   20 ar
    25   15   16 ar
    26   16   17 ar
    27   16   35 1
    28   17   18 ar
    29   17   36 1
    30   18   19 ar
    31   18   37 1
    32   19   20 ar
    33   19   38 1
    34   20   39 1
    35   21   26 ar
    36   21   22 ar
    37   22   23 ar
    38   22   40 1
    39   23   24 ar
    40   23   41 1
    41   24   25 ar
    42   24   42 1
    43   25   26 ar
    44   25   43 1
    45   26   44 1
    46   27   28 1
    47   28   45 1
    48   28   46 1
    49   28   47 1
    50   29   30 1
    51   30   48 1
    52   30   49 1
    53   30   50 1
@<TRIPOS>MOLECULE
ZINC03945732
   62    65     0     0     0
SMALL
USER_CHARGES
2-benzo[1,3]dioxol-5-yl-4-(4-methoxyphenyl)-4-oxo-3-[(3,4,5-trimethoxyphenyl)methyl]but-2-enoic acid
@<TRIPOS>ATOM
      1 C1          6.3268    1.0855   -2.8550 C.3       1 <0>         0.0262
      2 O1          6.2362    0.1186   -1.8066 O.3       1 <0>        -0.3166
      3 C2          5.0130   -0.0764   -1.2525 C.ar      1 <0>         0.1430
      4 C3          4.8559   -1.0031   -0.2276 C.ar      1 <0>        -0.1632
      5 C4          3.6168   -1.2040    0.3373 C.ar      1 <0>        -0.0223
      6 C5          2.5152   -0.4743   -0.1205 C.ar      1 <0>        -0.1728
      7 C6          2.6767    0.4532   -1.1547 C.ar      1 <0>        -0.0390
      8 C7          3.9202    0.6514   -1.7107 C.ar      1 <0>        -0.2209
      9 C8          1.1847   -0.6867    0.4818 C.2       1 <0>         0.4510
     10 O2          1.0591   -1.4397    1.4298 O.2       1 <0>        -0.4089
     11 C9          0.0144    0.0093   -0.0617 C.2       1 <0>        -0.1567
     12 C10        -0.9487   -0.6912   -0.7199 C.2       1 <0>        -0.0545
     13 C11        -2.0709    0.0209   -1.3608 C.ar      1 <0>         0.0057
     14 C12        -1.8320    0.8823   -2.4364 C.ar      1 <0>        -0.1077
     15 C13        -2.8811    1.5457   -3.0334 C.ar      1 <0>        -0.0971
     16 C14        -4.1780    1.3629   -2.5708 C.ar      1 <0>         0.0169
     17 C15        -4.4235    0.5044   -1.4975 C.ar      1 <0>         0.0304
     18 C16        -3.3768   -0.1681   -0.8982 C.ar      1 <0>        -0.0689
     19 O3         -5.7644    0.5011   -1.2407 O.3       1 <0>        -0.3094
     20 C17        -6.3827    1.0441   -2.4222 C.3       1 <0>         0.2133
     21 O4         -5.3649    1.8944   -2.9822 O.3       1 <0>        -0.3123
     22 C18        -0.8706   -2.1687   -0.7930 C.2       1 <0>         0.4814
     23 O5          0.0068   -2.7604   -0.1981 O.co2     1 <0>        -0.5993
     24 C19        -0.1219    1.5004    0.1085 C.3       1 <0>        -0.0452
     25 C20        -0.7272    1.7989    1.4560 C.ar      1 <0>         0.0067
     26 C21        -2.1014    1.8230    1.6042 C.ar      1 <0>        -0.2216
     27 C22        -2.6623    2.0917    2.8436 C.ar      1 <0>         0.1527
     28 C23        -1.8410    2.3476    3.9351 C.ar      1 <0>         0.0209
     29 C24        -0.4599    2.3279    3.7806 C.ar      1 <0>         0.1507
     30 C25         0.0931    2.0533    2.5390 C.ar      1 <0>        -0.2242
     31 O6          0.3480    2.5781    4.8456 O.3       1 <0>        -0.3043
     32 C26         1.7575    2.5417    4.6133 C.3       1 <0>         0.0246
     33 O7         -2.3876    2.6163    5.1522 O.3       1 <0>        -0.3112
     34 C27        -2.6619    3.9863    5.4520 C.3       1 <0>         0.0358
     35 O8         -4.0142    2.1093    2.9897 O.3       1 <0>        -0.3039
     36 C28        -4.7963    1.8373    1.8251 C.3       1 <0>         0.0277
     37 H1          7.3563    1.1428   -3.2084 H         1 <0>         0.0983
     38 H2          5.6759    0.7909   -3.6782 H         1 <0>         0.0571
     39 H3          6.0173    2.0602   -2.4780 H         1 <0>         0.0559
     40 H4          5.7072   -1.5663    0.1253 H         1 <0>         0.1337
     41 H5          3.4957   -1.9240    1.1332 H         1 <0>         0.1411
     42 H6          1.8278    1.0159   -1.5140 H         1 <0>         0.1324
     43 H7          4.0467    1.3704   -2.5066 H         1 <0>         0.1308
     44 H8         -0.8250    1.0277   -2.7985 H         1 <0>         0.1376
     45 H9         -2.6947    2.2105   -3.8639 H         1 <0>         0.1339
     46 H10        -3.5661   -0.8356   -0.0706 H         1 <0>         0.1341
     47 H11        -6.6420    0.2472   -3.1193 H         1 <0>         0.0807
     48 H12        -7.2658    1.6263   -2.1590 H         1 <0>         0.1268
     49 H13         0.8617    1.9652    0.0411 H         1 <0>         0.0857
     50 H14        -0.7663    1.8982   -0.6754 H         1 <0>         0.0949
     51 H15        -2.7389    1.6284    0.7545 H         1 <0>         0.1364
     52 H16         1.1662    2.0378    2.4181 H         1 <0>         0.1332
     53 H17         2.2846    2.7580    5.5426 H         1 <0>         0.0997
     54 H18         2.0415    1.5516    4.2565 H         1 <0>         0.0601
     55 H19         2.0216    3.2876    3.8637 H         1 <0>         0.0550
     56 H20        -3.3652    4.3845    4.7207 H         1 <0>         0.0419
     57 H21        -3.0944    4.0603    6.4498 H         1 <0>         0.0881
     58 H22        -1.7353    4.5590    5.4143 H         1 <0>         0.0414
     59 H23        -5.8552    1.8828    2.0796 H         1 <0>         0.1008
     60 H24        -4.5750    2.5789    1.0575 H         1 <0>         0.0537
     61 H25        -4.5552    0.8428    1.4496 H         1 <0>         0.0607
     62 O9         -1.7731   -2.8556   -1.5195 O.co2     1 <0>        -0.7407
@<TRIPOS>BOND
     1    1    2 1
     2    1   37 1
     3    1   38 1
     4    1   39 1
     5    2    3 1
     6    3    8 ar
     7    3    4 ar
     8    4    5 ar
     9    4   40 1
    10    5    6 ar
    11    5   41 1
    12    6    7 ar
    13    6    9 1
    14    7    8 ar
    15    7   42 1
    16    8   43 1
    17    9   10 2
    18    9   11 1
    19   11   12 2
    20   11   24 1
    21   12   13 1
    22   12   22 1
    23   13   18 ar
    24   13   14 ar
    25   14   15 ar
    26   14   44 1
    27   15   16 ar
    28   15   45 1
    29   16   21 1
    30   16   17 ar
    31   17   18 ar
    32   17   19 1
    33   18   46 1
    34   19   20 1
    35   20   21 1
    36   20   47 1
    37   20   48 1
    38   22   23 2
    39   22   62 1
    40   24   25 1
    41   24   49 1
    42   24   50 1
    43   25   30 ar
    44   25   26 ar
    45   26   27 ar
    46   26   51 1
    47   27   28 ar
    48   27   35 1
    49   28   29 ar
    50   28   33 1
    51   29   30 ar
    52   29   31 1
    53   30   52 1
    54   31   32 1
    55   32   53 1
    56   32   54 1
    57   32   55 1
    58   33   34 1
    59   34   56 1
    60   34   57 1
    61   34   58 1
    62   35   36 1
    63   36   59 1
    64   36   60 1
    65   36   61 1
@<TRIPOS>MOLECULE
ZINC13741043
   28    29     0     0     0
SMALL
USER_CHARGES

@<TRIPOS>ATOM
      1 C1         -0.0184    1.5028    0.0103 C.3       1 <0>        -0.0347
      2 C2          0.0021   -0.0041    0.0020 C.2       1 <0>        -0.3685
      3 C3          0.0081   -0.8210   -1.1362 C.2       1 <0>         0.1195
      4 N1          0.0275   -2.0660   -0.7453 N.2       1 <0>        -0.3841
      5 O1          0.0346   -2.0827    0.6707 O.3       1 <0>        -0.1664
      6 C4          0.0239   -0.8085    1.0974 C.2       1 <0>         0.3949
      7 N2          0.0305   -0.3906    2.4152 N.2       1 <0>        -1.0221
      8 S1          0.0580   -1.5072    3.6379 S.o2      1 <0>         2.6104
      9 O2         -1.1783   -2.2053    3.5781 O.2       1 <0>        -1.0138
     10 O3          1.3121   -2.1701    3.5544 O.2       1 <0>        -1.0136
     11 C5          0.0598   -0.6156    5.1577 C.ar      1 <0>        -0.6310
     12 C6          1.2578   -0.2442    5.7391 C.ar      1 <0>         0.0069
     13 C7          1.2605    0.4555    6.9308 C.ar      1 <0>        -0.1786
     14 C8          0.0628    0.7845    7.5426 C.ar      1 <0>         0.1350
     15 C9         -1.1365    0.4120    6.9593 C.ar      1 <0>        -0.1786
     16 C10        -1.1368   -0.2830    5.7648 C.ar      1 <0>         0.0067
     17 F1          0.0642    1.4681    8.7078 F         1 <0>        -0.1386
     18 C11        -0.0061   -0.3442   -2.5657 C.3       1 <0>        -0.0734
     19 H1          1.0042    1.8801    0.0026 H         1 <0>         0.0362
     20 H2         -0.5455    1.8639   -0.8728 H         1 <0>         0.0379
     21 H3         -0.5286    1.8543    0.9071 H         1 <0>         0.0574
     22 H4          2.1920   -0.5013    5.2620 H         1 <0>         0.1484
     23 H5          2.1966    0.7452    7.3851 H         1 <0>         0.1407
     24 H6         -2.0713    0.6679    7.4357 H         1 <0>         0.1406
     25 H7         -2.0722   -0.5698    5.3074 H         1 <0>         0.1484
     26 H8          1.0181   -0.2145   -2.9156 H         1 <0>         0.0757
     27 H9         -0.5125   -1.0809   -3.1894 H         1 <0>         0.0678
     28 H10        -0.5340    0.6075   -2.6261 H         1 <0>         0.0767
@<TRIPOS>BOND
     1    1    2 1
     2    1   19 1
     3    1   20 1
     4    1   21 1
     5    2    6 2
     6    2    3 1
     7    3    4 2
     8    3   18 1
     9    4    5 1
    10    5    6 1
    11    6    7 1
    12    7    8 1
    13    8    9 2
    14    8   10 2
    15    8   11 1
    16   11   16 ar
    17   11   12 ar
    18   12   13 ar
    19   12   22 1
    20   13   14 ar
    21   13   23 1
    22   14   15 ar
    23   14   17 1
    24   15   16 ar
    25   15   24 1
    26   16   25 1
    27   18   26 1
    28   18   27 1
    29   18   28 1
@<TRIPOS>MOLECULE
ZINC00002110
   30    31     0     0     0
SMALL
USER_CHARGES

@<TRIPOS>ATOM
      1 C1         -0.0184    1.5028    0.0103 C.3       1 <0>        -0.0611
      2 C2          0.0021   -0.0041    0.0020 C.2       1 <0>        -0.2414
      3 C3          0.0078   -0.7875   -1.0905 C.2       1 <0>         0.0299
      4 O1          0.0270   -2.0679   -0.6879 O.3       1 <0>        -0.1202
      5 N1          0.0336   -2.0823    0.7282 N.2       1 <0>        -0.4533
      6 C4          0.0247   -0.8403    1.1416 C.2       1 <0>         0.3915
      7 N2          0.0326   -0.4182    2.4670 N.2       1 <0>        -1.0498
      8 S1          0.0598   -1.5334    3.6909 S.o2      1 <0>         2.6204
      9 O2         -1.1770   -2.2306    3.6327 O.2       1 <0>        -1.0268
     10 O3          1.3133   -2.1975    3.6075 O.2       1 <0>        -1.0267
     11 C5          0.0633   -0.6402    5.2097 C.ar      1 <0>        -0.6697
     12 C6          1.2629   -0.2696    5.7893 C.ar      1 <0>         0.0233
     13 C7          1.2693    0.4306    6.9796 C.ar      1 <0>        -0.2217
     14 C8          0.0688    0.7626    7.5948 C.ar      1 <0>         0.2448
     15 C9         -1.1344    0.3888    7.0098 C.ar      1 <0>        -0.2217
     16 C10        -1.1336   -0.3064    5.8165 C.ar      1 <0>         0.0232
     17 N3          0.0716    1.4703    8.7989 N.pl3     1 <0>        -0.8771
     18 C11        -0.0056   -0.3107   -2.5200 C.3       1 <0>        -0.0738
     19 H1          1.0042    1.8801    0.0026 H         1 <0>         0.0522
     20 H2         -0.5455    1.8639   -0.8728 H         1 <0>         0.0462
     21 H3         -0.5286    1.8543    0.9071 H         1 <0>         0.0698
     22 H4          2.1959   -0.5283    5.3107 H         1 <0>         0.1351
     23 H5          2.2065    0.7195    7.4320 H         1 <0>         0.1224
     24 H6         -2.0694    0.6450    7.4856 H         1 <0>         0.1224
     25 H7         -2.0688   -0.5935    5.3589 H         1 <0>         0.1352
     26 H8          0.9125    1.7306    9.2066 H         1 <0>         0.3971
     27 H9         -0.7672    1.7016    9.2275 H         1 <0>         0.3971
     28 H10         1.0187   -0.1814   -2.8695 H         1 <0>         0.0784
     29 H11        -0.5122   -1.0470   -3.1439 H         1 <0>         0.0724
     30 H12        -0.5330    0.6413   -2.5805 H         1 <0>         0.0818
@<TRIPOS>BOND
     1    1    2 1
     2    1   19 1
     3    1   20 1
     4    1   21 1
     5    2    6 1
     6    2    3 2
     7    3    4 1
     8    3   18 1
     9    4    5 1
    10    5    6 2
    11    6    7 1
    12    7    8 1
    13    8    9 2
    14    8   10 2
    15    8   11 1
    16   11   16 ar
    17   11   12 ar
    18   12   13 ar
    19   12   22 1
    20   13   14 ar
    21   13   23 1
    22   14   15 ar
    23   14   17 1
    24   15   16 ar
    25   15   24 1
    26   16   25 1
    27   17   26 1
    28   17   27 1
    29   18   28 1
    30   18   29 1
    31   18   30 1
@<TRIPOS>MOLECULE
ZINC00005803
   42    44     0     0     0
SMALL
USER_CHARGES

@<TRIPOS>ATOM
      1 C1         -0.0184    1.5028    0.0103 C.3       1 <0>        -0.0345
      2 C2          0.0021   -0.0041    0.0020 C.2       1 <0>        -0.3678
      3 C3          0.0081   -0.8210   -1.1362 C.2       1 <0>         0.1193
      4 N1          0.0275   -2.0660   -0.7453 N.2       1 <0>        -0.3847
      5 O1          0.0346   -2.0827    0.6707 O.3       1 <0>        -0.1669
      6 C4          0.0239   -0.8085    1.0974 C.2       1 <0>         0.3949
      7 N2          0.0305   -0.3906    2.4152 N.2       1 <0>        -1.0188
      8 S1          0.0580   -1.5072    3.6379 S.o2      1 <0>         2.6089
      9 O2         -1.1783   -2.2053    3.5781 O.2       1 <0>        -1.0174
     10 O3          1.3121   -2.1701    3.5544 O.2       1 <0>        -1.0122
     11 C5          0.0598   -0.6156    5.1577 C.ar      1 <0>        -0.6083
     12 C6         -0.9950   -0.7179    6.0122 C.ar      1 <0>        -0.0133
     13 C7         -1.0110   -0.0205    7.2180 C.ar      1 <0>        -0.1460
     14 C8          0.0284    0.7834    7.5762 C.ar      1 <0>        -0.0543
     15 C9          1.1331    0.9130    6.7208 C.ar      1 <0>        -0.0779
     16 C10         1.1528    0.2001    5.4966 C.ar      1 <0>         0.0331
     17 C11         2.2607    0.3255    4.6407 C.ar      1 <0>        -0.1054
     18 C12         3.3059    1.1231    4.9939 C.ar      1 <0>        -0.1011
     19 C13         3.3010    1.8238    6.1966 C.ar      1 <0>        -0.1270
     20 C14         2.2286    1.7371    7.0585 C.ar      1 <0>         0.1730
     21 N3          2.2327    2.4439    8.2591 N.pl3     1 <0>        -0.6832
     22 C15         1.6742    3.7971    8.3143 C.3       1 <0>         0.1172
     23 C16         2.7956    1.8340    9.4663 C.3       1 <0>         0.1178
     24 C17        -0.0061   -0.3442   -2.5657 C.3       1 <0>        -0.0732
     25 H1          1.0042    1.8801    0.0026 H         1 <0>         0.0360
     26 H2         -0.5455    1.8639   -0.8728 H         1 <0>         0.0373
     27 H3         -0.5286    1.8543    0.9071 H         1 <0>         0.0575
     28 H4         -1.8319   -1.3486    5.7512 H         1 <0>         0.1402
     29 H5         -1.8600   -0.1185    7.8782 H         1 <0>         0.1272
     30 H6          0.0024    1.3187    8.5138 H         1 <0>         0.1273
     31 H7          2.2830   -0.2109    3.7036 H         1 <0>         0.1466
     32 H8          4.1530    1.2135    4.3301 H         1 <0>         0.1271
     33 H9          4.1431    2.4493    6.4535 H         1 <0>         0.1217
     34 H10         0.6138    3.7427    8.5608 H         1 <0>         0.0324
     35 H11         2.1955    4.3745    9.0778 H         1 <0>         0.0558
     36 H12         1.7976    4.2810    7.3454 H         1 <0>         0.0563
     37 H13         3.1597    0.8337    9.2320 H         1 <0>         0.0623
     38 H14         3.6213    2.4450    9.8309 H         1 <0>         0.0414
     39 H15         2.0247    1.7695   10.2341 H         1 <0>         0.0393
     40 H16         1.0181   -0.2145   -2.9156 H         1 <0>         0.0755
     41 H17        -0.5125   -1.0809   -3.1894 H         1 <0>         0.0675
     42 H18        -0.5340    0.6075   -2.6261 H         1 <0>         0.0764
@<TRIPOS>BOND
     1    1    2 1
     2    1   25 1
     3    1   26 1
     4    1   27 1
     5    2    6 2
     6    2    3 1
     7    3    4 2
     8    3   24 1
     9    4    5 1
    10    5    6 1
    11    6    7 1
    12    7    8 1
    13    8    9 2
    14    8   10 2
    15    8   11 1
    16   11   16 ar
    17   11   12 ar
    18   12   13 ar
    19   12   28 1
    20   13   14 ar
    21   13   29 1
    22   14   15 ar
    23   14   30 1
    24   15   20 ar
    25   15   16 ar
    26   16   17 ar
    27   17   18 ar
    28   17   31 1
    29   18   19 ar
    30   18   32 1
    31   19   20 ar
    32   19   33 1
    33   20   21 1
    34   21   22 1
    35   21   23 1
    36   22   34 1
    37   22   35 1
    38   22   36 1
    39   23   37 1
    40   23   38 1
    41   23   39 1
    42   24   40 1
    43   24   41 1
    44   24   42 1
@<TRIPOS>MOLECULE
ZINC06706962
   44    46     0     0     0
SMALL
USER_CHARGES

@<TRIPOS>ATOM
      1 C1         -3.1120    2.2942    0.5488 C.3       1 <0>        -0.0347
      2 C2         -2.8050    0.8376    0.3139 C.2       1 <0>        -0.3687
      3 C3         -3.0096    0.1355   -0.8812 C.2       1 <0>         0.1192
      4 N1         -2.6251   -1.0985   -0.7009 N.2       1 <0>        -0.3859
      5 O1         -2.1578   -1.2240    0.6299 O.3       1 <0>        -0.1672
      6 C4         -2.2757   -0.0237    1.2225 C.2       1 <0>         0.3954
      7 N2         -1.9245    0.2801    2.5247 N.2       1 <0>        -1.0193
      8 S1         -1.2887   -0.8927    3.5058 S.o2      1 <0>         2.6085
      9 O2         -2.3186   -1.8488    3.7159 O.2       1 <0>        -1.0167
     10 O3         -0.0258   -1.2417    2.9557 O.2       1 <0>        -1.0142
     11 C5         -0.9679   -0.1463    5.0694 C.ar      1 <0>        -0.6099
     12 C6          0.2589    0.4431    5.3139 C.ar      1 <0>        -0.0112
     13 C7          0.5133    1.0294    6.5382 C.ar      1 <0>        -0.0969
     14 C8         -0.4646    1.0266    7.5244 C.ar      1 <0>         0.1561
     15 C9         -1.6957    0.4337    7.2756 C.ar      1 <0>        -0.1453
     16 C10        -1.9456   -0.1462    6.0474 C.ar      1 <0>        -0.0147
     17 N3         -0.2100    1.6191    8.7656 N.pl3     1 <0>        -0.6247
     18 C11         0.4540    2.7901    8.8298 C.2       1 <0>         0.5436
     19 N4          0.8011    3.3033   10.0268 N.pl3     1 <0>        -0.6296
     20 C12         1.3828    4.5732   10.1012 C.ar      1 <0>         0.1243
     21 C13         0.9021    5.6065    9.3073 C.ar      1 <0>        -0.0713
     22 C14         1.4788    6.8591    9.3832 C.ar      1 <0>        -0.1110
     23 C15         2.5340    7.0850   10.2479 C.ar      1 <0>        -0.1143
     24 C16         3.0149    6.0584   11.0397 C.ar      1 <0>        -0.1168
     25 C17         2.4387    4.8050   10.9732 C.ar      1 <0>        -0.1240
     26 S2          0.8568    3.6258    7.3909 S.2       1 <0>        -0.5715
     27 C18        -3.5765    0.7068   -2.1553 C.3       1 <0>        -0.0730
     28 H1         -2.2399    2.8954    0.2917 H         1 <0>         0.0364
     29 H2         -3.9554    2.5927   -0.0738 H         1 <0>         0.0371
     30 H3         -3.3628    2.4480    1.5983 H         1 <0>         0.0577
     31 H4          1.0190    0.4447    4.5467 H         1 <0>         0.1441
     32 H5          1.4717    1.4893    6.7286 H         1 <0>         0.1471
     33 H6         -2.4581    0.4296    8.0406 H         1 <0>         0.1294
     34 H7         -2.9043   -0.6034    5.8517 H         1 <0>         0.1439
     35 H8         -0.5114    1.1872    9.5802 H         1 <0>         0.4079
     36 H9          0.0785    5.4305    8.6312 H         1 <0>         0.1441
     37 H10         1.1055    7.6631    8.7661 H         1 <0>         0.1283
     38 H11         2.9836    8.0653   10.3048 H         1 <0>         0.1237
     39 H12         3.8391    6.2380   11.7141 H         1 <0>         0.1258
     40 H13         2.8116    4.0048   11.5953 H         1 <0>         0.1225
     41 H14        -2.7657    1.0950   -2.7718 H         1 <0>         0.0755
     42 H15        -4.1051   -0.0751   -2.7005 H         1 <0>         0.0673
     43 H16        -4.2687    1.5138   -1.9152 H         1 <0>         0.0764
     44 H17         0.6474    2.7920   10.8366 H         1 <0>         0.4065
@<TRIPOS>BOND
     1    1    2 1
     2    1   28 1
     3    1   29 1
     4    1   30 1
     5    2    6 2
     6    2    3 1
     7    3    4 2
     8    3   27 1
     9    4    5 1
    10    5    6 1
    11    6    7 1
    12    7    8 1
    13    8    9 2
    14    8   10 2
    15    8   11 1
    16   11   16 ar
    17   11   12 ar
    18   12   13 ar
    19   12   31 1
    20   13   14 ar
    21   13   32 1
    22   14   15 ar
    23   14   17 1
    24   15   16 ar
    25   15   33 1
    26   16   34 1
    27   17   18 1
    28   17   35 1
    29   18   19 1
    30   18   26 2
    31   19   20 1
    32   19   44 1
    33   20   25 ar
    34   20   21 ar
    35   21   22 ar
    36   21   36 1
    37   22   23 ar
    38   22   37 1
    39   23   24 ar
    40   23   38 1
    41   24   25 ar
    42   24   39 1
    43   25   40 1
    44   27   41 1
    45   27   42 1
    46   27   43 1
@<TRIPOS>MOLECULE
ZINC01481831
   43    46     0     0     0
SMALL
USER_CHARGES

@<TRIPOS>ATOM
      1 C1         -0.0184    1.5028    0.0103 C.3       1 <0>        -0.1164
      2 C2          0.0021   -0.0041    0.0020 C.ar      1 <0>        -0.0500
      3 C3          0.0057   -0.6874   -1.2002 C.ar      1 <0>        -0.0976
      4 C4          0.0240   -2.0723   -1.2102 C.ar      1 <0>         0.0353
      5 C5          0.0391   -2.7738   -0.0068 C.ar      1 <0>         0.0233
      6 C6          0.0352   -2.0828    1.1936 C.ar      1 <0>        -0.0805
      7 C7          0.0229   -0.7000    1.1959 C.ar      1 <0>        -0.0640
      8 C8          0.0251    0.0497    2.5032 C.3       1 <0>        -0.1183
      9 C9         -1.3914    0.3878    2.8908 C.2       1 <0>         0.3943
     10 O1         -2.3134    0.0524    2.1749 O.2       1 <0>        -0.3564
     11 C10        -1.6468    1.0945    4.0866 C.2       1 <0>        -0.1687
     12 C11        -2.8657    1.4965    4.6252 C.2       1 <0>        -0.5777
     13 C12        -2.7948    2.1751    5.8150 C.2       1 <0>        -0.1103
     14 C13        -1.5785    2.4042    6.3738 C.2       1 <0>        -0.2437
     15 S1         -0.4927    1.6978    5.3041 S.3       1 <0>         0.2409
     16 S2         -4.4006    1.1560    3.8296 S.o2      1 <0>         2.6215
     17 O2         -4.3857   -0.2243    3.4921 O.2       1 <0>        -0.9866
     18 O3         -5.4152    1.7308    4.6416 O.2       1 <0>        -1.0171
     19 N1         -4.4074    1.9926    2.4005 N.2       1 <0>        -0.9949
     20 C14        -5.5014    1.9124    1.5572 C.2       1 <0>         0.4162
     21 C15        -5.6365    2.5391    0.3584 C.2       1 <0>        -0.3013
     22 C16        -6.8869    2.1949   -0.1725 C.2       1 <0>         0.1341
     23 N2         -7.4818    1.3944    0.6697 N.2       1 <0>        -0.3722
     24 O4         -6.6180    1.1963    1.7741 O.3       1 <0>        -0.1594
     25 C17        -7.4480    2.6675   -1.4888 C.3       1 <0>        -0.0757
     26 Cl1        -4.4656    3.5837   -0.3843 Cl        1 <0>        -0.0683
     27 O5          0.0554   -4.1108   -0.2815 O.3       1 <0>        -0.3110
     28 C18        -0.3620   -4.2262   -1.6547 C.3       1 <0>         0.2134
     29 O6          0.0308   -2.9700   -2.2385 O.3       1 <0>        -0.3112
     30 H1          1.0042    1.8801    0.0026 H         1 <0>         0.0736
     31 H2         -0.5455    1.8639   -0.8728 H         1 <0>         0.0751
     32 H3         -0.5286    1.8543    0.9071 H         1 <0>         0.0739
     33 H4         -0.0061   -0.1410   -2.1316 H         1 <0>         0.1358
     34 H5          0.0470   -2.6240    2.1280 H         1 <0>         0.1343
     35 H6          0.4752   -0.5715    3.2775 H         1 <0>         0.1087
     36 H7          0.6011    0.9686    2.3941 H         1 <0>         0.1140
     37 H8         -3.6944    2.5230    6.3009 H         1 <0>         0.1502
     38 H9         -1.3595    2.9190    7.2976 H         1 <0>         0.1928
     39 H10        -7.1605    1.9718   -2.2771 H         1 <0>         0.0795
     40 H11        -8.5351    2.7146   -1.4244 H         1 <0>         0.0721
     41 H12        -7.0544    3.6580   -1.7170 H         1 <0>         0.0798
     42 H13         0.1530   -5.0533   -2.1433 H         1 <0>         0.1288
     43 H14        -1.4425   -4.3562   -1.7169 H         1 <0>         0.0836
@<TRIPOS>BOND
     1    1    2 1
     2    1   30 1
     3    1   31 1
     4    1   32 1
     5    2    7 ar
     6    2    3 ar
     7    3    4 ar
     8    3   33 1
     9    4   29 1
    10    4    5 ar
    11    5    6 ar
    12    5   27 1
    13    6    7 ar
    14    6   34 1
    15    7    8 1
    16    8    9 1
    17    8   35 1
    18    8   36 1
    19    9   10 2
    20    9   11 1
    21   11   15 1
    22   11   12 2
    23   12   13 1
    24   12   16 1
    25   13   14 2
    26   13   37 1
    27   14   15 1
    28   14   38 1
    29   16   17 2
    30   16   18 2
    31   16   19 1
    32   19   20 1
    33   20   24 1
    34   20   21 2
    35   21   22 1
    36   21   26 1
    37   22   23 2
    38   22   25 1
    39   23   24 1
    40   25   39 1
    41   25   40 1
    42   25   41 1
    43   27   28 1
    44   28   29 1
    45   28   42 1
    46   28   43 1
@<TRIPOS>MOLECULE
ZINC13602366
   29    30     0     0     0
SMALL
USER_CHARGES

@<TRIPOS>ATOM
      1 C1         -0.0184    1.5028    0.0103 C.3       1 <0>        -0.0342
      2 C2          0.0021   -0.0041    0.0020 C.2       1 <0>        -0.3697
      3 C3          0.0081   -0.8210   -1.1362 C.2       1 <0>         0.1194
      4 N1          0.0275   -2.0660   -0.7453 N.2       1 <0>        -0.3846
      5 O1          0.0346   -2.0827    0.6707 O.3       1 <0>        -0.1666
      6 C4          0.0239   -0.8085    1.0974 C.2       1 <0>         0.3953
      7 N2          0.0305   -0.3906    2.4152 N.2       1 <0>        -1.0228
      8 S1          0.0580   -1.5072    3.6379 S.o2      1 <0>         2.6101
      9 O2         -1.1783   -2.2053    3.5781 O.2       1 <0>        -1.0153
     10 O3          1.3121   -2.1701    3.5544 O.2       1 <0>        -1.0151
     11 C5          0.0598   -0.6156    5.1577 C.ar      1 <0>        -0.6274
     12 C6          1.2584   -0.2445    5.7387 C.ar      1 <0>        -0.0056
     13 C7          1.2626    0.4541    6.9304 C.ar      1 <0>        -0.1702
     14 C8          0.0628    0.7838    7.5441 C.ar      1 <0>         0.1416
     15 C9         -1.1384    0.4107    6.9588 C.ar      1 <0>        -0.1702
     16 C10        -1.1373   -0.2833    5.7644 C.ar      1 <0>        -0.0057
     17 O4          0.0643    1.4707    8.7167 O.3       1 <0>        -0.5013
     18 C11        -0.0061   -0.3442   -2.5657 C.3       1 <0>        -0.0732
     19 H1          1.0042    1.8801    0.0026 H         1 <0>         0.0359
     20 H2         -0.5455    1.8639   -0.8728 H         1 <0>         0.0377
     21 H3         -0.5286    1.8543    0.9071 H         1 <0>         0.0571
     22 H4          2.1921   -0.5014    5.2606 H         1 <0>         0.1426
     23 H5          2.1990    0.7431    7.3842 H         1 <0>         0.1335
     24 H6         -2.0737    0.6662    7.4346 H         1 <0>         0.1335
     25 H7         -2.0723   -0.5701    5.3061 H         1 <0>         0.1426
     26 H8          0.0458    2.4316    8.6097 H         1 <0>         0.3927
     27 H9          1.0181   -0.2145   -2.9156 H         1 <0>         0.0756
     28 H10        -0.5125   -1.0809   -3.1894 H         1 <0>         0.0677
     29 H11        -0.5340    0.6075   -2.6261 H         1 <0>         0.0765
@<TRIPOS>BOND
     1    1    2 1
     2    1   19 1
     3    1   20 1
     4    1   21 1
     5    2    6 2
     6    2    3 1
     7    3    4 2
     8    3   18 1
     9    4    5 1
    10    5    6 1
    11    6    7 1
    12    7    8 1
    13    8    9 2
    14    8   10 2
    15    8   11 1
    16   11   16 ar
    17   11   12 ar
    18   12   13 ar
    19   12   22 1
    20   13   14 ar
    21   13   23 1
    22   14   15 ar
    23   14   17 1
    24   15   16 ar
    25   15   24 1
    26   16   25 1
    27   17   26 1
    28   18   27 1
    29   18   28 1
    30   18   29 1
@<TRIPOS>MOLECULE
ZINC13602369
   30    31     0     0     0
SMALL
USER_CHARGES

@<TRIPOS>ATOM
      1 C1         -0.0184    1.5028    0.0103 C.3       1 <0>        -0.0340
      2 C2          0.0021   -0.0041    0.0020 C.2       1 <0>        -0.3708
      3 C3          0.0081   -0.8210   -1.1362 C.2       1 <0>         0.1192
      4 N1          0.0275   -2.0660   -0.7453 N.2       1 <0>        -0.3859
      5 O1          0.0346   -2.0827    0.6707 O.3       1 <0>        -0.1671
      6 C4          0.0239   -0.8085    1.0974 C.2       1 <0>         0.3959
      7 N2          0.0305   -0.3906    2.4152 N.2       1 <0>        -1.0216
      8 S1          0.0580   -1.5072    3.6379 S.o2      1 <0>         2.6094
      9 O2         -1.1783   -2.2053    3.5781 O.2       1 <0>        -1.0178
     10 O3          1.3121   -2.1701    3.5544 O.2       1 <0>        -1.0155
     11 C5          0.0598   -0.6156    5.1577 C.ar      1 <0>        -0.5696
     12 C6          1.2585   -0.2442    5.7392 C.ar      1 <0>        -0.0798
     13 C7          1.2645    0.4551    6.9319 C.ar      1 <0>        -0.0980
     14 C8          0.0725    0.7855    7.5466 C.ar      1 <0>        -0.1596
     15 C9         -1.1330    0.4145    6.9651 C.ar      1 <0>         0.1879
     16 C10        -1.1355   -0.2836    5.7639 C.ar      1 <0>        -0.0965
     17 N3         -2.3402    0.7471    7.5840 N.pl3     1 <0>        -0.8818
     18 C11        -0.0061   -0.3442   -2.5657 C.3       1 <0>        -0.0729
     19 H1          1.0042    1.8801    0.0026 H         1 <0>         0.0358
     20 H2         -0.5455    1.8639   -0.8728 H         1 <0>         0.0372
     21 H3         -0.5286    1.8543    0.9071 H         1 <0>         0.0571
     22 H4          2.1920   -0.5014    5.2607 H         1 <0>         0.1343
     23 H5          2.2023    0.7429    7.3837 H         1 <0>         0.1261
     24 H6          0.0779    1.3315    8.4784 H         1 <0>         0.1208
     25 H7         -2.0713   -0.5700    5.3071 H         1 <0>         0.1344
     26 H8         -2.3373    1.2376    8.4208 H         1 <0>         0.3952
     27 H9         -3.1815    0.4875    7.1769 H         1 <0>         0.3986
     28 H10         1.0181   -0.2145   -2.9156 H         1 <0>         0.0754
     29 H11        -0.5125   -1.0809   -3.1894 H         1 <0>         0.0674
     30 H12        -0.5340    0.6075   -2.6261 H         1 <0>         0.0763
@<TRIPOS>BOND
     1    1    2 1
     2    1   19 1
     3    1   20 1
     4    1   21 1
     5    2    6 2
     6    2    3 1
     7    3    4 2
     8    3   18 1
     9    4    5 1
    10    5    6 1
    11    6    7 1
    12    7    8 1
    13    8    9 2
    14    8   10 2
    15    8   11 1
    16   11   16 ar
    17   11   12 ar
    18   12   13 ar
    19   12   22 1
    20   13   14 ar
    21   13   23 1
    22   14   15 ar
    23   14   24 1
    24   15   16 ar
    25   15   17 1
    26   16   25 1
    27   17   26 1
    28   17   27 1
    29   18   28 1
    30   18   29 1
    31   18   30 1
@<TRIPOS>MOLECULE
ZINC13602360
   36    37     0     0     0
SMALL
USER_CHARGES

@<TRIPOS>ATOM
      1 C1         -0.0187    1.5258    0.0104 C.3       1 <0>        -0.1636
      2 C2          0.0021   -0.0041    0.0020 C.3       1 <0>         0.1168
      3 N1          0.6878   -0.4765   -1.2033 N.pl3     1 <0>        -0.7480
      4 C3          0.8319   -1.8467   -1.4331 C.ar      1 <0>         0.2471
      5 C4          0.3206   -2.7628   -0.5226 C.ar      1 <0>        -0.2197
      6 C5          0.4644   -4.1168   -0.7531 C.ar      1 <0>         0.0243
      7 C6          1.1169   -4.5610   -1.8885 C.ar      1 <0>        -0.6706
      8 C7          1.6272   -3.6518   -2.7969 C.ar      1 <0>         0.0241
      9 C8          1.4818   -2.2964   -2.5755 C.ar      1 <0>        -0.2181
     10 S1          1.2992   -6.2895   -2.1781 S.o2      1 <0>         2.6152
     11 O1          2.4235   -6.4416   -3.0338 O.2       1 <0>        -1.0216
     12 O2          1.2157   -6.9248   -0.9098 O.2       1 <0>        -1.0220
     13 N2         -0.0239   -6.7833   -3.0429 N.2       1 <0>        -1.0243
     14 C9         -0.1505   -8.1083   -3.4163 C.2       1 <0>         0.3966
     15 C10        -1.1763   -8.6455   -4.1283 C.2       1 <0>        -0.3728
     16 C11        -0.9207  -10.0132   -4.2926 C.2       1 <0>         0.1187
     17 N3          0.2110  -10.2907   -3.7050 N.2       1 <0>        -0.3873
     18 O3          0.7214   -9.0943   -3.1453 O.3       1 <0>        -0.1674
     19 C12        -1.8014  -10.9949   -5.0217 C.3       1 <0>        -0.0727
     20 C13        -2.3783   -7.9005   -4.6489 C.3       1 <0>        -0.0334
     21 H1          1.0039    1.9031    0.0027 H         1 <0>         0.0602
     22 H2         -0.5459    1.8868   -0.8726 H         1 <0>         0.0608
     23 H3         -0.5289    1.8773    0.9072 H         1 <0>         0.0722
     24 H4          0.5293   -0.3651    0.8851 H         1 <0>         0.0602
     25 H5         -1.0205   -0.3814    0.0098 H         1 <0>         0.0612
     26 H6          1.0417    0.1622   -1.8418 H         1 <0>         0.3988
     27 H7         -0.1886   -2.4165    0.3647 H         1 <0>         0.1237
     28 H8          0.0671   -4.8296   -0.0457 H         1 <0>         0.1355
     29 H9          2.1363   -4.0020   -3.6827 H         1 <0>         0.1360
     30 H10         1.8766   -1.5868   -3.2876 H         1 <0>         0.1232
     31 H11        -1.5115  -11.0328   -6.0718 H         1 <0>         0.0750
     32 H12        -1.6882  -11.9840   -4.5777 H         1 <0>         0.0671
     33 H13        -2.8414  -10.6782   -4.9431 H         1 <0>         0.0759
     34 H14        -2.1661   -7.5218   -5.6488 H         1 <0>         0.0351
     35 H15        -3.2339   -8.5746   -4.6898 H         1 <0>         0.0366
     36 H16        -2.6045   -7.0662   -3.9849 H         1 <0>         0.0570
@<TRIPOS>BOND
     1    1    2 1
     2    1   21 1
     3    1   22 1
     4    1   23 1
     5    2    3 1
     6    2   24 1
     7    2   25 1
     8    3    4 1
     9    3   26 1
    10    4    9 ar
    11    4    5 ar
    12    5    6 ar
    13    5   27 1
    14    6    7 ar
    15    6   28 1
    16    7    8 ar
    17    7   10 1
    18    8    9 ar
    19    8   29 1
    20    9   30 1
    21   10   11 2
    22   10   12 2
    23   10   13 1
    24   13   14 1
    25   14   18 1
    26   14   15 2
    27   15   16 1
    28   15   20 1
    29   16   17 2
    30   16   19 1
    31   17   18 1
    32   19   31 1
    33   19   32 1
    34   19   33 1
    35   20   34 1
    36   20   35 1
    37   20   36 1
@<TRIPOS>MOLECULE
ZINC00089763
   27    28     0     0     0
SMALL
USER_CHARGES

@<TRIPOS>ATOM
      1 C1         -0.0184    1.5028    0.0103 C.3       1 <0>        -0.0753
      2 C2          0.0021   -0.0041    0.0020 C.2       1 <0>         0.0345
      3 C3         -1.0761   -0.8071    0.0026 C.2       1 <0>        -0.2715
      4 C4         -0.6252   -2.1469   -0.0076 C.2       1 <0>         0.3859
      5 N1          0.6837   -2.1300   -0.0140 N.2       1 <0>        -0.4533
      6 O1          1.0999   -0.7764   -0.0131 O.3       1 <0>        -0.1203
      7 N2         -1.4296   -3.2817   -0.0100 N.2       1 <0>        -1.0529
      8 S1         -0.7384   -4.7865   -0.0224 S.o2      1 <0>         2.6208
      9 O2         -0.0749   -4.9184   -1.2721 O.2       1 <0>        -1.0265
     10 O3         -0.0617   -4.9329    1.2185 O.2       1 <0>        -1.0265
     11 C5         -2.0505   -5.9625   -0.0223 C.ar      1 <0>        -0.6699
     12 C6         -2.5617   -6.4257    1.1762 C.ar      1 <0>         0.0231
     13 C7         -3.5901   -7.3474    1.1799 C.ar      1 <0>        -0.2217
     14 C8         -4.1111   -7.8093   -0.0221 C.ar      1 <0>         0.2448
     15 C9         -3.5952   -7.3419   -1.2243 C.ar      1 <0>        -0.2217
     16 C10        -2.5706   -6.4160   -1.2207 C.ar      1 <0>         0.0230
     17 N3         -5.1509   -8.7418   -0.0221 N.pl3     1 <0>        -0.8771
     18 H1          1.0042    1.8801    0.0026 H         1 <0>         0.0724
     19 H2         -0.5455    1.8639   -0.8728 H         1 <0>         0.0813
     20 H3         -0.5286    1.8543    0.9071 H         1 <0>         0.0813
     21 H4         -2.1069   -0.4849    0.0099 H         1 <0>         0.1395
     22 H5         -2.1560   -6.0665    2.1104 H         1 <0>         0.1354
     23 H6         -3.9886   -7.7090    2.1163 H         1 <0>         0.1225
     24 H7         -3.9977   -7.6993   -2.1606 H         1 <0>         0.1225
     25 H8         -2.1721   -6.0489   -2.1550 H         1 <0>         0.1354
     26 H9         -5.5100   -9.0677    0.8180 H         1 <0>         0.3971
     27 H10        -5.5138   -9.0636   -0.8621 H         1 <0>         0.3971
@<TRIPOS>BOND
     1    1    2 1
     2    1   18 1
     3    1   19 1
     4    1   20 1
     5    2    6 1
     6    2    3 2
     7    3    4 1
     8    3   21 1
     9    4    5 2
    10    4    7 1
    11    5    6 1
    12    7    8 1
    13    8    9 2
    14    8   10 2
    15    8   11 1
    16   11   16 ar
    17   11   12 ar
    18   12   13 ar
    19   12   22 1
    20   13   14 ar
    21   13   23 1
    22   14   15 ar
    23   14   17 1
    24   15   16 ar
    25   15   24 1
    26   16   25 1
    27   17   26 1
    28   17   27 1
@<TRIPOS>MOLECULE
ZINC00056659
   30    31     0     0     0
SMALL
USER_CHARGES

@<TRIPOS>ATOM
      1 C1         -0.0184    1.5028    0.0103 C.3       1 <0>        -0.0381
      2 C2          0.0021   -0.0041    0.0020 C.2       1 <0>        -0.3715
      3 C3         -1.0799   -0.8076    0.0026 C.2       1 <0>         0.1110
      4 N1         -0.6628   -2.0984   -0.0063 N.2       1 <0>        -0.4349
      5 O1          0.7540   -2.1017   -0.0128 O.3       1 <0>        -0.1785
      6 C4          1.1593   -0.8157   -0.0139 C.2       1 <0>         0.4273
      7 N2          2.4050   -0.3932   -0.0247 N.2       1 <0>        -1.0129
      8 S1          3.6496   -1.4855   -0.0429 S.o2      1 <0>         2.6265
      9 O2          3.6043   -2.1734    1.1997 O.2       1 <0>        -1.0114
     10 O3          3.5786   -2.1613   -1.2908 O.2       1 <0>        -1.0114
     11 C5          5.1513   -0.5639   -0.0539 C.ar      1 <0>        -0.6761
     12 C6          5.7239   -0.1924   -1.2565 C.ar      1 <0>         0.0260
     13 C7          6.9009    0.5299   -1.2688 C.ar      1 <0>        -0.2206
     14 C8          7.5096    0.8833   -0.0712 C.ar      1 <0>         0.2503
     15 C9          6.9317    0.5085    1.1351 C.ar      1 <0>        -0.2207
     16 C10         5.7516   -0.2089    1.1402 C.ar      1 <0>         0.0260
     17 N3          8.7003    1.6134   -0.0800 N.pl3     1 <0>        -0.8751
     18 C11        -2.5151   -0.3483    0.0125 C.3       1 <0>        -0.0707
     19 H1          1.0042    1.8801    0.0026 H         1 <0>         0.0607
     20 H2         -0.5455    1.8639   -0.8728 H         1 <0>         0.0338
     21 H3         -0.5286    1.8543    0.9071 H         1 <0>         0.0339
     22 H4          5.2503   -0.4678   -2.1873 H         1 <0>         0.1369
     23 H5          7.3478    0.8195   -2.2084 H         1 <0>         0.1247
     24 H6          7.4026    0.7813    2.0680 H         1 <0>         0.1247
     25 H7          5.2995   -0.4969    2.0778 H         1 <0>         0.1370
     26 H8          9.1031    1.8743   -0.9229 H         1 <0>         0.3983
     27 H9          9.1244    1.8596    0.7569 H         1 <0>         0.3983
     28 H10        -2.8663   -0.2314   -1.0127 H         1 <0>         0.0711
     29 H11        -3.1299   -1.0882    0.5250 H         1 <0>         0.0641
     30 H12        -2.5873    0.6070    0.5324 H         1 <0>         0.0715
@<TRIPOS>BOND
     1    1    2 1
     2    1   19 1
     3    1   20 1
     4    1   21 1
     5    2    6 1
     6    2    3 2
     7    3    4 1
     8    3   18 1
     9    4    5 1
    10    5    6 1
    11    6    7 2
    12    7    8 1
    13    8    9 2
    14    8   10 2
    15    8   11 1
    16   11   16 ar
    17   11   12 ar
    18   12   13 ar
    19   12   22 1
    20   13   14 ar
    21   13   23 1
    22   14   15 ar
    23   14   17 1
    24   15   16 ar
    25   15   24 1
    26   16   25 1
    27   17   26 1
    28   17   27 1
    29   18   28 1
    30   18   29 1
    31   18   30 1
@<TRIPOS>MOLECULE
ZINC00056659
   31    32     0     0     0
SMALL
USER_CHARGES

@<TRIPOS>ATOM
      1 C1         -0.0184    1.5028    0.0103 C.3       1 <0>        -0.0680
      2 C2          0.0021   -0.0041    0.0020 C.2       1 <0>        -0.2645
      3 C3         -1.0799   -0.8076    0.0026 C.2       1 <0>         0.2052
      4 N1         -0.6628   -2.0984   -0.0063 N.pl3     1 <0>        -0.5330
      5 O1          0.7540   -2.1017   -0.0128 O.3       1 <0>        -0.1035
      6 C4          1.1593   -0.8157   -0.0139 C.2       1 <0>         0.4764
      7 N2          2.4050   -0.3932   -0.0247 N.2       1 <0>        -0.9368
      8 S1          3.6496   -1.4855   -0.0429 S.o2      1 <0>         2.6285
      9 O2          3.6043   -2.1734    1.1997 O.2       1 <0>        -0.9826
     10 O3          3.5786   -2.1613   -1.2908 O.2       1 <0>        -0.9826
     11 C5          5.1513   -0.5639   -0.0539 C.ar      1 <0>        -0.6932
     12 C6          5.7239   -0.1924   -1.2565 C.ar      1 <0>         0.0303
     13 C7          6.9009    0.5299   -1.2688 C.ar      1 <0>        -0.2178
     14 C8          7.5096    0.8833   -0.0712 C.ar      1 <0>         0.2672
     15 C9          6.9317    0.5085    1.1351 C.ar      1 <0>        -0.2179
     16 C10         5.7516   -0.2089    1.1402 C.ar      1 <0>         0.0303
     17 N3          8.7003    1.6134   -0.0800 N.pl3     1 <0>        -0.8668
     18 C11        -2.5151   -0.3483    0.0125 C.3       1 <0>        -0.1055
     19 H1          1.0042    1.8801    0.0026 H         1 <0>         0.0837
     20 H2         -0.5455    1.8639   -0.8728 H         1 <0>         0.0674
     21 H3         -0.5286    1.8543    0.9071 H         1 <0>         0.0675
     22 H4          5.2503   -0.4678   -2.1873 H         1 <0>         0.1389
     23 H5          7.3478    0.8195   -2.2084 H         1 <0>         0.1312
     24 H6          7.4026    0.7813    2.0680 H         1 <0>         0.1312
     25 H7          5.2995   -0.4969    2.0778 H         1 <0>         0.1390
     26 H8          9.1031    1.8743   -0.9229 H         1 <0>         0.4030
     27 H9          9.1244    1.8596    0.7569 H         1 <0>         0.4030
     28 H10        -2.8663   -0.2314   -1.0127 H         1 <0>         0.1047
     29 H11        -3.1299   -1.0882    0.5250 H         1 <0>         0.0885
     30 H12        -2.5873    0.6070    0.5324 H         1 <0>         0.1077
     31 H13        -1.2345   -2.8820   -0.0076 H         1 <0>         0.4685
@<TRIPOS>BOND
     1    1    2 1
     2    1   19 1
     3    1   20 1
     4    1   21 1
     5    2    6 1
     6    2    3 2
     7    3    4 1
     8    3   18 1
     9    4    5 1
    10    4   31 1
    11    5    6 1
    12    6    7 2
    13    7    8 1
    14    8    9 2
    15    8   10 2
    16    8   11 1
    17   11   16 ar
    18   11   12 ar
    19   12   13 ar
    20   12   22 1
    21   13   14 ar
    22   13   23 1
    23   14   15 ar
    24   14   17 1
    25   15   16 ar
    26   15   24 1
    27   16   25 1
    28   17   26 1
    29   17   27 1
    30   18   28 1
    31   18   29 1
    32   18   30 1
@<TRIPOS>MOLECULE
ZINC00007778
   40    41     0     0     0
SMALL
USER_CHARGES

@<TRIPOS>ATOM
      1 C1         -0.0184    1.5028    0.0103 C.3       1 <0>        -0.1048
      2 C2          0.0021   -0.0041    0.0020 C.ar      1 <0>        -0.0473
      3 C3          0.0057   -0.6833   -1.2025 C.ar      1 <0>        -0.2021
      4 C4          0.0249   -2.0681   -1.2230 C.ar      1 <0>         0.1746
      5 C5          0.0407   -2.7826   -0.0138 C.ar      1 <0>        -0.1854
      6 C6          0.0368   -2.0816    1.2035 C.ar      1 <0>         0.1917
      7 C7          0.0228   -0.6960    1.1984 C.ar      1 <0>        -0.2345
      8 O1          0.0519   -2.7580    2.3785 O.3       1 <0>        -0.1813
      9 C8          0.0475   -2.0370    3.5291 C.ar      1 <0>         0.1178
     10 C9          1.2564   -1.6421    4.1157 C.ar      1 <0>        -0.0844
     11 C10         1.2417   -0.9001    5.3005 C.ar      1 <0>        -0.1171
     12 C11         0.0366   -0.5599    5.8867 C.ar      1 <0>         0.1262
     13 C12        -1.1610   -0.9528    5.3028 C.ar      1 <0>        -0.1973
     14 C13        -1.1582   -1.6830    4.1266 C.ar      1 <0>         0.1275
     15 O2         -2.3346   -2.0589    3.5575 O.3       1 <0>        -0.2878
     16 C14        -3.5342   -1.6613    4.2245 C.3       1 <0>         0.0233
     17 O3          0.0238    0.1615    7.0392 O.3       1 <0>        -0.4911
     18 C15         2.5388   -2.0077    3.4870 C.2       1 <0>         0.4923
     19 O4          2.5484   -2.6531    2.4575 O.2       1 <0>        -0.4444
     20 O5          3.7001   -1.6262    4.0540 O.3       1 <0>        -0.3551
     21 C16         4.9045   -2.0153    3.3906 C.3       1 <0>         0.0359
     22 C17         0.0606   -4.2504   -0.0221 C.2       1 <0>         0.5246
     23 O6          0.0635   -4.8564   -1.0855 O.co2     1 <0>        -0.6840
     24 O7          0.0743   -4.8682    1.0343 O.co2     1 <0>        -0.6686
     25 O8          0.0279   -2.7314   -2.4058 O.3       1 <0>        -0.4704
     26 H1          1.0042    1.8801    0.0026 H         1 <0>         0.0658
     27 H2         -0.5455    1.8639   -0.8728 H         1 <0>         0.0643
     28 H3         -0.5286    1.8543    0.9071 H         1 <0>         0.0601
     29 H4         -0.0069   -0.1318   -2.1310 H         1 <0>         0.1207
     30 H5          0.0243   -0.1546    2.1330 H         1 <0>         0.1126
     31 H6          2.1708   -0.5931    5.7576 H         1 <0>         0.1511
     32 H7         -2.0987   -0.6840    5.7664 H         1 <0>         0.1465
     33 H8         -3.5476   -2.0821    5.2299 H         1 <0>         0.0580
     34 H9         -3.5727   -0.5736    4.2854 H         1 <0>         0.0558
     35 H10        -4.3975   -2.0247    3.6670 H         1 <0>         0.1053
     36 H11         0.0033    1.1187    6.9039 H         1 <0>         0.3919
     37 H12         4.9513   -3.1026    3.3305 H         1 <0>         0.0627
     38 H13         4.9176   -1.5949    2.3850 H         1 <0>         0.0605
     39 H14         5.7635   -1.6451    3.9503 H         1 <0>         0.1005
     40 H15         0.9121   -2.9115   -2.7535 H         1 <0>         0.3859
@<TRIPOS>BOND
     1    1    2 1
     2    1   26 1
     3    1   27 1
     4    1   28 1
     5    2    7 ar
     6    2    3 ar
     7    3    4 ar
     8    3   29 1
     9    4    5 ar
    10    4   25 1
    11    5    6 ar
    12    5   22 1
    13    6    7 ar
    14    6    8 1
    15    7   30 1
    16    8    9 1
    17    9   14 ar
    18    9   10 ar
    19   10   11 ar
    20   10   18 1
    21   11   12 ar
    22   11   31 1
    23   12   13 ar
    24   12   17 1
    25   13   14 ar
    26   13   32 1
    27   14   15 1
    28   15   16 1
    29   16   33 1
    30   16   34 1
    31   16   35 1
    32   17   36 1
    33   18   19 2
    34   18   20 1
    35   20   21 1
    36   21   37 1
    37   21   38 1
    38   21   39 1
    39   22   23 2
    40   22   24 1
    41   25   40 1
@<TRIPOS>MOLECULE
ZINC26143524
   69    73     0     0     0
SMALL
USER_CHARGES

@<TRIPOS>ATOM
      1 C1         -0.0187    1.5258    0.0104 C.3       1 <0>        -0.1541
      2 C2          0.0021   -0.0041    0.0020 C.3       1 <0>        -0.0571
      3 C3          0.7182   -0.4975   -1.2568 C.3       1 <0>        -0.1532
      4 C4          0.7309   -0.5033    1.2229 C.ar      1 <0>        -0.0680
      5 C5          2.0543   -0.1521    1.4431 C.ar      1 <0>        -0.0095
      6 C6          2.6846   -0.6347    2.5796 C.ar      1 <0>        -0.0345
      7 C7          1.9781   -1.4441    3.4493 C.ar      1 <0>        -0.3754
      8 N1          0.7205   -1.7579    3.2076 N.ar      1 <0>        -0.3727
      9 C8          0.0874   -1.3121    2.1400 C.ar      1 <0>         0.1245
     10 S1          2.7675   -2.0641    4.8975 S.o2      1 <0>         2.5737
     11 O1          3.8341   -1.1726    5.1919 O.2       1 <0>        -0.9425
     12 O2          1.7355   -2.3520    5.8309 O.2       1 <0>        -0.9625
     13 N2          3.4597   -3.5138    4.4952 N.2       1 <0>        -1.0273
     14 C9          4.1583   -4.2387    5.4516 C.ar      1 <0>         0.4933
     15 C10         4.7514   -5.4607    5.1216 C.ar      1 <0>        -0.0937
     16 C11         5.4420   -6.1514    6.1160 C.ar      1 <0>         0.3775
     17 N3          5.5128   -5.6292    7.3349 N.ar      1 <0>        -0.6024
     18 C12         4.9379   -4.4677    7.6117 C.ar      1 <0>         0.4455
     19 N4          4.2773   -3.7783    6.6922 N.ar      1 <0>        -0.6072
     20 C13         5.0415   -3.9211    8.9871 C.ar      1 <0>        -0.0074
     21 C14         5.7390   -4.6120    9.9830 C.ar      1 <0>        -0.1433
     22 C15         5.8141   -4.0720   11.2525 C.ar      1 <0>         0.0887
     23 N5          5.2400   -2.9210   11.5357 N.ar      1 <0>        -0.4546
     24 C16         4.5675   -2.2294   10.6239 C.ar      1 <0>         0.2476
     25 C17         4.4502   -2.7012    9.3193 C.ar      1 <0>        -0.0961
     26 C18         3.9406   -0.9402   10.9966 C.2       1 <0>         0.0832
     27 N6          3.2327   -0.1378   10.2007 N.2       1 <0>        -0.3559
     28 N7          2.8649    0.8786   10.9034 N.2       1 <0>        -0.1925
     29 N8          3.3108    0.7485   12.1037 N.2       1 <0>        -0.1967
     30 N9          3.9683   -0.3567   12.1954 N.2       1 <0>        -0.3397
     31 O3          6.0333   -7.3411    5.8425 O.3       1 <0>        -0.2838
     32 C19         6.7216   -7.9856    6.9163 C.3       1 <0>         0.0667
     33 C20         7.3190   -9.3041    6.4208 C.3       1 <0>         0.0777
     34 O4          8.3205   -9.0337    5.4380 O.3       1 <0>        -0.5641
     35 O5          4.6566   -5.9636    3.8611 O.3       1 <0>        -0.2003
     36 C21         5.6222   -5.6270    2.9653 C.ar      1 <0>         0.1272
     37 C22         6.6665   -4.7995    3.3477 C.ar      1 <0>        -0.1515
     38 C23         7.6474   -4.4583    2.4355 C.ar      1 <0>        -0.1143
     39 C24         7.5898   -4.9403    1.1409 C.ar      1 <0>        -0.1317
     40 C25         6.5511   -5.7661    0.7528 C.ar      1 <0>        -0.1782
     41 C26         5.5678   -6.1172    1.6637 C.ar      1 <0>         0.0896
     42 O6          4.5487   -6.9342    1.2853 O.3       1 <0>        -0.3053
     43 C27         4.5575   -7.3991   -0.0660 C.3       1 <0>         0.0295
     44 H1          1.0039    1.9031    0.0027 H         1 <0>         0.0649
     45 H2         -0.5459    1.8868   -0.8726 H         1 <0>         0.0760
     46 H3         -0.5289    1.8773    0.9072 H         1 <0>         0.0643
     47 H4         -1.0205   -0.3814    0.0098 H         1 <0>         0.0995
     48 H5          1.7408   -0.1202   -1.2645 H         1 <0>         0.0647
     49 H6          0.7330   -1.5874   -1.2628 H         1 <0>         0.0643
     50 H7          0.1910   -0.1364   -2.1398 H         1 <0>         0.0756
     51 H8          2.5814    0.4819    0.7456 H         1 <0>         0.1793
     52 H9          3.7147   -0.3818    2.7827 H         1 <0>         0.1976
     53 H10        -0.9447   -1.5862    1.9782 H         1 <0>         0.2117
     54 H11         6.2132   -5.5570    9.7625 H         1 <0>         0.1412
     55 H12         6.3517   -4.6021   12.0247 H         1 <0>         0.1563
     56 H13         3.9065   -2.1349    8.5776 H         1 <0>         0.1530
     57 H14         7.5204   -7.3375    7.2767 H         1 <0>         0.0762
     58 H15         6.0221   -8.1859    7.7279 H         1 <0>         0.0838
     59 H16         7.7671   -9.8377    7.2590 H         1 <0>         0.0676
     60 H17         6.5325   -9.9161    5.9792 H         1 <0>         0.0551
     61 H18         8.7431   -9.8259    5.0788 H         1 <0>         0.3768
     62 H19         6.7135   -4.4210    4.3581 H         1 <0>         0.1247
     63 H20         8.4605   -3.8135    2.7346 H         1 <0>         0.1212
     64 H21         8.3578   -4.6708    0.4310 H         1 <0>         0.1198
     65 H22         6.5084   -6.1408   -0.2591 H         1 <0>         0.1272
     66 H23         4.5164   -6.5465   -0.7438 H         1 <0>         0.0482
     67 H24         5.4706   -7.9655   -0.2494 H         1 <0>         0.0509
     68 H25         3.6922   -8.0400   -0.2354 H         1 <0>         0.0943
     69 H26         0.2473   -2.3282    3.8335 H         1 <0>         0.4565
@<TRIPOS>BOND
     1    1    2 1
     2    1   44 1
     3    1   45 1
     4    1   46 1
     5    2    3 1
     6    2    4 1
     7    2   47 1
     8    3   48 1
     9    3   49 1
    10    3   50 1
    11    4    9 ar
    12    4    5 ar
    13    5    6 ar
    14    5   51 1
    15    6    7 ar
    16    6   52 1
    17    7    8 ar
    18    7   10 1
    19    8    9 ar
    20    8   69 1
    21    9   53 1
    22   10   11 2
    23   10   12 2
    24   10   13 1
    25   13   14 1
    26   14   19 ar
    27   14   15 ar
    28   15   16 ar
    29   15   35 1
    30   16   17 ar
    31   16   31 1
    32   17   18 ar
    33   18   19 ar
    34   18   20 1
    35   20   25 ar
    36   20   21 ar
    37   21   22 ar
    38   21   54 1
    39   22   23 ar
    40   22   55 1
    41   23   24 ar
    42   24   25 ar
    43   24   26 1
    44   25   56 1
    45   26   30 2
    46   26   27 1
    47   27   28 1
    48   28   29 2
    49   29   30 1
    50   31   32 1
    51   32   33 1
    52   32   57 1
    53   32   58 1
    54   33   34 1
    55   33   59 1
    56   33   60 1
    57   34   61 1
    58   35   36 1
    59   36   41 ar
    60   36   37 ar
    61   37   38 ar
    62   37   62 1
    63   38   39 ar
    64   38   63 1
    65   39   40 ar
    66   39   64 1
    67   40   41 ar
    68   40   65 1
    69   41   42 1
    70   42   43 1
    71   43   66 1
    72   43   67 1
    73   43   68 1
@<TRIPOS>MOLECULE
ZINC13782405
   28    29     0     0     0
SMALL
USER_CHARGES

@<TRIPOS>ATOM
      1 C1         -0.0184    1.5028    0.0103 C.3       1 <0>        -0.0343
      2 C2          0.0021   -0.0041    0.0020 C.2       1 <0>        -0.3686
      3 C3          0.0081   -0.8210   -1.1362 C.2       1 <0>         0.1198
      4 N1          0.0275   -2.0660   -0.7453 N.2       1 <0>        -0.3845
      5 O1          0.0346   -2.0827    0.6707 O.3       1 <0>        -0.1671
      6 C4          0.0239   -0.8085    1.0974 C.2       1 <0>         0.3966
      7 N2          0.0305   -0.3906    2.4152 N.2       1 <0>        -1.0190
      8 S1          0.0580   -1.5072    3.6379 S.o2      1 <0>         2.6099
      9 O2         -1.1783   -2.2053    3.5781 O.2       1 <0>        -1.0125
     10 O3          1.3121   -2.1701    3.5544 O.2       1 <0>        -1.0061
     11 C5          0.0598   -0.6156    5.1577 C.ar      1 <0>        -0.6619
     12 C6         -1.0129   -0.7218    6.0229 C.ar      1 <0>        -0.0021
     13 C7         -1.0117   -0.0225    7.2152 C.ar      1 <0>        -0.1586
     14 C8          0.0623    0.7839    7.5438 C.ar      1 <0>        -0.0525
     15 C9          1.1360    0.8913    6.6807 C.ar      1 <0>        -0.1817
     16 C10         1.1382    0.1871    5.4883 C.ar      1 <0>         0.2017
     17 F1          2.1895    0.2876    4.6458 F         1 <0>        -0.1150
     18 C11        -0.0061   -0.3442   -2.5657 C.3       1 <0>        -0.0730
     19 H1          1.0042    1.8801    0.0026 H         1 <0>         0.0363
     20 H2         -0.5455    1.8639   -0.8728 H         1 <0>         0.0379
     21 H3         -0.5286    1.8543    0.9071 H         1 <0>         0.0569
     22 H4         -1.8524   -1.3511    5.7670 H         1 <0>         0.1485
     23 H5         -1.8504   -0.1059    7.8904 H         1 <0>         0.1343
     24 H6          0.0619    1.3303    8.4754 H         1 <0>         0.1351
     25 H7          1.9746    1.5215    6.9375 H         1 <0>         0.1400
     26 H8          1.0181   -0.2145   -2.9156 H         1 <0>         0.0757
     27 H9         -0.5125   -1.0809   -3.1894 H         1 <0>         0.0677
     28 H10        -0.5340    0.6075   -2.6261 H         1 <0>         0.0766
@<TRIPOS>BOND
     1    1    2 1
     2    1   19 1
     3    1   20 1
     4    1   21 1
     5    2    6 2
     6    2    3 1
     7    3    4 2
     8    3   18 1
     9    4    5 1
    10    5    6 1
    11    6    7 1
    12    7    8 1
    13    8    9 2
    14    8   10 2
    15    8   11 1
    16   11   16 ar
    17   11   12 ar
    18   12   13 ar
    19   12   22 1
    20   13   14 ar
    21   13   23 1
    22   14   15 ar
    23   14   24 1
    24   15   16 ar
    25   15   25 1
    26   16   17 1
    27   18   26 1
    28   18   27 1
    29   18   28 1
@<TRIPOS>MOLECULE
ZINC00017024
   28    29     0     0     0
SMALL
USER_CHARGES

@<TRIPOS>ATOM
      1 C1         -0.0184    1.5028    0.0103 C.3       1 <0>        -0.0332
      2 C2          0.0021   -0.0041    0.0020 C.2       1 <0>        -0.3692
      3 C3          0.0081   -0.8210   -1.1362 C.2       1 <0>         0.1189
      4 N1          0.0275   -2.0660   -0.7453 N.2       1 <0>        -0.3866
      5 O1          0.0346   -2.0827    0.6707 O.3       1 <0>        -0.1674
      6 C4          0.0239   -0.8085    1.0974 C.2       1 <0>         0.3992
      7 N2          0.0305   -0.3906    2.4152 N.2       1 <0>        -1.0093
      8 S1          0.0580   -1.5072    3.6379 S.o2      1 <0>         2.5999
      9 O2         -1.1783   -2.2053    3.5781 O.2       1 <0>        -1.0162
     10 O3          1.3121   -2.1701    3.5544 O.2       1 <0>        -0.9946
     11 C5          0.0598   -0.6156    5.1577 C.ar      1 <0>        -0.6006
     12 C6         -1.0131   -0.7219    6.0229 C.ar      1 <0>        -0.0255
     13 C7         -1.0115   -0.0230    7.2153 C.ar      1 <0>        -0.1329
     14 C8          0.0630    0.7828    7.5434 C.ar      1 <0>        -0.0770
     15 C9          1.1361    0.8898    6.6791 C.ar      1 <0>        -0.1195
     16 C10         1.1373    0.1862    5.4878 C.ar      1 <0>         0.0037
     17 Br1         2.6084    0.3265    4.3080 Br        1 <0>        -0.0128
     18 C11        -0.0061   -0.3442   -2.5657 C.3       1 <0>        -0.0729
     19 H1          1.0042    1.8801    0.0026 H         1 <0>         0.0353
     20 H2         -0.5455    1.8639   -0.8728 H         1 <0>         0.0362
     21 H3         -0.5286    1.8543    0.9071 H         1 <0>         0.0571
     22 H4         -1.8528   -1.3510    5.7669 H         1 <0>         0.1466
     23 H5         -1.8501   -0.1060    7.8908 H         1 <0>         0.1334
     24 H6          0.0637    1.3291    8.4750 H         1 <0>         0.1333
     25 H7          1.9754    1.5192    6.9354 H         1 <0>         0.1363
     26 H8          1.0181   -0.2145   -2.9156 H         1 <0>         0.0749
     27 H9         -0.5125   -1.0809   -3.1894 H         1 <0>         0.0671
     28 H10        -0.5340    0.6075   -2.6261 H         1 <0>         0.0761
@<TRIPOS>BOND
     1    1    2 1
     2    1   19 1
     3    1   20 1
     4    1   21 1
     5    2    6 2
     6    2    3 1
     7    3    4 2
     8    3   18 1
     9    4    5 1
    10    5    6 1
    11    6    7 1
    12    7    8 1
    13    8    9 2
    14    8   10 2
    15    8   11 1
    16   11   16 ar
    17   11   12 ar
    18   12   13 ar
    19   12   22 1
    20   13   14 ar
    21   13   23 1
    22   14   15 ar
    23   14   24 1
    24   15   16 ar
    25   15   25 1
    26   16   17 1
    27   18   26 1
    28   18   27 1
    29   18   28 1
@<TRIPOS>MOLECULE
ZINC34026476
   75    78     0     0     0
SMALL
USER_CHARGES
(2R,3S,4S)-4-(1,3-benzodioxol-5-yl)-1-[2-(dibutylamino)-2-oxo-ethyl]-2-(4-methoxyphenyl)pyrrolidine-3-carboxylic acid
@<TRIPOS>ATOM
      1 C1          2.0123   10.2502   -1.7050 C.3       1 <0>        -0.1552
      2 C2          1.2019    9.1925   -2.4569 C.3       1 <0>        -0.1227
      3 C3          2.0066    7.8935   -2.5347 C.3       1 <0>        -0.1358
      4 C4          1.1961    6.8358   -3.2867 C.3       1 <0>         0.1097
      5 N1          1.9666    5.5920   -3.3611 N.am      1 <0>        -0.5897
      6 C5          2.8660    5.3542   -4.4928 C.3       1 <0>         0.0915
      7 C6          2.1005    4.6467   -5.6128 C.3       1 <0>        -0.1408
      8 C7          3.0399    4.3983   -6.7946 C.3       1 <0>        -0.1247
      9 C8          2.2744    3.6908   -7.9146 C.3       1 <0>        -0.1566
     10 C9          1.8479    4.6665   -2.3886 C.2       1 <0>         0.5034
     11 O1          1.1033    4.8635   -1.4517 O.2       1 <0>        -0.5181
     12 C10         2.6404    3.3871   -2.4652 C.3       1 <0>        -0.0455
     13 N2          2.3366    2.5521   -1.2954 N.4       1 <0>        -0.3922
     14 C11         0.8742    2.3223   -1.1706 C.3       1 <0>         0.0063
     15 C12         0.7525    1.0568   -0.2949 C.3       1 <0>        -0.0345
     16 H1         -0.1181    0.4390   -0.5603 H         1 <0>         0.1220
     17 C13         2.0906    0.3117   -0.4792 C.3       1 <0>        -0.1539
     18 H2          1.9567   -0.7169   -0.8453 H         1 <0>         0.1246
     19 C14         2.9082    1.1897   -1.4508 C.3       1 <0>         0.1096
     20 H3          2.8614    0.8582   -2.4986 H         1 <0>         0.1418
     21 C15         4.3650    1.1838   -1.0654 C.ar      1 <0>        -0.1106
     22 C16         5.0225    2.3779   -0.8338 C.ar      1 <0>        -0.0879
     23 C17         6.3565    2.3749   -0.4748 C.ar      1 <0>        -0.1890
     24 C18         7.0395    1.1730   -0.3583 C.ar      1 <0>         0.1366
     25 C19         6.3790   -0.0235   -0.5967 C.ar      1 <0>        -0.1270
     26 C20         5.0434   -0.0154   -0.9494 C.ar      1 <0>        -0.0427
     27 O2          8.3536    1.1677   -0.0115 O.3       1 <0>        -0.3148
     28 C21         8.9688    2.4367    0.2188 C.3       1 <0>         0.0236
     29 C22         2.8061    0.1862    0.8411 C.2       1 <0>         0.4751
     30 O3          3.4934    1.0944    1.2445 O.co2     1 <0>        -0.6132
     31 O4          2.6798   -0.9344    1.5691 O.co2     1 <0>        -0.7277
     32 C23         0.5588    1.4348    1.1510 C.ar      1 <0>        -0.0987
     33 C24         1.4455    2.3019    1.7620 C.ar      1 <0>        -0.0498
     34 C25         1.2718    2.6520    3.0879 C.ar      1 <0>        -0.0993
     35 C26         0.2077    2.1339    3.8082 C.ar      1 <0>         0.0427
     36 C27        -0.6855    1.2604    3.1927 C.ar      1 <0>         0.0238
     37 C28        -0.5084    0.9184    1.8618 C.ar      1 <0>        -0.0740
     38 O5         -1.6350    0.8945    4.1026 O.3       1 <0>        -0.3109
     39 C29        -1.5498    1.8684    5.1597 C.3       1 <0>         0.2094
     40 O6         -0.1822    2.3152    5.1037 O.3       1 <0>        -0.3054
     41 H4          1.4337   11.1841   -1.6491 H         1 <0>         0.0580
     42 H5          2.9569   10.4353   -2.2375 H         1 <0>         0.0543
     43 H6          2.2289    9.8916   -0.6879 H         1 <0>         0.0554
     44 H7          0.2573    9.0074   -1.9244 H         1 <0>         0.0660
     45 H8          0.9853    9.5511   -3.4740 H         1 <0>         0.0641
     46 H9          2.9512    8.0787   -3.0671 H         1 <0>         0.0655
     47 H10         2.2232    7.5349   -1.5176 H         1 <0>         0.0688
     48 H11         0.2515    6.6507   -2.7543 H         1 <0>         0.0927
     49 H12         0.9795    7.1944   -4.3038 H         1 <0>         0.0869
     50 H13         3.2517    6.3156   -4.8629 H         1 <0>         0.0962
     51 H14         3.7060    4.7230   -4.1673 H         1 <0>         0.0835
     52 H15         1.7147    3.6854   -5.2427 H         1 <0>         0.0636
     53 H16         1.2606    5.2780   -5.9384 H         1 <0>         0.0745
     54 H17         3.4257    5.3597   -7.1647 H         1 <0>         0.0679
     55 H18         3.8798    3.7670   -6.4690 H         1 <0>         0.0663
     56 H19         2.9498    3.5122   -8.7643 H         1 <0>         0.0595
     57 H20         1.4345    4.3221   -8.2402 H         1 <0>         0.0560
     58 H21         1.8886    2.7295   -7.5445 H         1 <0>         0.0550
     59 H22         2.3718    2.8438   -3.3832 H         1 <0>         0.1541
     60 H23         3.7150    3.6217   -2.4791 H         1 <0>         0.1571
     61 H24         0.4050    3.1961   -0.6948 H         1 <0>         0.1566
     62 H25         0.4400    2.1719   -2.1700 H         1 <0>         0.1246
     63 H26         4.4916    3.3135   -0.9297 H         1 <0>         0.1009
     64 H27         6.8684    3.3076   -0.2894 H         1 <0>         0.1287
     65 H28         6.9087   -0.9604   -0.5069 H         1 <0>         0.1347
     66 H29         4.5288   -0.9466   -1.1351 H         1 <0>         0.1324
     67 H30        10.0246    2.2886    0.4897 H         1 <0>         0.1029
     68 H31         8.4486    2.9528    1.0392 H         1 <0>         0.0580
     69 H32         8.9067    3.0455   -0.6952 H         1 <0>         0.0547
     70 H33         2.2760    2.7062    1.2023 H         1 <0>         0.1308
     71 H34         1.9660    3.3296    3.5627 H         1 <0>         0.1319
     72 H35        -1.2021    0.2448    1.3807 H         1 <0>         0.1324
     73 H36        -2.2626    2.6834    4.9657 H         1 <0>         0.0827
     74 H37        -1.7927    1.3897    6.1198 H         1 <0>         0.1314
     75 H38         2.7570    3.0944   -0.4357 H         1 <0>         0.4524
@<TRIPOS>BOND
     1    1    2 1
     2    1   41 1
     3    1   42 1
     4    1   43 1
     5    2    3 1
     6    2   44 1
     7    2   45 1
     8    3    4 1
     9    3   46 1
    10    3   47 1
    11    4    5 1
    12    4   48 1
    13    4   49 1
    14    5    6 1
    15    5   10 am
    16    6    7 1
    17    6   50 1
    18    6   51 1
    19    7    8 1
    20    7   52 1
    21    7   53 1
    22    8    9 1
    23    8   54 1
    24    8   55 1
    25    9   56 1
    26    9   57 1
    27    9   58 1
    28   10   11 2
    29   10   12 1
    30   12   13 1
    31   12   59 1
    32   12   60 1
    33   13   19 1
    34   13   14 1
    35   13   75 1
    36   14   15 1
    37   14   61 1
    38   14   62 1
    39   15   16 1
    40   15   17 1
    41   15   32 1
    42   17   18 1
    43   17   19 1
    44   17   29 1
    45   19   20 1
    46   19   21 1
    47   21   26 ar
    48   21   22 ar
    49   22   23 ar
    50   22   63 1
    51   23   24 ar
    52   23   64 1
    53   24   25 ar
    54   24   27 1
    55   25   26 ar
    56   25   65 1
    57   26   66 1
    58   27   28 1
    59   28   67 1
    60   28   68 1
    61   28   69 1
    62   29   30 2
    63   29   31 1
    64   32   37 ar
    65   32   33 ar
    66   33   34 ar
    67   33   70 1
    68   34   35 ar
    69   34   71 1
    70   35   40 1
    71   35   36 ar
    72   36   37 ar
    73   36   38 1
    74   37   72 1
    75   38   39 1
    76   39   40 1
    77   39   73 1
    78   39   74 1
@<TRIPOS>MOLECULE
ZINC34026477
   75    78     0     0     0
SMALL
USER_CHARGES
(2R,3S,4R)-4-(1,3-benzodioxol-5-yl)-1-[2-(dibutylamino)-2-oxo-ethyl]-2-(4-methoxyphenyl)pyrrolidine-3-carboxylic acid
@<TRIPOS>ATOM
      1 C1          8.8444   -1.3691    6.8363 C.3       1 <0>        -0.1551
      2 C2          7.7797   -0.2728    6.7623 C.3       1 <0>        -0.1228
      3 C3          7.7285    0.2932    5.3417 C.3       1 <0>        -0.1355
      4 C4          6.6638    1.3895    5.2676 C.3       1 <0>         0.1095
      5 N1          6.6147    1.9314    3.9074 N.am      1 <0>        -0.5896
      6 C5          7.4614    3.0696    3.5414 C.3       1 <0>         0.0915
      7 C6          6.7085    4.3735    3.8134 C.3       1 <0>        -0.1411
      8 C7          7.5928    5.5622    3.4311 C.3       1 <0>        -0.1246
      9 C8          6.8399    6.8661    3.7031 C.3       1 <0>        -0.1568
     10 C9          5.7907    1.3829    2.9928 C.2       1 <0>         0.5045
     11 O1          5.0898    0.4406    3.2958 O.2       1 <0>        -0.5238
     12 C10         5.7402    1.9403    1.5936 C.3       1 <0>        -0.0360
     13 N2          4.7727    1.1748    0.7961 N.4       1 <0>        -0.3968
     14 C11         3.3825    1.4416    1.2460 C.3       1 <0>         0.0119
     15 C12         2.5272    1.0141    0.0269 C.3       1 <0>        -0.0459
     16 H1          2.2689   -0.0550    0.0115 H         1 <0>         0.1328
     17 C13         3.3861    1.4702   -1.1749 C.3       1 <0>        -0.1442
     18 H2          3.0326    2.4125   -1.6188 H         1 <0>         0.1194
     19 C14         4.8208    1.5784   -0.6259 C.3       1 <0>         0.1137
     20 H3          5.2256    2.5983   -0.7027 H         1 <0>         0.1367
     21 C15         5.7341    0.6555   -1.3909 C.ar      1 <0>        -0.1627
     22 C16         5.8045   -0.6830   -1.0516 C.ar      1 <0>        -0.0519
     23 C17         6.6367   -1.5322   -1.7550 C.ar      1 <0>        -0.1954
     24 C18         7.4111   -1.0385   -2.7949 C.ar      1 <0>         0.1497
     25 C19         7.3429    0.3061   -3.1296 C.ar      1 <0>        -0.1436
     26 C20         6.5045    1.1499   -2.4271 C.ar      1 <0>        -0.0246
     27 O2          8.2354   -1.8706   -3.4841 O.3       1 <0>        -0.3136
     28 C21         8.2543   -3.2425   -3.0845 C.3       1 <0>         0.0216
     29 C22         3.3246    0.4473   -2.2799 C.2       1 <0>         0.4754
     30 O3          3.0784   -0.7070   -2.0215 O.co2     1 <0>        -0.6201
     31 O4          3.5434    0.8186   -3.5511 O.co2     1 <0>        -0.7341
     32 C23         1.1981    1.7244    0.0325 C.ar      1 <0>        -0.0694
     33 C24         1.1544    3.1061    0.0123 C.ar      1 <0>        -0.1080
     34 C25        -0.0624    3.7622    0.0179 C.ar      1 <0>        -0.0963
     35 C26        -1.2418    3.0357    0.0438 C.ar      1 <0>         0.0348
     36 C27        -1.1977    1.6438    0.0580 C.ar      1 <0>         0.0398
     37 C28         0.0254    0.9931    0.0585 C.ar      1 <0>        -0.0818
     38 O5         -2.4765    1.1672    0.0873 O.3       1 <0>        -0.3076
     39 C29        -3.2943    2.2804    0.4938 C.3       1 <0>         0.2087
     40 O6         -2.5482    3.4311    0.0549 O.3       1 <0>        -0.3035
     41 H4          8.8813   -1.7761    7.8576 H         1 <0>         0.0581
     42 H5          9.8254   -0.9458    6.5746 H         1 <0>         0.0546
     43 H6          8.5920   -2.1736    6.1299 H         1 <0>         0.0552
     44 H7          6.7987   -0.6961    7.0240 H         1 <0>         0.0658
     45 H8          8.0321    0.5317    7.4687 H         1 <0>         0.0644
     46 H9          8.7095    0.7165    5.0801 H         1 <0>         0.0659
     47 H10         7.4762   -0.5114    4.6353 H         1 <0>         0.0683
     48 H11         5.6828    0.9662    5.5293 H         1 <0>         0.0921
     49 H12         6.9162    2.1941    5.9740 H         1 <0>         0.0871
     50 H13         8.3843    3.0474    4.1396 H         1 <0>         0.0963
     51 H14         7.7155    3.0089    2.4729 H         1 <0>         0.0845
     52 H15         5.7856    4.3956    3.2152 H         1 <0>         0.0636
     53 H16         6.4544    4.4342    4.8819 H         1 <0>         0.0743
     54 H17         8.5157    5.5400    4.0293 H         1 <0>         0.0680
     55 H18         7.8469    5.5015    2.3626 H         1 <0>         0.0666
     56 H19         7.4756    7.7207    3.4283 H         1 <0>         0.0597
     57 H20         6.5858    6.9267    4.7716 H         1 <0>         0.0558
     58 H21         5.9170    6.8882    3.1049 H         1 <0>         0.0552
     59 H22         5.4318    2.9955    1.6302 H         1 <0>         0.1533
     60 H23         6.7362    1.8652    1.1328 H         1 <0>         0.1577
     61 H24         3.1660    0.8426    2.1429 H         1 <0>         0.1416
     62 H25         3.2726    2.5100    1.4834 H         1 <0>         0.1250
     63 H26         5.2053   -1.0658   -0.2387 H         1 <0>         0.1158
     64 H27         6.6883   -2.5785   -1.4923 H         1 <0>         0.1322
     65 H28         7.9450    0.6929   -3.9385 H         1 <0>         0.1363
     66 H29         6.4511    2.1967   -2.6873 H         1 <0>         0.1336
     67 H30         8.9582   -3.7998   -3.7201 H         1 <0>         0.1040
     68 H31         7.2463   -3.6695   -3.1918 H         1 <0>         0.0610
     69 H32         8.5730   -3.3141   -2.0341 H         1 <0>         0.0560
     70 H33         2.0727    3.6741   -0.0076 H         1 <0>         0.1349
     71 H34        -0.0936    4.8417    0.0023 H         1 <0>         0.1381
     72 H35         0.0626   -0.0862    0.0746 H         1 <0>         0.1409
     73 H36        -4.2776    2.2105    0.0058 H         1 <0>         0.1353
     74 H37        -3.4247    2.2601    1.5859 H         1 <0>         0.0867
     75 H38         5.0485    0.1177    0.9246 H         1 <0>         0.4470
@<TRIPOS>BOND
     1    1    2 1
     2    1   41 1
     3    1   42 1
     4    1   43 1
     5    2    3 1
     6    2   44 1
     7    2   45 1
     8    3    4 1
     9    3   46 1
    10    3   47 1
    11    4    5 1
    12    4   48 1
    13    4   49 1
    14    5    6 1
    15    5   10 am
    16    6    7 1
    17    6   50 1
    18    6   51 1
    19    7    8 1
    20    7   52 1
    21    7   53 1
    22    8    9 1
    23    8   54 1
    24    8   55 1
    25    9   56 1
    26    9   57 1
    27    9   58 1
    28   10   11 2
    29   10   12 1
    30   12   13 1
    31   12   59 1
    32   12   60 1
    33   13   19 1
    34   13   14 1
    35   13   75 1
    36   14   15 1
    37   14   61 1
    38   14   62 1
    39   15   16 1
    40   15   17 1
    41   15   32 1
    42   17   18 1
    43   17   19 1
    44   17   29 1
    45   19   20 1
    46   19   21 1
    47   21   26 ar
    48   21   22 ar
    49   22   23 ar
    50   22   63 1
    51   23   24 ar
    52   23   64 1
    53   24   25 ar
    54   24   27 1
    55   25   26 ar
    56   25   65 1
    57   26   66 1
    58   27   28 1
    59   28   67 1
    60   28   68 1
    61   28   69 1
    62   29   30 2
    63   29   31 1
    64   32   37 ar
    65   32   33 ar
    66   33   34 ar
    67   33   70 1
    68   34   35 ar
    69   34   71 1
    70   35   40 1
    71   35   36 ar
    72   36   37 ar
    73   36   38 1
    74   37   72 1
    75   38   39 1
    76   39   40 1
    77   39   73 1
    78   39   74 1
@<TRIPOS>MOLECULE
ZINC13740974
   63    67     0     0     0
SMALL
USER_CHARGES
(5R)-3-(1,3-benzodioxol-5-yl)-5-hydroxy-5-(4-methoxyphenyl)-4-[(3,4,5-trimethoxyphenyl)methyl]furan-2-one
@<TRIPOS>ATOM
      1 C1         -4.6039   -9.7187    2.1873 C.3       1 <0>         0.0237
      2 O1         -3.4596   -9.4932    3.0129 O.3       1 <0>        -0.3129
      3 C2         -2.4693   -8.7186    2.4968 C.ar      1 <0>         0.1490
      4 C3         -1.3297   -8.4586    3.2440 C.ar      1 <0>        -0.1513
      5 C4         -0.3247   -7.6706    2.7173 C.ar      1 <0>        -0.0476
      6 C5         -0.4542   -7.1407    1.4468 C.ar      1 <0>        -0.1724
      7 C6         -1.5915   -7.3937    0.7023 C.ar      1 <0>        -0.0438
      8 C7         -2.5966   -8.1861    1.2221 C.ar      1 <0>        -0.2069
      9 C8          0.6434   -6.2810    0.8749 C.3       1 <0>         0.3570
     10 C9          0.3750   -4.8239    1.1705 C.2       1 <0>        -0.0277
     11 C10         0.2569   -4.2027   -0.0141 C.2       1 <0>        -0.1477
     12 C11         0.4436   -5.1837   -1.0956 C.2       1 <0>         0.5128
     13 O2          0.3990   -4.9299   -2.2829 O.2       1 <0>        -0.4291
     14 O3          0.6703   -6.4028   -0.5744 O.3       1 <0>        -0.3308
     15 C12        -0.0126   -2.7561   -0.2029 C.ar      1 <0>        -0.0212
     16 C13        -1.2399   -2.2187    0.1810 C.ar      1 <0>        -0.0894
     17 C14        -1.4896   -0.8730    0.0055 C.ar      1 <0>        -0.0967
     18 C15        -0.5219   -0.0512   -0.5527 C.ar      1 <0>         0.0432
     19 C16         0.7073   -0.5836   -0.9384 C.ar      1 <0>         0.0360
     20 C17         0.9612   -1.9321   -0.7640 C.ar      1 <0>        -0.0747
     21 O4          1.4751    0.4209   -1.4536 O.3       1 <0>        -0.3035
     22 C18         0.8611    1.6431   -1.0041 C.3       1 <0>         0.2115
     23 O5         -0.5224    1.2862   -0.8269 O.3       1 <0>        -0.3047
     24 C19         0.2600   -4.1900    2.5328 C.3       1 <0>        -0.0270
     25 C20         1.6338   -3.8306    3.0373 C.ar      1 <0>        -0.0072
     26 C21         2.3298   -4.7200    3.8344 C.ar      1 <0>        -0.2042
     27 C22         3.5965   -4.3954    4.2960 C.ar      1 <0>         0.1512
     28 C23         4.1613   -3.1693    3.9658 C.ar      1 <0>         0.0317
     29 C24         3.4558   -2.2755    3.1689 C.ar      1 <0>         0.1498
     30 C25         2.1922   -2.6102    2.7063 C.ar      1 <0>        -0.2212
     31 O6          4.0040   -1.0742    2.8434 O.3       1 <0>        -0.2997
     32 C26         3.1785   -0.1590    2.1203 C.3       1 <0>         0.0245
     33 O7          5.4019   -2.8447    4.4214 O.3       1 <0>        -0.3126
     34 C27         5.4754   -2.1708    5.6794 C.3       1 <0>         0.0358
     35 O8          4.2829   -5.2736    5.0752 O.3       1 <0>        -0.3013
     36 C28         3.6409   -6.5147    5.3743 C.3       1 <0>         0.0240
     37 O9          1.9057   -6.6651    1.4236 O.3       1 <0>        -0.5130
     38 H1         -5.0731   -8.7644    1.9481 H         1 <0>         0.0589
     39 H2         -4.2954  -10.2129    1.2660 H         1 <0>         0.0590
     40 H3         -5.3159  -10.3508    2.7179 H         1 <0>         0.1047
     41 H4         -1.2284   -8.8717    4.2368 H         1 <0>         0.1397
     42 H5          0.5627   -7.4679    3.2986 H         1 <0>         0.1399
     43 H6         -1.6924   -6.9748   -0.2880 H         1 <0>         0.1271
     44 H7         -3.4827   -8.3874    0.6383 H         1 <0>         0.1356
     45 H8         -1.9958   -2.8557    0.6160 H         1 <0>         0.1426
     46 H9         -2.4411   -0.4585    0.3040 H         1 <0>         0.1432
     47 H10         1.9133   -2.3458   -1.0620 H         1 <0>         0.1375
     48 H11         0.9618    2.4226   -1.7593 H         1 <0>         0.1354
     49 H12         1.2975    1.9657   -0.0588 H         1 <0>         0.0864
     50 H13        -0.3491   -3.2886    2.4639 H         1 <0>         0.1029
     51 H14        -0.2079   -4.8927    3.2222 H         1 <0>         0.1028
     52 H15         1.8881   -5.6705    4.0947 H         1 <0>         0.1363
     53 H16         1.6433   -1.9163    2.0869 H         1 <0>         0.1327
     54 H17         3.7154    0.7785    1.9759 H         1 <0>         0.1028
     55 H18         2.9259   -0.5863    1.1499 H         1 <0>         0.0564
     56 H19         2.2644    0.0289    2.6836 H         1 <0>         0.0556
     57 H20         5.0337   -2.7978    6.4539 H         1 <0>         0.0444
     58 H21         6.5186   -1.9713    5.9244 H         1 <0>         0.0927
     59 H22         4.9298   -1.2290    5.6194 H         1 <0>         0.0435
     60 H23         4.2951   -7.1202    6.0016 H         1 <0>         0.1023
     61 H24         2.7069   -6.3226    5.9024 H         1 <0>         0.0563
     62 H25         3.4311   -7.0480    4.4471 H         1 <0>         0.0605
     63 H26         2.1501   -7.5832    1.2432 H         1 <0>         0.3971
@<TRIPOS>BOND
     1    1    2 1
     2    1   38 1
     3    1   39 1
     4    1   40 1
     5    2    3 1
     6    3    8 ar
     7    3    4 ar
     8    4    5 ar
     9    4   41 1
    10    5    6 ar
    11    5   42 1
    12    6    7 ar
    13    6    9 1
    14    7    8 ar
    15    7   43 1
    16    8   44 1
    17    9   14 1
    18    9   10 1
    19    9   37 1
    20   10   11 2
    21   10   24 1
    22   11   12 1
    23   11   15 1
    24   12   13 2
    25   12   14 1
    26   15   20 ar
    27   15   16 ar
    28   16   17 ar
    29   16   45 1
    30   17   18 ar
    31   17   46 1
    32   18   23 1
    33   18   19 ar
    34   19   20 ar
    35   19   21 1
    36   20   47 1
    37   21   22 1
    38   22   23 1
    39   22   48 1
    40   22   49 1
    41   24   25 1
    42   24   50 1
    43   24   51 1
    44   25   30 ar
    45   25   26 ar
    46   26   27 ar
    47   26   52 1
    48   27   28 ar
    49   27   35 1
    50   28   29 ar
    51   28   33 1
    52   29   30 ar
    53   29   31 1
    54   30   53 1
    55   31   32 1
    56   32   54 1
    57   32   55 1
    58   32   56 1
    59   33   34 1
    60   34   57 1
    61   34   58 1
    62   34   59 1
    63   35   36 1
    64   36   60 1
    65   36   61 1
    66   36   62 1
    67   37   63 1
@<TRIPOS>MOLECULE
ZINC13740975
   63    67     0     0     0
SMALL
USER_CHARGES
(5S)-3-(1,3-benzodioxol-5-yl)-5-hydroxy-5-(4-methoxyphenyl)-4-[(3,4,5-trimethoxyphenyl)methyl]furan-2-one
@<TRIPOS>ATOM
      1 C1          4.7724    0.1638   -0.0441 C.3       1 <0>         0.0241
      2 O1          3.5855   -0.6319   -0.0371 O.3       1 <0>        -0.3128
      3 C2          2.3989    0.0304   -0.0212 C.ar      1 <0>         0.1491
      4 C3          1.2070   -0.6796   -0.0136 C.ar      1 <0>        -0.1494
      5 C4          0.0021   -0.0041    0.0020 C.ar      1 <0>        -0.0455
      6 C5         -0.0167    1.3784    0.0096 C.ar      1 <0>        -0.1730
      7 C6          1.1698    2.0883    0.0021 C.ar      1 <0>        -0.0460
      8 C7          2.3774    1.4175   -0.0131 C.ar      1 <0>        -0.2088
      9 C8         -1.3326    2.1128    0.0199 C.3       1 <0>         0.3572
     10 C9         -1.8034    2.3546   -1.3952 C.2       1 <0>        -0.0284
     11 C10        -2.9834    1.7238   -1.5236 C.2       1 <0>        -0.1469
     12 C11        -3.3238    1.0691   -0.2499 C.2       1 <0>         0.5134
     13 O2         -4.3298    0.4189   -0.0467 O.2       1 <0>        -0.4294
     14 O3         -2.3555    1.2972    0.6556 O.3       1 <0>        -0.3302
     15 C12        -3.8122    1.6939   -2.7538 C.ar      1 <0>        -0.0214
     16 C13        -3.3368    1.0602   -3.9005 C.ar      1 <0>        -0.0898
     17 C14        -4.1082    1.0328   -5.0442 C.ar      1 <0>        -0.0969
     18 C15        -5.3578    1.6342   -5.0571 C.ar      1 <0>         0.0431
     19 C16        -5.8382    2.2689   -3.9128 C.ar      1 <0>         0.0358
     20 C17        -5.0698    2.2942   -2.7630 C.ar      1 <0>        -0.0735
     21 O4         -7.0772    2.7749   -4.1826 O.3       1 <0>        -0.3048
     22 C18        -7.5211    2.0920   -5.3699 C.3       1 <0>         0.2121
     23 O5         -6.2966    1.7436   -6.0423 O.3       1 <0>        -0.3055
     24 C19        -1.0875    3.1492   -2.4568 C.3       1 <0>        -0.0267
     25 C20        -1.4289    4.6094   -2.3073 C.ar      1 <0>        -0.0082
     26 C21        -2.5157    5.1355   -2.9802 C.ar      1 <0>        -0.2208
     27 C22        -2.8366    6.4774   -2.8408 C.ar      1 <0>         0.1508
     28 C23        -2.0574    7.2958   -2.0318 C.ar      1 <0>         0.0313
     29 C24        -0.9621    6.7641   -1.3615 C.ar      1 <0>         0.1504
     30 C25        -0.6511    5.4202   -1.5021 C.ar      1 <0>        -0.2044
     31 O6         -0.1963    7.5610   -0.5691 O.3       1 <0>        -0.3013
     32 C26         0.9138    6.9471    0.0889 C.3       1 <0>         0.0245
     33 O7         -2.3662    8.6143   -1.8961 O.3       1 <0>        -0.3126
     34 C27        -1.7697    9.5195   -2.8271 C.3       1 <0>         0.0357
     35 O8         -3.9096    6.9928   -3.4985 O.3       1 <0>        -0.3006
     36 C28        -4.6651    6.0933   -4.3122 C.3       1 <0>         0.0265
     37 O9         -1.1955    3.3559    0.7112 O.3       1 <0>        -0.5133
     38 H1          4.7793    0.7983   -0.9304 H         1 <0>         0.0588
     39 H2          4.7971    0.7875    0.8494 H         1 <0>         0.0587
     40 H3          5.6464   -0.4875   -0.0568 H         1 <0>         0.1043
     41 H4          1.2211   -1.7595   -0.0203 H         1 <0>         0.1389
     42 H5         -0.9260   -0.5563    0.0079 H         1 <0>         0.1320
     43 H6          1.1525    3.1682    0.0077 H         1 <0>         0.1351
     44 H7          3.3039    1.9724   -0.0187 H         1 <0>         0.1365
     45 H8         -2.3641    0.5909   -3.8940 H         1 <0>         0.1429
     46 H9         -3.7377    0.5418   -5.9319 H         1 <0>         0.1431
     47 H10        -5.4424    2.7821   -1.8744 H         1 <0>         0.1374
     48 H11        -8.0830    1.1954   -5.1085 H         1 <0>         0.0880
     49 H12        -8.1234    2.7554   -5.9906 H         1 <0>         0.1354
     50 H13        -0.0114    3.0146   -2.3476 H         1 <0>         0.1019
     51 H14        -1.3989    2.8023   -3.4422 H         1 <0>         0.1030
     52 H15        -3.1182    4.4998   -3.6121 H         1 <0>         0.1336
     53 H16         0.1998    5.0062   -0.9816 H         1 <0>         0.1356
     54 H17         1.5941    6.5337   -0.6556 H         1 <0>         0.0553
     55 H18         1.4388    7.6918    0.6871 H         1 <0>         0.1018
     56 H19         0.5551    6.1475    0.7370 H         1 <0>         0.0604
     57 H20        -0.6843    9.4629   -2.7443 H         1 <0>         0.0440
     58 H21        -2.0714    9.2508   -3.8394 H         1 <0>         0.0439
     59 H22        -2.0984   10.5353   -2.6076 H         1 <0>         0.0926
     60 H23        -4.0211    5.6747   -5.0855 H         1 <0>         0.0557
     61 H24        -5.0603    5.2879   -3.6931 H         1 <0>         0.0574
     62 H25        -5.4904    6.6313   -4.7787 H         1 <0>         0.1032
     63 H26        -0.9085    3.2654    1.6302 H         1 <0>         0.3966
@<TRIPOS>BOND
     1    1    2 1
     2    1   38 1
     3    1   39 1
     4    1   40 1
     5    2    3 1
     6    3    8 ar
     7    3    4 ar
     8    4    5 ar
     9    4   41 1
    10    5    6 ar
    11    5   42 1
    12    6    7 ar
    13    6    9 1
    14    7    8 ar
    15    7   43 1
    16    8   44 1
    17    9   14 1
    18    9   10 1
    19    9   37 1
    20   10   11 2
    21   10   24 1
    22   11   12 1
    23   11   15 1
    24   12   13 2
    25   12   14 1
    26   15   20 ar
    27   15   16 ar
    28   16   17 ar
    29   16   45 1
    30   17   18 ar
    31   17   46 1
    32   18   23 1
    33   18   19 ar
    34   19   20 ar
    35   19   21 1
    36   20   47 1
    37   21   22 1
    38   22   23 1
    39   22   48 1
    40   22   49 1
    41   24   25 1
    42   24   50 1
    43   24   51 1
    44   25   30 ar
    45   25   26 ar
    46   26   27 ar
    47   26   52 1
    48   27   28 ar
    49   27   35 1
    50   28   29 ar
    51   28   33 1
    52   29   30 ar
    53   29   31 1
    54   30   53 1
    55   31   32 1
    56   32   54 1
    57   32   55 1
    58   32   56 1
    59   33   34 1
    60   34   57 1
    61   34   58 1
    62   34   59 1
    63   35   36 1
    64   36   60 1
    65   36   61 1
    66   36   62 1
    67   37   63 1
@<TRIPOS>MOLECULE
ZINC03812144
   75    78     0     0     0
SMALL
USER_CHARGES
4-benzo[1,3]dioxol-5-yl-1-(dibutylcarbamoylmethyl)-2-(4-methoxyphenyl)-pyrrolidine-3-carboxylic acid
@<TRIPOS>ATOM
      1 C1          0.9498    0.9127    6.1925 C.3       1 <0>        -0.1547
      2 C2          1.4487    1.9314    5.1658 C.3       1 <0>        -0.1218
      3 C3          2.9242    1.6664    4.8598 C.3       1 <0>        -0.1414
      4 C4          3.4231    2.6851    3.8331 C.3       1 <0>         0.0947
      5 N1          4.8359    2.4314    3.5401 N.am      1 <0>        -0.5904
      6 C5          5.8779    3.0876    4.3337 C.3       1 <0>         0.1109
      7 C6          6.2477    4.4231    3.6852 C.3       1 <0>        -0.1341
      8 C7          7.3360    5.1084    4.5141 C.3       1 <0>        -0.1225
      9 C8          7.7058    6.4440    3.8656 C.3       1 <0>        -0.1534
     10 C9          5.1770    1.5942    2.5404 C.2       1 <0>         0.5035
     11 O1          6.3466    1.3841    2.2979 O.2       1 <0>        -0.5231
     12 C10         4.1051    0.9192    1.7241 C.3       1 <0>        -0.0256
     13 C11         5.2114    0.8721   -0.4443 C.3       1 <0>        -0.0107
     14 C12         5.3321   -0.1707   -1.5838 C.3       1 <0>        -0.0381
     15 H1          6.2642   -0.7294   -1.4983 H         1 <0>         0.1169
     16 C13         4.1166   -1.0938   -1.3378 C.3       1 <0>        -0.1352
     17 H2          3.2821   -0.8008   -1.9749 H         1 <0>         0.1149
     18 C14         3.7530   -0.8934    0.1451 C.3       1 <0>         0.0779
     19 H3          3.8150   -1.8442    0.6744 H         1 <0>         0.1699
     20 C15         2.3593   -0.3318    0.2606 C.ar      1 <0>        -0.1581
     21 C16         1.3712   -1.0623    0.8944 C.ar      1 <0>        -0.0434
     22 C17         0.0927   -0.5499    1.0011 C.ar      1 <0>        -0.1410
     23 C18        -0.1993    0.6987    0.4718 C.ar      1 <0>         0.1506
     24 C19         0.7939    1.4297   -0.1637 C.ar      1 <0>        -0.2016
     25 C20         2.0708    0.9129   -0.2678 C.ar      1 <0>        -0.0893
     26 O2         -1.4576    1.2025    0.5706 O.3       1 <0>        -0.3100
     27 C21        -1.6858    2.4939    0.0029 C.3       1 <0>         0.0234
     28 C22         4.4905   -2.5308   -1.5951 C.2       1 <0>         0.4678
     29 O3          4.4730   -3.3310   -0.6900 O.co2     1 <0>        -0.6261
     30 C23         5.2306    0.4972   -2.9309 C.ar      1 <0>        -0.0557
     31 C24         4.1485    1.3079   -3.2190 C.ar      1 <0>        -0.1146
     32 C25         4.0532    1.9264   -4.4516 C.ar      1 <0>        -0.0972
     33 C26         5.0380    1.7268   -5.4055 C.ar      1 <0>         0.0362
     34 C27         6.1254    0.9058   -5.1172 C.ar      1 <0>         0.0412
     35 C28         6.2168    0.2932   -3.8779 C.ar      1 <0>        -0.0669
     36 O4          6.9464    0.8704   -6.2071 O.3       1 <0>        -0.3041
     37 C29         6.5617    1.9985   -7.0150 C.3       1 <0>         0.2126
     38 O5          5.1777    2.2057   -6.6761 O.3       1 <0>        -0.3079
     39 H4         -0.1014    1.1015    6.4105 H         1 <0>         0.0586
     40 H5          1.0622   -0.0939    5.7898 H         1 <0>         0.0559
     41 H6          1.5331    1.0047    7.1087 H         1 <0>         0.0553
     42 H7          1.3363    2.9380    5.5685 H         1 <0>         0.0660
     43 H8          0.8654    1.8394    4.2496 H         1 <0>         0.0650
     44 H9          3.0366    0.6598    4.4571 H         1 <0>         0.0651
     45 H10         3.5075    1.7584    5.7760 H         1 <0>         0.0742
     46 H11         3.3106    3.6917    4.2358 H         1 <0>         0.0946
     47 H12         2.8398    2.5931    2.9169 H         1 <0>         0.0810
     48 H13         5.5082    3.2641    5.3438 H         1 <0>         0.0868
     49 H14         6.7594    2.4478    4.3760 H         1 <0>         0.0918
     50 H15         6.6174    4.2465    2.6752 H         1 <0>         0.0673
     51 H16         5.3663    5.0629    3.6429 H         1 <0>         0.0650
     52 H17         6.9663    5.2850    5.5242 H         1 <0>         0.0644
     53 H18         8.2174    4.4687    4.5564 H         1 <0>         0.0659
     54 H19         8.0755    6.2674    2.8555 H         1 <0>         0.0545
     55 H20         6.8243    7.0837    3.8233 H         1 <0>         0.0539
     56 H21         8.4811    6.9322    4.4561 H         1 <0>         0.0578
     57 H22         3.4899    1.6751    1.2361 H         1 <0>         0.1524
     58 H23         3.4811    0.3091    2.3772 H         1 <0>         0.1571
     59 H24         6.1826    1.3151   -0.2238 H         1 <0>         0.1444
     60 H25         4.4879    1.6446   -0.7048 H         1 <0>         0.1266
     61 H26         1.5989   -2.0345    1.3060 H         1 <0>         0.1445
     62 H27        -0.6789   -1.1211    1.4960 H         1 <0>         0.1420
     63 H28         0.5690    2.4019   -0.5769 H         1 <0>         0.1373
     64 H29         2.8444    1.4817   -0.7621 H         1 <0>         0.1254
     65 H30        -1.0389    3.2241    0.4893 H         1 <0>         0.0579
     66 H31        -1.4644    2.4661   -1.0640 H         1 <0>         0.0601
     67 H32        -2.7281    2.7767    0.1504 H         1 <0>         0.1056
     68 H33         3.3777    1.4613   -2.4782 H         1 <0>         0.1291
     69 H34         3.2088    2.5625   -4.6725 H         1 <0>         0.1367
     70 H35         7.0591   -0.3436   -3.6514 H         1 <0>         0.1411
     71 H36         7.1550    2.8754   -6.7557 H         1 <0>         0.0853
     72 H37         6.6682    1.7650   -8.0743 H         1 <0>         0.1337
     73 N2          4.7351    0.0571    0.6793 N.4       1 <0>        -0.3729
     74 H38         5.5228   -0.4539    1.0947 H         1 <0>         0.4398
     75 O6          4.8430   -2.9218   -2.8299 O.co2     1 <0>        -0.7221
@<TRIPOS>BOND
     1    1    2 1
     2    1   39 1
     3    1   40 1
     4    1   41 1
     5    2    3 1
     6    2   42 1
     7    2   43 1
     8    3    4 1
     9    3   44 1
    10    3   45 1
    11    4    5 1
    12    4   46 1
    13    4   47 1
    14    5    6 1
    15    5   10 am
    16    6    7 1
    17    6   48 1
    18    6   49 1
    19    7    8 1
    20    7   50 1
    21    7   51 1
    22    8    9 1
    23    8   52 1
    24    8   53 1
    25    9   54 1
    26    9   55 1
    27    9   56 1
    28   10   11 2
    29   10   12 1
    30   12   57 1
    31   12   58 1
    32   12   73 1
    33   13   14 1
    34   13   59 1
    35   13   60 1
    36   13   73 1
    37   14   15 1
    38   14   16 1
    39   14   30 1
    40   16   17 1
    41   16   18 1
    42   16   28 1
    43   18   19 1
    44   18   20 1
    45   18   73 1
    46   20   25 ar
    47   20   21 ar
    48   21   22 ar
    49   21   61 1
    50   22   23 ar
    51   22   62 1
    52   23   24 ar
    53   23   26 1
    54   24   25 ar
    55   24   63 1
    56   25   64 1
    57   26   27 1
    58   27   65 1
    59   27   66 1
    60   27   67 1
    61   28   29 2
    62   28   75 1
    63   30   35 ar
    64   30   31 ar
    65   31   32 ar
    66   31   68 1
    67   32   33 ar
    68   32   69 1
    69   33   38 1
    70   33   34 ar
    71   34   35 ar
    72   34   36 1
    73   35   70 1
    74   36   37 1
    75   37   38 1
    76   37   71 1
    77   37   72 1
    78   73   74 1
