@<TRIPOS>MOLECULE
ZINC00522351
   37    39     0     0     0
SMALL
USER_CHARGES

@<TRIPOS>ATOM
      1 C1         -0.0172    1.4136    0.0098 C.ar      1 <0>         0.0655
      2 C2          1.1763    2.0909    0.0021 C.ar      1 <0>        -0.1055
      3 C3          2.3794    1.3925   -0.0149 C.ar      1 <0>         0.2244
      4 N1          2.3964    0.0794   -0.0118 N.ar      1 <0>        -0.4129
      5 C4          1.2768   -0.6150   -0.0055 C.ar      1 <0>         0.0649
      6 C5          0.0021   -0.0041    0.0020 C.ar      1 <0>        -0.1330
      7 C6         -1.1244   -0.9251   -0.0019 C.2       1 <0>         0.3010
      8 C7         -0.8630   -2.2772   -0.0065 C.2       1 <0>        -0.3297
      9 S1          0.9174   -2.3537   -0.0051 S.3       1 <0>         0.2480
     10 C8         -1.7885   -3.3509   -0.0113 C.2       1 <0>         0.6189
     11 O1         -2.9848   -3.1235   -0.0118 O.2       1 <0>        -0.5351
     12 N2         -1.3444   -4.6233   -0.0154 N.am      1 <0>        -0.8433
     13 N3         -2.4294   -0.4528   -0.0006 N.pl3     1 <0>        -0.8041
     14 C9          3.6464    2.2063   -0.0527 C.3       1 <0>        -0.1032
     15 C10         4.0671    2.6670    1.3059 C.3       1 <0>        -0.1246
     16 C11         3.3615    3.8652    1.9078 C.3       1 <0>        -0.1283
     17 C12         1.9592    3.4692    2.4066 C.3       1 <0>        -0.1295
     18 C13         0.9201    4.0867    1.4315 C.3       1 <0>        -0.1228
     19 C14         1.2193    3.5958    0.0172 C.3       1 <0>        -0.0935
     20 H1         -0.9540    1.9506    0.0261 H         1 <0>         0.1747
     21 H2         -0.3914   -4.8044   -0.0151 H         1 <0>         0.3995
     22 H3         -1.9777   -5.3581   -0.0188 H         1 <0>         0.4183
     23 H4         -2.5996    0.5022    0.0030 H         1 <0>         0.4075
     24 H5         -3.1713   -1.0776   -0.0032 H         1 <0>         0.4360
     25 H6          4.4433    1.5992   -0.4822 H         1 <0>         0.1082
     26 H7          3.4876    3.0778   -0.6877 H         1 <0>         0.1317
     27 H8          3.9422    1.8299    1.9927 H         1 <0>         0.0646
     28 H9          5.1317    2.8971    1.2625 H         1 <0>         0.0935
     29 H10         3.9475    4.2458    2.7444 H         1 <0>         0.0822
     30 H11         3.2683    4.6455    1.1524 H         1 <0>         0.0780
     31 H12         1.8617    2.3835    2.4116 H         1 <0>         0.0538
     32 H13         1.8005    3.8598    3.4117 H         1 <0>         0.0781
     33 H14        -0.0833    3.7750    1.7217 H         1 <0>         0.0705
     34 H15         0.9905    5.1739    1.4634 H         1 <0>         0.0898
     35 H16         2.2100    3.9355   -0.2850 H         1 <0>         0.1039
     36 H17         0.4714    3.9892   -0.6714 H         1 <0>         0.1013
     37 H18         3.2471   -0.3868   -0.0145 H         1 <0>         0.4513
@<TRIPOS>BOND
     1    1    6 ar
     2    1    2 ar
     3    1   20 1
     4    2   19 1
     5    2    3 ar
     6    3    4 ar
     7    3   14 1
     8    4    5 ar
     9    4   37 1
    10    5    9 1
    11    5    6 ar
    12    6    7 1
    13    7    8 2
    14    7   13 1
    15    8    9 1
    16    8   10 1
    17   10   11 2
    18   10   12 am
    19   12   21 1
    20   12   22 1
    21   13   23 1
    22   13   24 1
    23   14   15 1
    24   14   25 1
    25   14   26 1
    26   15   16 1
    27   15   27 1
    28   15   28 1
    29   16   17 1
    30   16   29 1
    31   16   30 1
    32   17   18 1
    33   17   31 1
    34   17   32 1
    35   18   19 1
    36   18   33 1
    37   18   34 1
    38   19   35 1
    39   19   36 1
@<TRIPOS>MOLECULE
ZINC00522351
   36    38     0     0     0
SMALL
USER_CHARGES

@<TRIPOS>ATOM
      1 C1         -0.0172    1.4136    0.0098 C.ar      1 <0>        -0.0112
      2 C2          1.1763    2.0909    0.0021 C.ar      1 <0>        -0.1374
      3 C3          2.3794    1.3925   -0.0149 C.ar      1 <0>         0.1933
      4 N1          2.3964    0.0794   -0.0118 N.ar      1 <0>        -0.4453
      5 C4          1.2768   -0.6150   -0.0055 C.ar      1 <0>         0.1285
      6 C5          0.0021   -0.0041    0.0020 C.ar      1 <0>        -0.1872
      7 C6         -1.1244   -0.9251   -0.0019 C.2       1 <0>         0.3054
      8 C7         -0.8630   -2.2772   -0.0065 C.2       1 <0>        -0.3529
      9 S1          0.9174   -2.3537   -0.0051 S.3       1 <0>         0.1090
     10 C8         -1.7885   -3.3509   -0.0113 C.2       1 <0>         0.6248
     11 O1         -2.9848   -3.1235   -0.0118 O.2       1 <0>        -0.5602
     12 N2         -1.3444   -4.6233   -0.0154 N.am      1 <0>        -0.8506
     13 N3         -2.4294   -0.4528   -0.0006 N.pl3     1 <0>        -0.8240
     14 C9          3.6464    2.2063   -0.0527 C.3       1 <0>        -0.0731
     15 C10         4.0671    2.6670    1.3059 C.3       1 <0>        -0.1165
     16 C11         3.3615    3.8652    1.9078 C.3       1 <0>        -0.1202
     17 C12         1.9592    3.4692    2.4066 C.3       1 <0>        -0.1253
     18 C13         0.9201    4.0867    1.4315 C.3       1 <0>        -0.1157
     19 C14         1.2193    3.5958    0.0172 C.3       1 <0>        -0.0873
     20 H1         -0.9540    1.9506    0.0261 H         1 <0>         0.1368
     21 H2         -0.3914   -4.8044   -0.0151 H         1 <0>         0.4007
     22 H3         -1.9777   -5.3581   -0.0188 H         1 <0>         0.4073
     23 H4         -2.5996    0.5022    0.0030 H         1 <0>         0.3987
     24 H5         -3.1713   -1.0776   -0.0032 H         1 <0>         0.4241
     25 H6          4.4433    1.5992   -0.4822 H         1 <0>         0.0896
     26 H7          3.4876    3.0778   -0.6877 H         1 <0>         0.0921
     27 H8          3.9422    1.8299    1.9927 H         1 <0>         0.0611
     28 H9          5.1317    2.8971    1.2625 H         1 <0>         0.0701
     29 H10         3.9475    4.2458    2.7444 H         1 <0>         0.0678
     30 H11         3.2683    4.6455    1.1524 H         1 <0>         0.0686
     31 H12         1.8617    2.3835    2.4116 H         1 <0>         0.0618
     32 H13         1.8005    3.8598    3.4117 H         1 <0>         0.0647
     33 H14        -0.0833    3.7750    1.7217 H         1 <0>         0.0615
     34 H15         0.9905    5.1739    1.4634 H         1 <0>         0.0726
     35 H16         2.2100    3.9355   -0.2850 H         1 <0>         0.0917
     36 H17         0.4714    3.9892   -0.6714 H         1 <0>         0.0768
@<TRIPOS>BOND
     1    1    6 ar
     2    1    2 ar
     3    1   20 1
     4    2   19 1
     5    2    3 ar
     6    3    4 ar
     7    3   14 1
     8    4    5 ar
     9    5    9 1
    10    5    6 ar
    11    6    7 1
    12    7    8 2
    13    7   13 1
    14    8    9 1
    15    8   10 1
    16   10   11 2
    17   10   12 am
    18   12   21 1
    19   12   22 1
    20   13   23 1
    21   13   24 1
    22   14   15 1
    23   14   25 1
    24   14   26 1
    25   15   16 1
    26   15   27 1
    27   15   28 1
    28   16   17 1
    29   16   29 1
    30   16   30 1
    31   17   18 1
    32   17   31 1
    33   17   32 1
    34   18   19 1
    35   18   33 1
    36   18   34 1
    37   19   35 1
    38   19   36 1
@<TRIPOS>MOLECULE
ZINC20827202
   43    47     0     0     0
SMALL
USER_CHARGES
morpholinoBLAHamine
@<TRIPOS>ATOM
      1 C1          6.6743   -2.3955    7.1160 C.ar      1 <0>         0.3479
      2 N1          6.2524   -1.8080    6.0243 N.ar      1 <0>        -0.5391
      3 C2          4.9732   -1.9358    5.6057 C.ar      1 <0>         0.2266
      4 C3          4.3453   -1.3449    4.4095 C.ar      1 <0>        -0.1446
      5 C4          4.9611   -0.5111    3.4391 C.ar      1 <0>         0.0418
      6 C5          4.2291   -0.0588    2.3897 C.ar      1 <0>        -0.1064
      7 C6          2.8743   -0.4042    2.2857 C.ar      1 <0>         0.3425
      8 N2          2.3036   -1.1808    3.1912 N.ar      1 <0>        -0.4791
      9 C7          2.9875   -1.6445    4.2164 C.ar      1 <0>         0.1338
     10 S1          2.5670   -2.6868    5.5917 S.3       1 <0>         0.1227
     11 C8          4.1399   -2.7277    6.4060 C.ar      1 <0>        -0.2999
     12 C9          4.6232   -3.3346    7.5560 C.ar      1 <0>         0.5060
     13 N3          5.9020   -3.1449    7.8810 N.ar      1 <0>        -0.5680
     14 N4          3.7974   -4.1188    8.3469 N.pl3     1 <0>        -0.8485
     15 N5          2.1251    0.0696    1.2174 N.pl3     1 <0>        -0.4776
     16 C10         1.6286   -1.0389    0.3893 C.3       1 <0>         0.0188
     17 C11         0.8604   -0.4709   -0.8070 C.3       1 <0>         0.0638
     18 O1         -0.1973    0.3671   -0.3335 O.3       1 <0>        -0.3809
     19 C12         0.2506    1.4576    0.4761 C.3       1 <0>         0.0638
     20 C13         1.0126    0.9091    1.6854 C.3       1 <0>         0.0180
     21 C14         4.8126    0.8215    1.3147 C.3       1 <0>        -0.0627
     22 C15         6.1198    1.4541    1.7881 C.3       1 <0>        -0.1271
     23 C16         7.0251    0.3441    2.3358 C.3       1 <0>        -0.1234
     24 C17         6.4141   -0.1756    3.6364 C.3       1 <0>        -0.0852
     25 H1          7.7060   -2.2599    7.4054 H         1 <0>         0.2015
     26 H2          4.1953   -4.5935    9.2559 H         1 <0>         0.4384
     27 H3          2.7443   -4.2663    8.0653 H         1 <0>         0.4351
     28 H4          2.4786   -1.6380    0.0307 H         1 <0>         0.0887
     29 H5          0.9598   -1.6737    0.9891 H         1 <0>         0.0630
     30 H6          1.5443    0.1183   -1.4356 H         1 <0>         0.0641
     31 H7          0.4393   -1.2974   -1.3983 H         1 <0>         0.1049
     32 H8          0.9148    2.1048   -0.1155 H         1 <0>         0.0639
     33 H9         -0.6172    2.0395    0.8202 H         1 <0>         0.1049
     34 H10         0.3339    0.3057    2.3061 H         1 <0>         0.0633
     35 H11         1.4090    1.7445    2.2812 H         1 <0>         0.0887
     36 H12         5.0132    0.2192    0.4164 H         1 <0>         0.0808
     37 H13         4.0987    1.6212    1.0680 H         1 <0>         0.0886
     38 H14         6.6112    1.9570    0.9422 H         1 <0>         0.0733
     39 H15         5.9064    2.1893    2.5780 H         1 <0>         0.0654
     40 H16         7.0933   -0.4702    1.5994 H         1 <0>         0.0662
     41 H17         8.0292    0.7507    2.5269 H         1 <0>         0.0742
     42 H18         6.5095    0.5999    4.4107 H         1 <0>         0.0897
     43 H19         6.9592   -1.0775    3.9517 H         1 <0>         0.1020
@<TRIPOS>BOND
     1    1   13 ar
     2    1    2 ar
     3    1   25 1
     4    2    3 ar
     5    3   11 ar
     6    3    4 1
     7    4    9 ar
     8    4    5 ar
     9    5   24 1
    10    5    6 ar
    11    6    7 ar
    12    6   21 1
    13    7    8 ar
    14    7   15 1
    15    8    9 ar
    16    9   10 1
    17   10   11 1
    18   11   12 ar
    19   12   13 ar
    20   12   14 1
    21   14   26 1
    22   14   27 1
    23   15   20 1
    24   15   16 1
    25   16   17 1
    26   16   28 1
    27   16   29 1
    28   17   18 1
    29   17   30 1
    30   17   31 1
    31   18   19 1
    32   19   20 1
    33   19   32 1
    34   19   33 1
    35   20   34 1
    36   20   35 1
    37   21   22 1
    38   21   36 1
    39   21   37 1
    40   22   23 1
    41   22   38 1
    42   22   39 1
    43   23   24 1
    44   23   40 1
    45   23   41 1
    46   24   42 1
    47   24   43 1
