@<TRIPOS>MOLECULE
ZINC03815034
   30    32     0     0     0
SMALL
USER_CHARGES
N-(3-bromophenyl)quinazoline-4,6-diamine
@<TRIPOS>ATOM
      1 C1          5.9509    2.8072   -0.3308 C.ar      1 <0>        -0.0918
      2 C2          4.7731    3.5232   -0.4213 C.ar      1 <0>        -0.1357
      3 C3          3.5964    2.9895    0.0885 C.ar      1 <0>         0.1621
      4 C4          3.6091    1.7390    0.6933 C.ar      1 <0>        -0.0859
      5 C5          4.7895    1.0256    0.7761 C.ar      1 <0>        -0.0701
      6 C6          5.9600    1.5607    0.2669 C.ar      1 <0>        -0.1092
      7 Br1         4.8072   -0.6799    1.5926 Br        1 <0>        -0.0448
      8 N1          2.4031    3.7117   -0.0018 N.pl3     1 <0>        -0.6401
      9 C7          1.2034    3.0462   -0.1536 C.ar      1 <0>         0.4472
     10 C8         -0.0265    3.7488   -0.1302 C.ar      1 <0>        -0.1320
     11 C9         -0.0854    5.1352    0.0458 C.ar      1 <0>        -0.1822
     12 C10        -1.3140    5.7636    0.0601 C.ar      1 <0>         0.2135
     13 C11        -2.4918    5.0270   -0.1001 C.ar      1 <0>        -0.1315
     14 C12        -2.4555    3.6768   -0.2732 C.ar      1 <0>        -0.0579
     15 C13        -1.2232    3.0090   -0.2919 C.ar      1 <0>         0.1389
     16 N2         -1.1403    1.6806   -0.4646 N.ar      1 <0>        -0.5286
     17 C14         0.0266    1.0823   -0.4730 C.ar      1 <0>         0.3218
     18 N3          1.1708    1.7319   -0.3258 N.ar      1 <0>        -0.5719
     19 N4         -1.3817    7.1483    0.2364 N.pl3     1 <0>        -0.8731
     20 H1          6.8660    3.2220   -0.7271 H         1 <0>         0.1363
     21 H2          4.7671    4.4969   -0.8885 H         1 <0>         0.1306
     22 H3          2.6968    1.3234    1.0950 H         1 <0>         0.1481
     23 H4          6.8824    1.0033    0.3370 H         1 <0>         0.1339
     24 H5          2.4181    4.6806    0.0422 H         1 <0>         0.4216
     25 H6          0.8217    5.7081    0.1705 H         1 <0>         0.1235
     26 H7         -3.4441    5.5363   -0.0862 H         1 <0>         0.1352
     27 H8         -3.3739    3.1218   -0.3952 H         1 <0>         0.1444
     28 H9          0.0558    0.0115   -0.6106 H         1 <0>         0.1952
     29 H10        -2.2430    7.5943    0.2471 H         1 <0>         0.4018
     30 H11        -0.5674    7.6634    0.3479 H         1 <0>         0.4009
@<TRIPOS>BOND
     1    1    6 ar
     2    1    2 ar
     3    1   20 1
     4    2    3 ar
     5    2   21 1
     6    3    4 ar
     7    3    8 1
     8    4    5 ar
     9    4   22 1
    10    5    6 ar
    11    5    7 1
    12    6   23 1
    13    8    9 1
    14    8   24 1
    15    9   18 ar
    16    9   10 ar
    17   10   15 ar
    18   10   11 ar
    19   11   12 ar
    20   11   25 1
    21   12   13 ar
    22   12   19 1
    23   13   14 ar
    24   13   26 1
    25   14   15 ar
    26   14   27 1
    27   15   16 ar
    28   16   17 ar
    29   17   18 ar
    30   17   28 1
    31   19   29 1
    32   19   30 1
@<TRIPOS>MOLECULE
ZINC01690194
   25    26     0     0     0
SMALL
USER_CHARGES

@<TRIPOS>ATOM
      1 C1          0.0486    1.3613   -0.4811 C.ar      1 <0>        -0.1256
      2 C2          1.2445    2.0640   -0.4675 C.ar      1 <0>        -0.0996
      3 C3          2.4457    1.4031   -0.3301 C.ar      1 <0>        -0.1164
      4 C4          2.4658    0.0177   -0.2034 C.ar      1 <0>         0.0761
      5 C5          1.2545   -0.6909   -0.2174 C.ar      1 <0>        -0.0687
      6 C6          0.0482   -0.0113   -0.3568 C.ar      1 <0>        -0.0786
      7 C7          1.6177   -2.1142   -0.0650 C.2       1 <0>        -0.2164
      8 C8          2.9960   -2.1511    0.0273 C.2       1 <0>         0.1301
      9 N1          3.4871   -0.8993   -0.0544 N.pl3     1 <0>        -0.5639
     10 H1          4.4295   -0.6731   -0.0143 H         1 <0>         0.4245
     11 C9          0.7341   -3.2158   -0.0219 C.2       1 <0>         0.1413
     12 C10         1.1688   -4.4325    0.4744 C.2       1 <0>        -0.1963
     13 C11         2.4609   -4.5373    1.0827 C.1       1 <0>         0.2615
     14 N2          3.4860   -4.6204    1.5652 N.1       1 <0>        -0.4320
     15 C12         0.3050   -5.6158    0.3773 C.2       1 <0>         0.5855
     16 O1         -0.7931   -5.5268   -0.1395 O.2       1 <0>        -0.5398
     17 N3          0.7283   -6.8006    0.8606 N.am      1 <0>        -0.8521
     18 H2         -0.8861    1.8923   -0.5850 H         1 <0>         0.1305
     19 H3          1.2340    3.1395   -0.5660 H         1 <0>         0.1312
     20 H4          3.3710    1.9600   -0.3212 H         1 <0>         0.1250
     21 H5         -0.8839   -0.5568   -0.3672 H         1 <0>         0.1314
     22 H6          3.5886   -3.0461    0.1466 H         1 <0>         0.1834
     23 H7         -0.2805   -3.1085   -0.3762 H         1 <0>         0.1612
     24 H8          1.6035   -6.8715    1.2726 H         1 <0>         0.3994
     25 H9          0.1576   -7.5823    0.7965 H         1 <0>         0.4083
@<TRIPOS>BOND
     1    1    6 ar
     2    1    2 ar
     3    1   18 1
     4    2    3 ar
     5    2   19 1
     6    3    4 ar
     7    3   20 1
     8    4    9 1
     9    4    5 ar
    10    5    6 ar
    11    5    7 1
    12    6   21 1
    13    7    8 2
    14    7   11 1
    15    8    9 1
    16    8   22 1
    17    9   10 1
    18   11   12 2
    19   11   23 1
    20   12   13 1
    21   12   15 1
    22   13   14 3
    23   15   16 2
    24   15   17 am
    25   17   24 1
    26   17   25 1
@<TRIPOS>MOLECULE
ZINC13281486
   23    24     0     0     0
SMALL
USER_CHARGES
2-(4-quinolylmethylene)propanedinitrile
@<TRIPOS>ATOM
      1 C1         -5.1438    3.8780   -0.2521 C.ar      1 <0>        -0.0983
      2 C2         -6.2744    3.0693   -0.3401 C.ar      1 <0>        -0.1030
      3 C3         -6.1684    1.7122   -0.3544 C.ar      1 <0>        -0.0826
      4 C4         -4.9001    1.1111   -0.2616 C.ar      1 <0>         0.1222
      5 C5         -3.7545    1.9392   -0.1669 C.ar      1 <0>        -0.0726
      6 C6         -3.8978    3.3295   -0.1663 C.ar      1 <0>        -0.1081
      7 C7         -2.4380    1.3017   -0.0763 C.ar      1 <0>        -0.0459
      8 C8         -2.4059   -0.0954   -0.0790 C.ar      1 <0>        -0.1332
      9 C9         -3.5964   -0.8048   -0.1709 C.ar      1 <0>         0.1348
     10 N1         -4.7637   -0.2172   -0.2562 N.ar      1 <0>        -0.4560
     11 C10        -1.2094    2.0946    0.0192 C.2       1 <0>         0.0516
     12 C11        -0.1426    1.6185    0.7270 C.2       1 <0>         0.0246
     13 C12        -0.2706    0.4148    1.4920 C.1       1 <0>         0.2450
     14 N2         -0.3722   -0.5402    2.0989 N.1       1 <0>        -0.3763
     15 C13         1.1055    2.3200    0.6994 C.1       1 <0>         0.2506
     16 N3          2.0956    2.8765    0.6775 N.1       1 <0>        -0.3755
     17 H1         -5.2549    4.9523   -0.2520 H         1 <0>         0.1337
     18 H2         -7.2505    3.5266   -0.4070 H         1 <0>         0.1348
     19 H3         -7.0553    1.0997   -0.4232 H         1 <0>         0.1403
     20 H4         -3.0276    3.9656   -0.0981 H         1 <0>         0.1345
     21 H5         -1.4637   -0.6189   -0.0107 H         1 <0>         0.1437
     22 H6         -3.5580   -1.8841   -0.1723 H         1 <0>         0.1661
     23 H7         -1.1474    3.0554   -0.4702 H         1 <0>         0.1695
@<TRIPOS>BOND
     1    1    6 ar
     2    1    2 ar
     3    1   17 1
     4    2    3 ar
     5    2   18 1
     6    3    4 ar
     7    3   19 1
     8    4   10 ar
     9    4    5 ar
    10    5    6 ar
    11    5    7 ar
    12    6   20 1
    13    7    8 ar
    14    7   11 1
    15    8    9 ar
    16    8   21 1
    17    9   10 ar
    18    9   22 1
    19   11   12 2
    20   11   23 1
    21   12   13 1
    22   12   15 1
    23   13   14 3
    24   15   16 3
@<TRIPOS>MOLECULE
ZINC03056377
   25    26     0     0     0
SMALL
USER_CHARGES
(E)-2-cyano-3-(1H-indol-3-yl)prop-2-enethioamide
@<TRIPOS>ATOM
      1 C1         -3.0277    3.6901    0.5384 C.ar      1 <0>        -0.1232
      2 C2         -3.4023    2.3547    0.5144 C.ar      1 <0>        -0.0978
      3 C3         -2.4592    1.3640    0.3485 C.ar      1 <0>        -0.1161
      4 C4         -1.1172    1.7002    0.1989 C.ar      1 <0>         0.0764
      5 C5         -0.7402    3.0516    0.2281 C.ar      1 <0>        -0.0659
      6 C6         -1.7031    4.0426    0.3960 C.ar      1 <0>        -0.0768
      7 C7          0.7257    3.0681    0.0513 C.2       1 <0>        -0.2192
      8 C8          1.1148    1.7476   -0.0640 C.2       1 <0>         0.1410
      9 N1          0.0272    0.9475    0.0265 N.pl3     1 <0>        -0.5630
     10 H1          0.0483   -0.0208   -0.0266 H         1 <0>         0.4259
     11 C9          1.5628    4.2064    0.0093 C.2       1 <0>         0.1745
     12 C10         2.8421    4.1057   -0.5087 C.2       1 <0>        -0.1815
     13 C11         3.2657    2.8919   -1.1395 C.1       1 <0>         0.2576
     14 N2          3.6017    1.9291   -1.6400 N.1       1 <0>        -0.4235
     15 C12         3.7642    5.2423   -0.4116 C.2       1 <0>         0.4209
     16 S1          3.2577    6.6934    0.3426 S.2       1 <0>        -0.5723
     17 N3          5.0101    5.1443   -0.9161 N.pl3     1 <0>        -0.7700
     18 H2         -3.7772    4.4566    0.6689 H         1 <0>         0.1320
     19 H3         -4.4431    2.0890    0.6265 H         1 <0>         0.1321
     20 H4         -2.7617    0.3274    0.3305 H         1 <0>         0.1257
     21 H5         -1.4135    5.0829    0.4143 H         1 <0>         0.1347
     22 H6          2.1299    1.4066   -0.2047 H         1 <0>         0.1840
     23 H7          1.2039    5.1546    0.3815 H         1 <0>         0.1787
     24 H8          5.2971    4.3222   -1.3434 H         1 <0>         0.3998
     25 H9          5.6199    5.8960   -0.8518 H         1 <0>         0.4259
@<TRIPOS>BOND
     1    1    6 ar
     2    1    2 ar
     3    1   18 1
     4    2    3 ar
     5    2   19 1
     6    3    4 ar
     7    3   20 1
     8    4    9 1
     9    4    5 ar
    10    5    6 ar
    11    5    7 1
    12    6   21 1
    13    7    8 2
    14    7   11 1
    15    8    9 1
    16    8   22 1
    17    9   10 1
    18   11   12 2
    19   11   23 1
    20   12   13 1
    21   12   15 1
    22   13   14 3
    23   15   16 2
    24   15   17 1
    25   17   24 1
    26   17   25 1
