@<TRIPOS>MOLECULE
ZINC01532519
   14    13     0     0     0
SMALL
USER_CHARGES

@<TRIPOS>ATOM
      1 C1         -0.0187    1.5258    0.0104 C.3       1 <0>        -0.1349
      2 C2          0.0021   -0.0041    0.0020 C.3       1 <0>        -0.1723
      3 C3         -1.4117   -0.5257    0.0127 C.2       1 <0>         0.4916
      4 O1         -2.3491    0.2539    0.0259 O.co2     1 <0>        -0.6986
      5 O2         -1.6182   -1.7273    0.0082 O.co2     1 <0>        -0.7189
      6 C4          1.3951    2.0474   -0.0003 C.2       1 <0>         0.2942
      7 O3          2.3236    1.2752   -0.0133 O.2       1 <0>        -0.4715
      8 C5          1.6481    3.5193    0.0052 C.2       1 <0>         0.4650
      9 O4          2.7931    3.9418   -0.0034 O.co2     1 <0>        -0.6737
     10 O5          0.7098    4.2997    0.0184 O.co2     1 <0>        -0.6688
     11 H1         -0.5459    1.8868   -0.8726 H         1 <0>         0.0890
     12 H2         -0.5289    1.8773    0.9072 H         1 <0>         0.0890
     13 H3          0.5123   -0.3556   -0.8948 H         1 <0>         0.0549
     14 H4          0.5293   -0.3651    0.8851 H         1 <0>         0.0549
@<TRIPOS>BOND
     1    1    2 1
     2    1    6 1
     3    1   11 1
     4    1   12 1
     5    2    3 1
     6    2   13 1
     7    2   14 1
     8    3    4 2
     9    3    5 1
    10    6    7 2
    11    6    8 1
    12    8    9 2
    13    8   10 1
@<TRIPOS>MOLECULE
ZINC66124461
   24    26     0     0     0
SMALL
USER_CHARGES

@<TRIPOS>ATOM
      1 C1         -0.0166    1.3747    0.0096 C.ar      1 <0>        -0.1086
      2 C2          1.1699    2.0941    0.0021 C.ar      1 <0>        -0.1246
      3 C3          2.3821    1.4427   -0.0133 C.ar      1 <0>        -0.0675
      4 C4          2.4191    0.0455   -0.0212 C.ar      1 <0>         0.0713
      5 C5          1.2147   -0.6781   -0.0131 C.ar      1 <0>         0.0485
      6 C6          0.0021   -0.0041    0.0020 C.ar      1 <0>        -0.1052
      7 N1          1.5697   -2.0146   -0.0237 N.pl3     1 <0>        -0.5931
      8 H1          0.9625   -2.7711   -0.0217 H         1 <0>         0.4304
      9 C7          2.9331   -2.0712   -0.0375 C.2       1 <0>         0.5494
     10 N2          3.4292   -0.8616   -0.0360 N.2       1 <0>        -0.5040
     11 N3          3.6835   -3.2418   -0.0508 N.pl3     1 <0>        -0.3251
     12 C8          5.0277   -3.3144   -0.0591 C.2       1 <0>         0.1123
     13 C9          5.3678   -4.6540   -0.0713 C.2       1 <0>        -0.2586
     14 C10         4.1589   -5.3907   -0.0699 C.2       1 <0>         0.1169
     15 N4          3.1688   -4.5429   -0.0516 N.2       1 <0>        -0.3270
     16 C11         6.7289   -5.2094   -0.0841 C.2       1 <0>         0.5523
     17 O1          7.6957   -4.4594   -0.0847 O.co2     1 <0>        -0.6876
     18 O2          6.8950   -6.4216   -0.0942 O.co2     1 <0>        -0.6871
     19 H2         -0.9611    1.8982    0.0259 H         1 <0>         0.1299
     20 H3          1.1419    3.1738    0.0082 H         1 <0>         0.1302
     21 H4          3.3016    2.0092   -0.0198 H         1 <0>         0.1325
     22 H5         -0.9250   -0.5580    0.0082 H         1 <0>         0.1234
     23 H6          5.7136   -2.4801   -0.0570 H         1 <0>         0.1909
     24 H7          4.0721   -6.4672   -0.0776 H         1 <0>         0.2003
@<TRIPOS>BOND
     1    1    6 ar
     2    1    2 ar
     3    1   19 1
     4    2    3 ar
     5    2   20 1
     6    3    4 ar
     7    3   21 1
     8    4   10 1
     9    4    5 ar
    10    5    6 ar
    11    5    7 1
    12    6   22 1
    13    7    8 1
    14    7    9 1
    15    9   10 2
    16    9   11 1
    17   11   15 1
    18   11   12 1
    19   12   13 2
    20   12   23 1
    21   13   14 1
    22   13   16 1
    23   14   15 2
    24   14   24 1
    25   16   17 2
    26   16   18 1
@<TRIPOS>MOLECULE
ZINC00391915
   15    15     0     0     0
SMALL
USER_CHARGES

@<TRIPOS>ATOM
      1 C1         -0.0169    1.3943    0.0097 C.ar      1 <0>        -0.1506
      2 C2          1.1844    2.0868    0.0020 C.ar      1 <0>         0.0506
      3 N1          2.3333    1.4504   -0.0124 N.ar      1 <0>        -0.4538
      4 C3          2.4029    0.1245   -0.0202 C.ar      1 <0>         0.0473
      5 C4          1.2439   -0.6483   -0.0138 C.ar      1 <0>        -0.0982
      6 C5          0.0021   -0.0041    0.0020 C.ar      1 <0>        -0.1203
      7 C6         -1.2566   -0.7809    0.0103 C.2       1 <0>         0.5276
      8 O1         -2.3327   -0.2010    0.0241 O.co2     1 <0>        -0.6963
      9 O2         -1.2208   -2.0027    0.0034 O.co2     1 <0>        -0.6833
     10 C7          3.7250   -0.5390   -0.0364 C.2       1 <0>         0.5395
     11 O3          4.7461    0.1331   -0.0425 O.co2     1 <0>        -0.6781
     12 O4          3.7964   -1.7593   -0.0436 O.co2     1 <0>        -0.6867
     13 H1         -0.9556    1.9282    0.0260 H         1 <0>         0.1250
     14 H2          1.1752    3.1668    0.0075 H         1 <0>         0.1374
     15 H3          1.3029   -1.7267   -0.0208 H         1 <0>         0.1399
@<TRIPOS>BOND
     1    1    6 ar
     2    1    2 ar
     3    1   13 1
     4    2    3 ar
     5    2   14 1
     6    3    4 ar
     7    4    5 ar
     8    4   10 1
     9    5    6 ar
    10    5   15 1
    11    6    7 1
    12    7    8 2
    13    7    9 1
    14   10   11 2
    15   10   12 1
@<TRIPOS>MOLECULE
ZINC40379392
   23    24     0     0     0
SMALL
USER_CHARGES

@<TRIPOS>ATOM
      1 C1         -0.0167    1.3794    0.0096 C.ar      1 <0>        -0.1501
      2 C2          0.0021   -0.0041    0.0020 C.ar      1 <0>         0.1005
      3 N1         -1.1124   -0.7062    0.0089 N.ar      1 <0>        -0.4518
      4 C3         -2.3097   -0.1353    0.0239 C.ar      1 <0>         0.1643
      5 C4         -2.4209    1.2662    0.0329 C.ar      1 <0>         0.0451
      6 C5         -1.2390    2.0360    0.0306 C.ar      1 <0>         0.0665
      7 N2         -1.6421    3.3512    0.0434 N.pl3     1 <0>        -0.5987
      8 C6         -3.0023    3.3541    0.0630 C.2       1 <0>         0.2586
      9 N3         -3.4525    2.1311    0.0486 N.2       1 <0>        -0.4504
     10 C7         -3.5273   -0.9728    0.0305 C.2       1 <0>         0.5487
     11 O1         -4.6246   -0.4500    0.0442 O.2       1 <0>        -0.5261
     12 N4         -3.4211   -2.3164    0.0213 N.am      1 <0>        -0.6774
     13 C8         -4.6280   -3.1467    0.0279 C.3       1 <0>         0.0493
     14 C9         -4.2368   -4.6019    0.0154 C.2       1 <0>         0.4908
     15 O2         -3.0589   -4.9164    0.0022 O.co2     1 <0>        -0.6884
     16 O3         -5.0981   -5.4648    0.0184 O.co2     1 <0>        -0.6903
     17 H1          0.9064    1.9400    0.0038 H         1 <0>         0.1375
     18 H2          0.9511   -0.5195   -0.0102 H         1 <0>         0.1705
     19 H3         -3.6192    4.2405    0.0771 H         1 <0>         0.2225
     20 H4         -2.5454   -2.7336    0.0104 H         1 <0>         0.4176
     21 H5         -5.2100   -2.9346    0.9248 H         1 <0>         0.0677
     22 H6         -5.2271   -2.9239   -0.8550 H         1 <0>         0.0677
     23 H7         -1.0646    4.1306    0.0396 H         1 <0>         0.4259
@<TRIPOS>BOND
     1    1    2 ar
     2    1   17 1
     3    1    6 ar
     4    2    3 ar
     5    2   18 1
     6    3    4 ar
     7    4    5 ar
     8    4   10 1
     9    5    9 1
    10    5    6 ar
    11    6    7 1
    12    7    8 1
    13    7   23 1
    14    8   19 1
    15    8    9 2
    16   10   11 2
    17   10   12 am
    18   12   13 1
    19   12   20 1
    20   13   14 1
    21   13   21 1
    22   13   22 1
    23   14   15 2
    24   14   16 1
@<TRIPOS>MOLECULE
ZINC40379392
   22    23     0     0     0
SMALL
USER_CHARGES

@<TRIPOS>ATOM
      1 C1         -0.0167    1.3767    0.0096 C.ar      1 <0>        -0.1217
      2 C2          0.0021   -0.0041    0.0020 C.ar      1 <0>         0.0179
      3 N1         -1.1119   -0.7078    0.0084 N.ar      1 <0>        -0.4738
      4 C3         -2.3105   -0.1365    0.0228 C.ar      1 <0>         0.1093
      5 C4         -2.4230    1.2557    0.0318 C.ar      1 <0>         0.0148
      6 C5         -1.2486    2.0362    0.0308 C.ar      1 <0>         0.0151
      7 N2         -1.6359    3.3329    0.0432 N.2       1 <0>        -0.5913
      8 C6         -2.9368    3.3987    0.0622 C.2       1 <0>         0.1649
      9 N3         -3.4690    2.1465    0.0471 N.2       1 <0>        -0.5585
     10 C7         -3.5283   -0.9756    0.0289 C.2       1 <0>         0.5599
     11 O1         -4.6259   -0.4537    0.0421 O.2       1 <0>        -0.5386
     12 N4         -3.4210   -2.3191    0.0198 N.am      1 <0>        -0.6963
     13 C8         -4.6273   -3.1503    0.0258 C.3       1 <0>         0.0547
     14 C9         -4.2349   -4.6053    0.0134 C.2       1 <0>         0.4921
     15 O2         -3.0567   -4.9188    0.0007 O.co2     1 <0>        -0.6889
     16 O3         -5.0956   -5.4688    0.0161 O.co2     1 <0>        -0.7028
     17 H1          0.9061    1.9379    0.0038 H         1 <0>         0.1067
     18 H2          0.9514   -0.5189   -0.0098 H         1 <0>         0.1377
     19 H3         -3.5097    4.3141    0.0758 H         1 <0>         0.1669
     20 H4         -2.5450   -2.7356    0.0093 H         1 <0>         0.4141
     21 H5         -5.2099   -2.9387    0.9225 H         1 <0>         0.0590
     22 H6         -5.2262   -2.9280   -0.8574 H         1 <0>         0.0590
@<TRIPOS>BOND
     1    1    2 ar
     2    1   17 1
     3    1    6 ar
     4    2    3 ar
     5    2   18 1
     6    3    4 ar
     7    4    5 ar
     8    4   10 1
     9    5    9 1
    10    5    6 ar
    11    6    7 1
    12    7    8 2
    13    8   19 1
    14    8    9 1
    15   10   11 2
    16   10   12 am
    17   12   13 1
    18   12   20 1
    19   13   14 1
    20   13   21 1
    21   13   22 1
    22   14   15 2
    23   14   16 1
@<TRIPOS>MOLECULE
ZINC40379392
   24    25     0     0     0
SMALL
USER_CHARGES

@<TRIPOS>ATOM
      1 C1         -0.0167    1.3767    0.0096 C.ar      1 <0>        -0.0806
      2 C2          0.0021   -0.0041    0.0020 C.ar      1 <0>         0.0719
      3 N1         -1.1119   -0.7078    0.0084 N.ar      1 <0>        -0.4342
      4 C3         -2.3105   -0.1365    0.0228 C.ar      1 <0>         0.0985
      5 C4         -2.4230    1.2557    0.0318 C.ar      1 <0>         0.0468
      6 C5         -1.2486    2.0362    0.0308 C.ar      1 <0>         0.0744
      7 N2         -1.6359    3.3329    0.0432 N.2       1 <0>        -0.4931
      8 C6         -2.9368    3.3987    0.0622 C.2       1 <0>         0.2867
      9 N3         -3.4690    2.1465    0.0471 N.pl3     1 <0>        -0.5762
     10 C7         -3.5283   -0.9756    0.0289 C.2       1 <0>         0.5851
     11 O1         -4.6259   -0.4537    0.0421 O.2       1 <0>        -0.5412
     12 N4         -3.4210   -2.3191    0.0198 N.am      1 <0>        -0.7023
     13 C8         -4.6273   -3.1503    0.0258 C.3       1 <0>         0.1232
     14 C9         -4.2349   -4.6053    0.0134 C.2       1 <0>         0.4726
     15 O2         -3.0673   -4.9160    0.0009 O.2       1 <0>        -0.5046
     16 O3         -5.1824   -5.5560    0.0164 O.3       1 <0>        -0.4986
     17 H1          0.9061    1.9379    0.0038 H         1 <0>         0.1514
     18 H2          0.9514   -0.5189   -0.0098 H         1 <0>         0.1748
     19 H3         -3.5097    4.3141    0.0758 H         1 <0>         0.2280
     20 H4         -2.5450   -2.7356    0.0093 H         1 <0>         0.4258
     21 H5         -5.2099   -2.9387    0.9225 H         1 <0>         0.1180
     22 H6         -5.2262   -2.9280   -0.8574 H         1 <0>         0.1180
     23 H7         -4.8344   -6.4582    0.0077 H         1 <0>         0.4170
     24 H8         -4.4130    1.9236    0.0545 H         1 <0>         0.4387
@<TRIPOS>BOND
     1    1    2 ar
     2    1   17 1
     3    1    6 ar
     4    2   18 1
     5    2    3 ar
     6    3    4 ar
     7    4    5 ar
     8    4   10 1
     9    5    9 1
    10    5    6 ar
    11    6    7 1
    12    7    8 2
    13    8   19 1
    14    8    9 1
    15    9   24 1
    16   10   11 2
    17   10   12 am
    18   12   13 1
    19   12   20 1
    20   13   14 1
    21   13   21 1
    22   13   22 1
    23   14   15 2
    24   14   16 1
    25   16   23 1
@<TRIPOS>MOLECULE
ZINC40410832
   48    49     0     0     0
SMALL
USER_CHARGES

@<TRIPOS>ATOM
      1 C1         -0.0187    1.5258    0.0104 C.3       1 <0>        -0.1407
      2 C2          0.0021   -0.0041    0.0020 C.3       1 <0>        -0.0301
      3 C3          0.7421   -0.5109    1.2415 C.3       1 <0>        -0.1372
      4 C4         -1.4333   -0.5336    0.0129 C.3       1 <0>        -0.1448
      5 C5          0.7074   -0.4901   -1.2379 C.ar      1 <0>        -0.0699
      6 C6          0.0361   -1.2843   -2.1485 C.ar      1 <0>        -0.1210
      7 C7          0.6831   -1.7301   -3.2859 C.ar      1 <0>        -0.1000
      8 C8          2.0014   -1.3813   -3.5127 C.ar      1 <0>        -0.0836
      9 C9          2.6724   -0.5863   -2.6025 C.ar      1 <0>        -0.0995
     10 C10         2.0241   -0.1370   -1.4673 C.ar      1 <0>        -0.1151
     11 C11         2.7070   -1.8681   -4.7521 C.3       1 <0>        -0.5882
     12 S1          2.4756   -0.6664   -6.0911 S.o2      1 <0>         2.4438
     13 O1          1.0957   -0.6294   -6.4284 O.2       1 <0>        -0.9221
     14 O2          3.1312    0.5414   -5.7294 O.2       1 <0>        -0.9201
     15 C12         3.3830   -1.4215   -7.4685 C.3       1 <0>        -0.6022
     16 C13         3.2875   -0.5315   -8.6809 C.2       1 <0>         0.4845
     17 O3          2.6663    0.5128   -8.6214 O.2       1 <0>        -0.5971
     18 N1          3.8807   -0.8870   -9.8131 N.2       1 <0>        -0.6116
     19 C14         3.7961   -0.0987  -10.8870 C.2       1 <0>         0.3218
     20 N2          4.3272   -0.2955  -12.1234 N.pl3     1 <0>        -0.2327
     21 C15         4.1177    0.6435  -13.0845 C.2       1 <0>         0.1504
     22 C16         3.3923    1.7156  -12.7470 C.2       1 <0>        -0.3218
     23 S2          3.0008    1.3747  -11.0411 S.3       1 <0>         0.1104
     24 C17         4.6803    0.4831  -14.4733 C.3       1 <0>        -0.1215
     25 C18         6.0977    0.9941  -14.5032 C.2       1 <0>         0.5103
     26 O4          6.6041    1.4467  -13.4906 O.co2     1 <0>        -0.6829
     27 O5          6.7381    0.9550  -15.5400 O.co2     1 <0>        -0.7173
     28 O6          5.0856   -1.4576  -12.4050 O.3       1 <0>        -0.6063
     29 H1          1.0039    1.9031    0.0027 H         1 <0>         0.0586
     30 H2         -0.5459    1.8868   -0.8726 H         1 <0>         0.0594
     31 H3         -0.5289    1.8773    0.9072 H         1 <0>         0.0566
     32 H4          0.2319   -0.1594    2.1383 H         1 <0>         0.0563
     33 H5          0.7568   -1.6008    1.2356 H         1 <0>         0.0556
     34 H6          1.7647   -0.1336    1.2338 H         1 <0>         0.0575
     35 H7         -1.9605   -0.1726   -0.8702 H         1 <0>         0.0611
     36 H8         -1.4185   -1.6235    0.0069 H         1 <0>         0.0584
     37 H9         -1.9435   -0.1821    0.9097 H         1 <0>         0.0562
     38 H10        -0.9938   -1.5568   -1.9713 H         1 <0>         0.1297
     39 H11         0.1588   -2.3512   -3.9970 H         1 <0>         0.1306
     40 H12         3.7024   -0.3141   -2.7796 H         1 <0>         0.1312
     41 H13         2.5473    0.4872   -0.7580 H         1 <0>         0.1245
     42 H14         3.7711   -1.9799   -4.5441 H         1 <0>         0.1408
     43 H15         2.2923   -2.8305   -5.0520 H         1 <0>         0.1403
     44 H16         4.4295   -1.5449   -7.1899 H         1 <0>         0.1468
     45 H17         2.9508   -2.3955   -7.6978 H         1 <0>         0.1459
     46 H18         3.1130    2.5654  -13.3520 H         1 <0>         0.1825
     47 H19         4.6682   -0.5709  -14.7507 H         1 <0>         0.0804
     48 H20         4.0742    1.0515  -15.1787 H         1 <0>         0.0724
@<TRIPOS>BOND
     1    1    2 1
     2    1   29 1
     3    1   30 1
     4    1   31 1
     5    2    3 1
     6    2    4 1
     7    2    5 1
     8    3   32 1
     9    3   33 1
    10    3   34 1
    11    4   35 1
    12    4   36 1
    13    4   37 1
    14    5   10 ar
    15    5    6 ar
    16    6    7 ar
    17    6   38 1
    18    7    8 ar
    19    7   39 1
    20    8    9 ar
    21    8   11 1
    22    9   10 ar
    23    9   40 1
    24   10   41 1
    25   11   12 1
    26   11   42 1
    27   11   43 1
    28   12   13 2
    29   12   14 2
    30   12   15 1
    31   15   16 1
    32   15   44 1
    33   15   45 1
    34   16   17 2
    35   16   18 1
    36   18   19 2
    37   19   23 1
    38   19   20 1
    39   20   21 1
    40   20   28 1
    41   21   22 2
    42   21   24 1
    43   22   23 1
    44   22   46 1
    45   24   25 1
    46   24   47 1
    47   24   48 1
    48   25   26 2
    49   25   27 1
@<TRIPOS>MOLECULE
ZINC40410832
   48    49     0     0     0
SMALL
USER_CHARGES

@<TRIPOS>ATOM
      1 C1         -0.2153    1.7007   -0.1149 C.3       1 <0>        -0.1414
      2 C2         -0.1014    0.1760   -0.0574 C.3       1 <0>        -0.0296
      3 C3          0.6609   -0.2312    1.2051 C.3       1 <0>        -0.1365
      4 C4         -1.5019   -0.4393   -0.0284 C.3       1 <0>        -0.1440
      5 C5          0.6395   -0.3185   -1.2730 C.ar      1 <0>        -0.0721
      6 C6          0.0230   -1.1905   -2.1508 C.ar      1 <0>        -0.1216
      7 C7          0.7026   -1.6441   -3.2659 C.ar      1 <0>        -0.1019
      8 C8          1.9984   -1.2255   -3.5033 C.ar      1 <0>        -0.0809
      9 C9          2.6145   -0.3528   -2.6260 C.ar      1 <0>        -0.0994
     10 C10         1.9335    0.1042   -1.5132 C.ar      1 <0>        -0.1139
     11 C11         2.7396   -1.7208   -4.7184 C.3       1 <0>        -0.5923
     12 S1          2.4432   -0.5938   -6.1085 S.o2      1 <0>         2.4359
     13 O1          1.0656   -0.6556   -6.4515 O.2       1 <0>        -0.9289
     14 O2          3.0219    0.6661   -5.7970 O.2       1 <0>        -0.8996
     15 C12         3.4029   -1.3502   -7.4493 C.3       1 <0>        -0.6207
     16 C13         3.2604   -0.5204   -8.6991 C.2       1 <0>         0.5331
     17 O3          2.5765    0.4856   -8.6866 O.2       1 <0>        -0.4945
     18 N1          3.8807   -0.8870   -9.8131 N.2       1 <0>        -0.6675
     19 C14         4.6687   -0.0210  -10.4542 C.2       1 <0>         0.3375
     20 N2          5.0586    1.2200  -10.0575 N.pl3     1 <0>        -0.2929
     21 C15         5.8738    1.9429  -10.8713 C.2       1 <0>         0.1772
     22 C16         6.2450    1.3787  -12.0259 C.2       1 <0>        -0.3289
     23 S2          5.4257   -0.2029  -11.9445 S.3       1 <0>         0.0740
     24 C17         6.3398    3.3239  -10.4880 C.3       1 <0>        -0.1229
     25 C18         5.2987    4.3356  -10.8923 C.2       1 <0>         0.5110
     26 O4          4.2733    3.9692  -11.4408 O.co2     1 <0>        -0.6797
     27 O5          5.4817    5.5205  -10.6708 O.co2     1 <0>        -0.7195
     28 O6          4.6230    1.7505   -8.8190 O.3       1 <0>        -0.5977
     29 H1          0.7825    2.1391   -0.1356 H         1 <0>         0.0592
     30 H2         -0.7583    1.9908   -1.0144 H         1 <0>         0.0599
     31 H3         -0.7511    2.0584    0.7643 H         1 <0>         0.0562
     32 H4          0.1251    0.1265    2.0843 H         1 <0>         0.0557
     33 H5          0.7420   -1.3174    1.2460 H         1 <0>         0.0549
     34 H6          1.6587    0.2071    1.1844 H         1 <0>         0.0576
     35 H7         -2.0449   -0.1491   -0.9278 H         1 <0>         0.0610
     36 H8         -1.4207   -1.5255    0.0126 H         1 <0>         0.0578
     37 H9         -2.0377   -0.0816    0.8508 H         1 <0>         0.0557
     38 H10        -0.9894   -1.5176   -1.9653 H         1 <0>         0.1290
     39 H11         0.2212   -2.3259   -3.9513 H         1 <0>         0.1293
     40 H12         3.6271   -0.0260   -2.8113 H         1 <0>         0.1315
     41 H13         2.4135    0.7889   -0.8298 H         1 <0>         0.1246
     42 H14         3.8073   -1.7584   -4.5024 H         1 <0>         0.1381
     43 H15         2.3860   -2.7187   -4.9779 H         1 <0>         0.1364
     44 H16         4.4534   -1.3974   -7.1623 H         1 <0>         0.1402
     45 H17         3.0321   -2.3577   -7.6378 H         1 <0>         0.1395
     46 H18         6.8795    1.7765  -12.8041 H         1 <0>         0.1826
     47 H19         6.4916    3.3698   -9.4096 H         1 <0>         0.0796
     48 H20         7.2781    3.5449  -10.9967 H         1 <0>         0.0686
@<TRIPOS>BOND
     1    1    2 1
     2    1   29 1
     3    1   30 1
     4    1   31 1
     5    2    3 1
     6    2    4 1
     7    2    5 1
     8    3   32 1
     9    3   33 1
    10    3   34 1
    11    4   35 1
    12    4   36 1
    13    4   37 1
    14    5   10 ar
    15    5    6 ar
    16    6    7 ar
    17    6   38 1
    18    7    8 ar
    19    7   39 1
    20    8    9 ar
    21    8   11 1
    22    9   10 ar
    23    9   40 1
    24   10   41 1
    25   11   12 1
    26   11   42 1
    27   11   43 1
    28   12   13 2
    29   12   14 2
    30   12   15 1
    31   15   16 1
    32   15   44 1
    33   15   45 1
    34   16   17 2
    35   16   18 1
    36   18   19 2
    37   19   23 1
    38   19   20 1
    39   20   21 1
    40   20   28 1
    41   21   22 2
    42   21   24 1
    43   22   23 1
    44   22   46 1
    45   24   25 1
    46   24   47 1
    47   24   48 1
    48   25   26 2
    49   25   27 1
@<TRIPOS>MOLECULE
ZINC00895030
   12    11     0     0     0
SMALL
USER_CHARGES

@<TRIPOS>ATOM
      1 C1         -0.0187    1.5258    0.0104 C.3       1 <0>        -0.1530
      2 C2          0.0021   -0.0041    0.0020 C.3       1 <0>        -0.1530
      3 C3         -1.4117   -0.5257    0.0127 C.2       1 <0>         0.4872
      4 O1         -2.3491    0.2539    0.0259 O.co2     1 <0>        -0.7091
      5 O2         -1.6182   -1.7273    0.0082 O.co2     1 <0>        -0.7267
      6 C4          1.3951    2.0474   -0.0003 C.2       1 <0>         0.4872
      7 O3          2.3325    1.2678   -0.0134 O.co2     1 <0>        -0.7091
      8 O4          1.6016    3.2490    0.0042 O.co2     1 <0>        -0.7267
      9 H1         -0.5459    1.8868   -0.8726 H         1 <0>         0.0508
     10 H2         -0.5289    1.8773    0.9072 H         1 <0>         0.0508
     11 H3          0.5123   -0.3556   -0.8948 H         1 <0>         0.0508
     12 H4          0.5293   -0.3651    0.8851 H         1 <0>         0.0508
@<TRIPOS>BOND
     1    1    2 1
     2    1    6 1
     3    1    9 1
     4    1   10 1
     5    2    3 1
     6    2   11 1
     7    2   12 1
     8    3    4 2
     9    3    5 1
    10    6    7 2
    11    6    8 1
@<TRIPOS>MOLECULE
ZINC00895030
   13    12     0     0     0
SMALL
USER_CHARGES

@<TRIPOS>ATOM
      1 C1         -0.0187    1.5258    0.0104 C.3       1 <0>        -0.1733
      2 C2          0.0021   -0.0041    0.0020 C.3       1 <0>        -0.0896
      3 C3         -1.4117   -0.5257    0.0127 C.2       1 <0>         0.4691
      4 O1         -2.3406    0.2469    0.0257 O.2       1 <0>        -0.5239
      5 O2         -1.6391   -1.8486    0.0078 O.3       1 <0>        -0.5135
      6 C4          1.3951    2.0474   -0.0003 C.2       1 <0>         0.4923
      7 O3          2.3325    1.2678   -0.0134 O.co2     1 <0>        -0.6987
      8 O4          1.6016    3.2490    0.0042 O.co2     1 <0>        -0.6992
      9 H1         -0.5459    1.8868   -0.8726 H         1 <0>         0.0661
     10 H2         -0.5289    1.8773    0.9072 H         1 <0>         0.0661
     11 H3          0.5123   -0.3556   -0.8948 H         1 <0>         0.1044
     12 H4          0.5293   -0.3651    0.8851 H         1 <0>         0.1044
     13 H5         -2.5763   -2.0866    0.0155 H         1 <0>         0.3958
@<TRIPOS>BOND
     1    1    2 1
     2    1    6 1
     3    1    9 1
     4    1   10 1
     5    2    3 1
     6    2   11 1
     7    2   12 1
     8    3    4 2
     9    3    5 1
    10    5   13 1
    11    6    7 2
    12    6    8 1
@<TRIPOS>MOLECULE
ZINC02044729
   15    15     0     0     0
SMALL
USER_CHARGES

@<TRIPOS>ATOM
      1 C1         -0.0127    1.0858    0.0080 C.3       1 <0>         0.0203
      2 C2         -0.7591    1.5926    1.2204 C.2       1 <0>        -0.2033
      3 C3         -1.9634    1.9701    0.8625 C.2       1 <0>        -0.1059
      4 C4         -2.1391    1.7536   -0.6227 C.3       1 <0>        -0.0104
      5 H1         -2.7232    0.8518   -0.8064 H         1 <0>         0.1543
      6 C5         -2.8113    2.9485   -1.2485 C.2       1 <0>         0.4638
      7 O1         -2.2207    3.6149   -2.0652 O.co2     1 <0>        -0.6128
      8 H2          0.0021   -0.0041    0.0020 H         1 <0>         0.1353
      9 H3          1.0048    1.4767    0.0004 H         1 <0>         0.1354
     10 H4         -0.3620    1.6368    2.2237 H         1 <0>         0.1682
     11 H5         -2.7132    2.3733    1.5270 H         1 <0>         0.1699
     12 N1         -0.7827    1.5867   -1.1189 N.4       1 <0>        -0.4906
     13 H6         -0.7648    0.9126   -1.8931 H         1 <0>         0.4336
     14 H7         -0.4052    2.4862   -1.4393 H         1 <0>         0.4377
     15 O2         -4.0660    3.2725   -0.8985 O.co2     1 <0>        -0.6954
@<TRIPOS>BOND
     1    1    2 1
     2    1    8 1
     3    1    9 1
     4    1   12 1
     5    2    3 2
     6    2   10 1
     7    3    4 1
     8    3   11 1
     9    4    5 1
    10    4    6 1
    11    4   12 1
    12    6    7 2
    13    6   15 1
    14   12   13 1
    15   12   14 1
@<TRIPOS>MOLECULE
ZINC01534133
   13    12     0     0     0
SMALL
USER_CHARGES
2-(carboxyformyl)aminoacetic acid
@<TRIPOS>ATOM
      1 C1         -1.2896    1.6810    0.0173 C.3       1 <0>         0.0748
      2 C2         -2.4216    0.6862    0.0173 C.2       1 <0>         0.4614
      3 O1         -2.1848   -0.4985    0.0097 O.co2     1 <0>        -0.6315
      4 N1         -0.0111    0.9658    0.0074 N.am      1 <0>        -0.6984
      5 C3          1.1468    1.6555   -0.0000 C.2       1 <0>         0.4698
      6 O2          1.1304    2.8689    0.0067 O.2       1 <0>        -0.5603
      7 C4          2.4509    0.9260   -0.0164 C.2       1 <0>         0.4639
      8 O3          2.4674   -0.2864   -0.0230 O.co2     1 <0>        -0.6168
      9 H1         -1.3516    2.3020    0.9110 H         1 <0>         0.0652
     10 H2         -1.3601    2.3116   -0.8689 H         1 <0>         0.0651
     11 H3          0.0021   -0.0041    0.0020 H         1 <0>         0.4124
     12 O4         -3.6931    1.1164    0.0256 O.co2     1 <0>        -0.7745
     13 O5          3.6068    1.6145   -0.0237 O.co2     1 <0>        -0.7312
@<TRIPOS>BOND
     1    1    2 1
     2    1    4 1
     3    1    9 1
     4    1   10 1
     5    2    3 2
     6    2   12 1
     7    4    5 am
     8    4   11 1
     9    5    6 2
    10    5    7 1
    11    7    8 2
    12    7   13 1
