@<TRIPOS>MOLECULE
ZINC58563818
   86    89     0     0     0
SMALL
USER_CHARGES

@<TRIPOS>ATOM
      1 C1         -1.8150   -6.1796   -1.9316 C.3       1 <0>        -0.0581
      2 N1         -1.3212   -4.8057   -1.7687 N.4       1 <0>        -0.3734
      3 C2         -1.3378   -4.4756   -0.3454 C.3       1 <0>        -0.0115
      4 C3         -1.5501   -2.9870   -0.1806 C.3       1 <0>        -0.1645
      5 C4         -0.1850   -2.2840   -0.0689 C.3       1 <0>         0.1102
      6 N2          0.7949   -2.8755   -1.0023 N.pl3     1 <0>        -0.5804
      7 C5          0.4468   -3.2488   -2.3578 C.3       1 <0>         0.0716
      8 C6         -0.0547   -4.7111   -2.3871 C.3       1 <0>        -0.0502
      9 C7          2.0921   -3.0810   -0.5660 C.ar      1 <0>         0.6735
     10 N3          2.9361   -3.7061   -1.3642 N.ar      1 <0>        -0.5780
     11 C8          4.2026   -3.9246   -0.9767 C.ar      1 <0>         0.2118
     12 C9          5.1223   -4.5850   -1.8008 C.ar      1 <0>        -0.2303
     13 C10         6.4108   -4.7843   -1.3567 C.ar      1 <0>         0.2272
     14 C11         6.8091   -4.3339   -0.0906 C.ar      1 <0>         0.1315
     15 C12         5.9285   -3.6877    0.7291 C.ar      1 <0>        -0.1247
     16 C13         4.6125   -3.4718    0.3014 C.ar      1 <0>        -0.1787
     17 C14         3.6627   -2.8068    1.1138 C.ar      1 <0>         0.5592
     18 N4          2.4375   -2.6353    0.6384 N.ar      1 <0>        -0.5892
     19 N5          4.0056   -2.3441    2.3673 N.pl3     1 <0>        -0.6502
     20 C15         3.0085   -1.6583    3.1929 C.3       1 <0>         0.1284
     21 C16         2.9738   -0.1721    2.8252 C.3       1 <0>        -0.1633
     22 C17         1.9885    0.5524    3.7449 C.3       1 <0>        -0.0025
     23 N6          2.4157    0.4021    5.1411 N.4       1 <0>        -0.3890
     24 C18         2.3824   -1.0149    5.5224 C.3       1 <0>        -0.0015
     25 C19         3.3828   -1.7998    4.6711 C.3       1 <0>        -0.1633
     26 C20         1.5114    1.1637    6.0130 C.3       1 <0>        -0.0506
     27 O1          8.0868   -4.5432    0.3265 O.3       1 <0>        -0.2835
     28 C21         8.4321   -4.0609    1.6266 C.3       1 <0>         0.0136
     29 O2          7.3050   -5.4246   -2.1542 O.3       1 <0>        -0.2661
     30 C22         6.8385   -5.8600   -3.4328 C.3       1 <0>         0.0485
     31 C23         7.9775   -6.5545   -4.1819 C.3       1 <0>         0.0625
     32 O3          8.3463   -7.7479   -3.4876 O.3       1 <0>        -0.3987
     33 C24         9.4080   -8.4763   -4.1074 C.3       1 <0>         0.0287
     34 C25         9.7173   -9.7275   -3.2828 C.3       1 <0>        -0.0043
     35 N7          8.5570  -10.6282   -3.3058 N.4       1 <0>        -0.3864
     36 C26         8.3555  -11.1324   -4.6708 C.3       1 <0>        -0.0547
     37 C27         8.7957  -11.7574   -2.3970 C.3       1 <0>        -0.0495
     38 H1         -1.1181   -6.8742   -1.4626 H         1 <0>         0.1234
     39 H2         -2.7933   -6.2724   -1.4599 H         1 <0>         0.1368
     40 H3         -1.9001   -6.4116   -2.9932 H         1 <0>         0.1338
     41 H4         -2.1487   -5.0152    0.1439 H         1 <0>         0.1498
     42 H5         -0.3868   -4.7597    0.1052 H         1 <0>         0.1235
     43 H6         -2.0891   -2.5988   -1.0448 H         1 <0>         0.1028
     44 H7         -2.1299   -2.8004    0.7234 H         1 <0>         0.1404
     45 H8         -0.3072   -1.2262   -0.3017 H         1 <0>         0.1071
     46 H9          0.1867   -2.3843    0.9508 H         1 <0>         0.1196
     47 H10        -0.3393   -2.5889   -2.7248 H         1 <0>         0.1421
     48 H11         1.3251   -3.1545   -2.9965 H         1 <0>         0.1258
     49 H12         0.6545   -5.3466   -1.8568 H         1 <0>         0.1259
     50 H13        -0.1322   -5.0456   -3.4216 H         1 <0>         0.1646
     51 H14         4.8233   -4.9358   -2.7775 H         1 <0>         0.1685
     52 H15         6.2455   -3.3449    1.7030 H         1 <0>         0.1605
     53 H16         4.9068   -2.4729    2.7020 H         1 <0>         0.4325
     54 H17         2.0270   -2.1004    3.0216 H         1 <0>         0.1207
     55 H18         3.9686    0.2564    2.9477 H         1 <0>         0.0997
     56 H19         2.6539   -0.0608    1.7892 H         1 <0>         0.1171
     57 H20         1.9613    1.6108    3.4857 H         1 <0>         0.1431
     58 H21         0.9942    0.1233    3.6214 H         1 <0>         0.1332
     59 H22         2.6458   -1.1137    6.5754 H         1 <0>         0.1474
     60 H23         1.3796   -1.4106    5.3610 H         1 <0>         0.1353
     61 H24         3.3552   -2.8519    4.9545 H         1 <0>         0.1256
     62 H25         4.3860   -1.4050    4.8319 H         1 <0>         0.1034
     63 H26         0.4950    0.7861    5.9008 H         1 <0>         0.1254
     64 H27         1.8277    1.0527    7.0502 H         1 <0>         0.1321
     65 H28         1.5404    2.2172    5.7350 H         1 <0>         0.1311
     66 H29         9.4767   -4.2924    1.8344 H         1 <0>         0.1255
     67 H30         8.2846   -2.9816    1.6647 H         1 <0>         0.0669
     68 H31         7.7983   -4.5407    2.3723 H         1 <0>         0.0657
     69 H32         6.0122   -6.5583   -3.2997 H         1 <0>         0.0838
     70 H33         6.4974   -4.9990   -4.0077 H         1 <0>         0.0984
     71 H34         7.6485   -6.8075   -5.1898 H         1 <0>         0.0932
     72 H35         8.8368   -5.8861   -4.2372 H         1 <0>         0.0835
     73 H36         9.1087   -8.7692   -5.1137 H         1 <0>         0.0813
     74 H37        10.2969   -7.8478   -4.1611 H         1 <0>         0.1043
     75 H38        10.5819  -10.2378   -3.7073 H         1 <0>         0.1497
     76 H39         9.9339   -9.4402   -2.2539 H         1 <0>         0.1402
     77 H40         9.2439  -11.6760   -4.9922 H         1 <0>         0.1284
     78 H41         7.4946  -11.8007   -4.6878 H         1 <0>         0.1269
     79 H42         8.1784  -10.2945   -5.3451 H         1 <0>         0.1201
     80 H43         9.6312  -12.3515   -2.7672 H         1 <0>         0.1274
     81 H44         9.0312  -11.3795   -1.4021 H         1 <0>         0.1238
     82 H45         7.9017  -12.3790   -2.3473 H         1 <0>         0.1258
     83 H46         3.3553    0.7550    5.2441 H         1 <0>         0.4293
     84 H47         2.6396   -4.0099   -2.2363 H         1 <0>         0.4339
     85 H48         7.7347  -10.1250   -3.0083 H         1 <0>         0.4268
     86 H49        -1.9555   -4.1823   -2.2452 H         1 <0>         0.4296
@<TRIPOS>BOND
     1    1    2 1
     2    1   38 1
     3    1   39 1
     4    1   40 1
     5    2    8 1
     6    2    3 1
     7    2   86 1
     8    3    4 1
     9    3   41 1
    10    3   42 1
    11    4    5 1
    12    4   43 1
    13    4   44 1
    14    5    6 1
    15    5   45 1
    16    5   46 1
    17    6    7 1
    18    6    9 1
    19    7    8 1
    20    7   47 1
    21    7   48 1
    22    8   49 1
    23    8   50 1
    24    9   18 ar
    25    9   10 ar
    26   10   11 ar
    27   10   84 1
    28   11   16 ar
    29   11   12 ar
    30   12   13 ar
    31   12   51 1
    32   13   14 ar
    33   13   29 1
    34   14   15 ar
    35   14   27 1
    36   15   16 ar
    37   15   52 1
    38   16   17 ar
    39   17   18 ar
    40   17   19 1
    41   19   20 1
    42   19   53 1
    43   20   25 1
    44   20   21 1
    45   20   54 1
    46   21   22 1
    47   21   55 1
    48   21   56 1
    49   22   23 1
    50   22   57 1
    51   22   58 1
    52   23   24 1
    53   23   26 1
    54   23   83 1
    55   24   25 1
    56   24   59 1
    57   24   60 1
    58   25   61 1
    59   25   62 1
    60   26   63 1
    61   26   64 1
    62   26   65 1
    63   27   28 1
    64   28   66 1
    65   28   67 1
    66   28   68 1
    67   29   30 1
    68   30   31 1
    69   30   69 1
    70   30   70 1
    71   31   32 1
    72   31   71 1
    73   31   72 1
    74   32   33 1
    75   33   34 1
    76   33   73 1
    77   33   74 1
    78   34   35 1
    79   34   75 1
    80   34   76 1
    81   35   36 1
    82   35   37 1
    83   35   85 1
    84   36   77 1
    85   36   78 1
    86   36   79 1
    87   37   80 1
    88   37   81 1
    89   37   82 1
@<TRIPOS>MOLECULE
ZINC58638344
   86    90     0     0     0
SMALL
USER_CHARGES

@<TRIPOS>ATOM
      1 C1         -0.0187    1.5258    0.0104 C.3       1 <0>        -0.1851
      2 C2          0.0021   -0.0041    0.0020 C.3       1 <0>         0.0231
      3 C3          0.7421   -0.5109    1.2415 C.3       1 <0>        -0.1851
      4 N1         -1.3761   -0.5125    0.0124 N.4       1 <0>        -0.3832
      5 C4         -2.0874   -0.0183   -1.1726 C.3       1 <0>        -0.0056
      6 C5         -3.5461   -0.4781   -1.1253 C.3       1 <0>        -0.1573
      7 C6         -3.5926   -2.0086   -1.1015 C.3       1 <0>         0.1456
      8 C7         -2.7851   -2.5155    0.0969 C.3       1 <0>        -0.1587
      9 C8         -1.3546   -1.9802    0.0044 C.3       1 <0>        -0.0074
     10 N2         -4.9827   -2.4547   -0.9796 N.pl3     1 <0>        -0.6999
     11 C9         -5.3496   -3.7025   -1.4394 C.ar      1 <0>         0.4726
     12 C10        -6.6882   -4.1499   -1.3364 C.ar      1 <0>        -0.1888
     13 C11        -7.6931   -3.3565   -0.7693 C.ar      1 <0>        -0.1434
     14 C12        -8.9702   -3.8343   -0.6936 C.ar      1 <0>         0.1094
     15 C13        -9.2871   -5.1118   -1.1772 C.ar      1 <0>         0.1631
     16 C14        -8.3173   -5.9115   -1.7393 C.ar      1 <0>        -0.1802
     17 C15        -7.0010   -5.4413   -1.8276 C.ar      1 <0>         0.2042
     18 N3         -6.0195   -6.1813   -2.3669 N.ar      1 <0>        -0.5331
     19 C16        -4.7958   -5.7142   -2.4359 C.ar      1 <0>         0.3809
     20 N4         -4.4582   -4.5126   -1.9949 N.ar      1 <0>        -0.5861
     21 C17        -3.7276   -6.5819   -3.0499 C.3       1 <0>        -0.0160
     22 C18        -4.1035   -6.9062   -4.4972 C.3       1 <0>        -0.1052
     23 C19        -3.0190   -7.7872   -5.1206 C.3       1 <0>        -0.1191
     24 C20        -2.8961   -9.0866   -4.3222 C.3       1 <0>        -0.1226
     25 C21        -2.5202   -8.7623   -2.8750 C.3       1 <0>        -0.1189
     26 C22        -3.6047   -7.8813   -2.2516 C.3       1 <0>        -0.1045
     27 O1        -10.5646   -5.5654   -1.0899 O.3       1 <0>        -0.2934
     28 C23       -10.8244   -6.8748   -1.6000 C.3       1 <0>         0.0569
     29 C24       -12.3059   -7.2093   -1.4156 C.3       1 <0>        -0.1490
     30 C25       -12.5840   -8.6112   -1.9619 C.3       1 <0>        -0.0016
     31 N5        -14.0065   -8.9324   -1.7848 N.4       1 <0>        -0.3937
     32 C26       -14.8380   -8.0835   -2.6759 C.3       1 <0>        -0.0091
     33 C27       -16.1567   -8.8870   -2.8018 C.3       1 <0>        -0.1460
     34 C28       -15.6659  -10.3523   -2.8457 C.3       1 <0>        -0.1459
     35 C29       -14.2693  -10.3282   -2.1972 C.3       1 <0>        -0.0082
     36 O2         -9.9452   -3.0630   -0.1427 O.3       1 <0>        -0.3014
     37 C30        -9.5599   -1.7715    0.3323 C.3       1 <0>         0.0225
     38 H1          1.0039    1.9031    0.0027 H         1 <0>         0.1077
     39 H2         -0.5459    1.8868   -0.8726 H         1 <0>         0.0819
     40 H3         -0.5289    1.8773    0.9072 H         1 <0>         0.0812
     41 H4          0.5123   -0.3556   -0.8948 H         1 <0>         0.1379
     42 H5          0.2319   -0.1594    2.1383 H         1 <0>         0.0810
     43 H6          0.7568   -1.6008    1.2356 H         1 <0>         0.0822
     44 H7          1.7647   -0.1336    1.2338 H         1 <0>         0.1077
     45 H8         -2.0506    1.0710   -1.1898 H         1 <0>         0.1398
     46 H9         -1.6120   -0.4112   -2.0713 H         1 <0>         0.1338
     47 H10        -4.0225   -0.0855   -0.2270 H         1 <0>         0.0930
     48 H11        -4.0720   -0.1116   -2.0069 H         1 <0>         0.1194
     49 H12        -3.1623   -2.4007   -2.0230 H         1 <0>         0.1125
     50 H13        -3.2458   -2.1652    1.0206 H         1 <0>         0.0876
     51 H14        -2.7671   -3.6053    0.0890 H         1 <0>         0.1177
     52 H15        -0.8948   -2.3313   -0.9194 H         1 <0>         0.1332
     53 H16        -0.7769   -2.3393    0.8560 H         1 <0>         0.1369
     54 H17        -5.6451   -1.8726   -0.5755 H         1 <0>         0.4131
     55 H18        -7.4592   -2.3714   -0.3932 H         1 <0>         0.1388
     56 H19        -8.5697   -6.8943   -2.1091 H         1 <0>         0.1532
     57 H20        -2.7748   -6.0528   -3.0318 H         1 <0>         0.0928
     58 H21        -5.0563   -7.4353   -4.5153 H         1 <0>         0.0742
     59 H22        -4.1910   -5.9805   -5.0660 H         1 <0>         0.0586
     60 H23        -3.2868   -8.0182   -6.1516 H         1 <0>         0.0675
     61 H24        -2.0662   -7.2581   -5.1025 H         1 <0>         0.0632
     62 H25        -3.8489   -9.6156   -4.3403 H         1 <0>         0.0637
     63 H26        -2.1235   -9.7142   -4.7663 H         1 <0>         0.0659
     64 H27        -2.4326   -9.6880   -2.3062 H         1 <0>         0.0672
     65 H28        -1.5674   -8.2332   -2.8569 H         1 <0>         0.0630
     66 H29        -3.3369   -7.6503   -1.2205 H         1 <0>         0.0576
     67 H30        -4.5575   -8.4104   -2.2697 H         1 <0>         0.0743
     68 H31       -10.5736   -6.9079   -2.6603 H         1 <0>         0.0783
     69 H32       -10.2178   -7.6020   -1.0603 H         1 <0>         0.0785
     70 H33       -12.5567   -7.1761   -0.3554 H         1 <0>         0.1005
     71 H34       -12.9125   -6.4821   -1.9554 H         1 <0>         0.1001
     72 H35       -12.3333   -8.6443   -3.0221 H         1 <0>         0.1339
     73 H36       -11.9774   -9.3384   -1.4221 H         1 <0>         0.1345
     74 H37       -15.0221   -7.1111   -2.2191 H         1 <0>         0.1361
     75 H38       -14.3633   -7.9682   -3.6503 H         1 <0>         0.1345
     76 H39       -16.7947   -8.7198   -1.9339 H         1 <0>         0.0991
     77 H40       -16.6800   -8.6278   -3.7222 H         1 <0>         0.1178
     78 H41       -16.3372  -10.9935   -2.2744 H         1 <0>         0.1066
     79 H42       -15.5981  -10.6979   -3.8772 H         1 <0>         0.1048
     80 H43       -13.5189  -10.6495   -2.9195 H         1 <0>         0.1315
     81 H44       -14.2534  -10.9822   -1.3254 H         1 <0>         0.1337
     82 H45        -8.8005   -1.8808    1.1066 H         1 <0>         0.0571
     83 H46        -9.1552   -1.1864   -0.4935 H         1 <0>         0.0578
     84 H47       -10.4301   -1.2621    0.7463 H         1 <0>         0.1102
     85 H48       -14.2769   -8.7972   -0.8222 H         1 <0>         0.4284
     86 H49        -1.8467   -0.1886    0.8441 H         1 <0>         0.4199
@<TRIPOS>BOND
     1    1    2 1
     2    1   38 1
     3    1   39 1
     4    1   40 1
     5    2    3 1
     6    2    4 1
     7    2   41 1
     8    3   42 1
     9    3   43 1
    10    3   44 1
    11    4    9 1
    12    4    5 1
    13    4   86 1
    14    5    6 1
    15    5   45 1
    16    5   46 1
    17    6    7 1
    18    6   47 1
    19    6   48 1
    20    7    8 1
    21    7   10 1
    22    7   49 1
    23    8    9 1
    24    8   50 1
    25    8   51 1
    26    9   52 1
    27    9   53 1
    28   10   11 1
    29   10   54 1
    30   11   20 ar
    31   11   12 ar
    32   12   17 ar
    33   12   13 ar
    34   13   14 ar
    35   13   55 1
    36   14   15 ar
    37   14   36 1
    38   15   16 ar
    39   15   27 1
    40   16   17 ar
    41   16   56 1
    42   17   18 ar
    43   18   19 ar
    44   19   20 ar
    45   19   21 1
    46   21   26 1
    47   21   22 1
    48   21   57 1
    49   22   23 1
    50   22   58 1
    51   22   59 1
    52   23   24 1
    53   23   60 1
    54   23   61 1
    55   24   25 1
    56   24   62 1
    57   24   63 1
    58   25   26 1
    59   25   64 1
    60   25   65 1
    61   26   66 1
    62   26   67 1
    63   27   28 1
    64   28   29 1
    65   28   68 1
    66   28   69 1
    67   29   30 1
    68   29   70 1
    69   29   71 1
    70   30   31 1
    71   30   72 1
    72   30   73 1
    73   31   35 1
    74   31   32 1
    75   31   85 1
    76   32   33 1
    77   32   74 1
    78   32   75 1
    79   33   34 1
    80   33   76 1
    81   33   77 1
    82   34   35 1
    83   34   78 1
    84   34   79 1
    85   35   80 1
    86   35   81 1
    87   36   37 1
    88   37   82 1
    89   37   83 1
    90   37   84 1
@<TRIPOS>MOLECULE
ZINC72141366
   67    71     0     0     0
SMALL
USER_CHARGES

@<TRIPOS>ATOM
      1 C1          1.9389   -0.1236   -1.9577 C.3       1 <0>         0.0226
      2 O1          1.0737   -0.7929   -1.0383 O.3       1 <0>        -0.3105
      3 C2          1.6545   -1.3798    0.0386 C.ar      1 <0>         0.1664
      4 C3          3.0323   -1.3068    0.2087 C.ar      1 <0>        -0.2223
      5 C4          3.6256   -1.9008    1.2998 C.ar      1 <0>        -0.0090
      6 C5          2.8405   -2.5782    2.2374 C.ar      1 <0>        -0.1660
      7 C6          1.4553   -2.6492    2.0625 C.ar      1 <0>        -0.0190
      8 C7          0.8695   -2.0475    0.9715 C.ar      1 <0>        -0.1654
      9 C8          3.4717   -3.2164    3.4073 C.2       1 <0>         0.5106
     10 O2          4.6760   -3.1539    3.5574 O.2       1 <0>        -0.4895
     11 O3          2.7131   -3.8688    4.3100 O.3       1 <0>        -0.2933
     12 C9          3.3447   -4.5293    5.3160 C.ar      1 <0>         0.0806
     13 C10         3.8872   -3.8215    6.3788 C.ar      1 <0>        -0.1153
     14 C11         4.5283   -4.4953    7.4003 C.ar      1 <0>        -0.0945
     15 C12         4.6296   -5.8738    7.3641 C.ar      1 <0>        -0.0731
     16 C13         4.0897   -6.5814    6.3060 C.ar      1 <0>        -0.0988
     17 C14         3.4431   -5.9129    5.2847 C.ar      1 <0>        -0.1140
     18 C15         5.3299   -6.6061    8.4796 C.3       1 <0>        -0.1001
     19 C16         4.3173   -6.9644    9.5691 C.3       1 <0>         0.1367
     20 N1          4.9981   -7.6763   10.6535 N.pl3     1 <0>        -0.4802
     21 C17         5.1739   -9.0490   10.7378 C.ar      1 <0>         0.0727
     22 C18         4.8015  -10.1024    9.9086 C.ar      1 <0>        -0.1164
     23 C19         5.1130  -11.3875   10.2484 C.ar      1 <0>        -0.0625
     24 C20         5.8098  -11.6555   11.4331 C.ar      1 <0>        -0.1126
     25 C21         6.1886  -10.6042   12.2722 C.ar      1 <0>        -0.0634
     26 C22         5.8705   -9.3035   11.9243 C.ar      1 <0>         0.0601
     27 N2          6.1024   -8.0745   12.5353 N.pl3     1 <0>        -0.6011
     28 C23         5.5707   -7.1022   11.7466 C.2       1 <0>         0.6459
     29 N3          5.6026   -5.8004   12.0037 N.2       1 <0>        -0.6702
     30 C24         6.2943   -5.3426   13.0533 C.2       1 <0>         0.5365
     31 O4          6.8148   -6.1256   13.8283 O.2       1 <0>        -0.5846
     32 C25         6.4273   -3.8839   13.2734 C.ar      1 <0>        -0.0688
     33 C26         5.8277   -2.9851   12.3912 C.ar      1 <0>        -0.0620
     34 C27         5.9549   -1.6274   12.6018 C.ar      1 <0>        -0.0875
     35 C28         6.6753   -1.1570   13.6852 C.ar      1 <0>        -0.1679
     36 C29         7.2723   -2.0435   14.5637 C.ar      1 <0>        -0.0839
     37 C30         7.1479   -3.4035   14.3668 C.ar      1 <0>        -0.0712
     38 C31         6.8106    0.3271   13.9091 C.3       1 <0>         0.5078
     39 F1          5.7563    0.7756   14.7119 F         1 <0>        -0.1762
     40 F2          8.0275    0.5936   14.5457 F         1 <0>        -0.1769
     41 F3          6.7736    0.9898   12.6776 F         1 <0>        -0.1766
     42 C32         6.1427  -13.0438   11.7946 C.2       1 <0>         0.5218
     43 O5          5.8104  -13.9637   11.0598 O.co2     1 <0>        -0.6803
     44 O6          6.7514  -13.2772   12.8297 O.co2     1 <0>        -0.6810
     45 H1          2.6576   -0.8352   -2.3641 H         1 <0>         0.0604
     46 H2          1.3482    0.3002   -2.7698 H         1 <0>         0.1045
     47 H3          2.4710    0.6749   -1.4404 H         1 <0>         0.0602
     48 H4          3.6381   -0.7836   -0.5164 H         1 <0>         0.1397
     49 H5          4.6961   -1.8439    1.4310 H         1 <0>         0.1422
     50 H6          0.8452   -3.1718    2.7844 H         1 <0>         0.1480
     51 H7         -0.2011   -2.0978    0.8382 H         1 <0>         0.1424
     52 H8          3.8087   -2.7448    6.4074 H         1 <0>         0.1280
     53 H9          4.9511   -3.9447    8.2277 H         1 <0>         0.1348
     54 H10         4.1705   -7.6581    6.2799 H         1 <0>         0.1348
     55 H11         3.0180   -6.4664    4.4604 H         1 <0>         0.1323
     56 H12         5.7808   -7.5181    8.0886 H         1 <0>         0.0834
     57 H13         6.1069   -5.9685    8.9012 H         1 <0>         0.0872
     58 H14         3.8663   -6.0524    9.9602 H         1 <0>         0.1057
     59 H15         3.5402   -7.6020    9.1475 H         1 <0>         0.0952
     60 H16         4.2639   -9.9029    8.9934 H         1 <0>         0.1272
     61 H17         4.8205  -12.2009    9.6009 H         1 <0>         0.1432
     62 H18         6.7264  -10.8059   13.1867 H         1 <0>         0.1394
     63 H19         5.2654   -3.3511   11.5449 H         1 <0>         0.1517
     64 H20         5.4914   -0.9305   11.9192 H         1 <0>         0.1390
     65 H21         7.8334   -1.6703   15.4077 H         1 <0>         0.1393
     66 H22         7.6106   -4.0946   15.0557 H         1 <0>         0.1450
     67 H23         6.5660   -7.9352   13.3759 H         1 <0>         0.4481
@<TRIPOS>BOND
     1    1    2 1
     2    1   45 1
     3    1   46 1
     4    1   47 1
     5    2    3 1
     6    3    8 ar
     7    3    4 ar
     8    4    5 ar
     9    4   48 1
    10    5    6 ar
    11    5   49 1
    12    6    7 ar
    13    6    9 1
    14    7    8 ar
    15    7   50 1
    16    8   51 1
    17    9   10 2
    18    9   11 1
    19   11   12 1
    20   12   17 ar
    21   12   13 ar
    22   13   14 ar
    23   13   52 1
    24   14   15 ar
    25   14   53 1
    26   15   16 ar
    27   15   18 1
    28   16   17 ar
    29   16   54 1
    30   17   55 1
    31   18   19 1
    32   18   56 1
    33   18   57 1
    34   19   20 1
    35   19   58 1
    36   19   59 1
    37   20   28 1
    38   20   21 1
    39   21   26 ar
    40   21   22 ar
    41   22   23 ar
    42   22   60 1
    43   23   24 ar
    44   23   61 1
    45   24   25 ar
    46   24   42 1
    47   25   26 ar
    48   25   62 1
    49   26   27 1
    50   27   28 1
    51   27   67 1
    52   28   29 2
    53   29   30 1
    54   30   31 2
    55   30   32 1
    56   32   37 ar
    57   32   33 ar
    58   33   34 ar
    59   33   63 1
    60   34   35 ar
    61   34   64 1
    62   35   36 ar
    63   35   38 1
    64   36   37 ar
    65   36   65 1
    66   37   66 1
    67   38   39 1
    68   38   40 1
    69   38   41 1
    70   42   43 2
    71   42   44 1
@<TRIPOS>MOLECULE
ZINC72118726
  108   113     0     0     0
SMALL
USER_CHARGES

@<TRIPOS>ATOM
      1 C1          4.2948   -3.2608    5.6512 C.3       1 <0>        -0.1818
      2 C2          4.8667   -2.4101    4.5153 C.3       1 <0>         0.0134
      3 C3          5.8087   -3.2633    3.6636 C.3       1 <0>        -0.1876
      4 N1          3.7685   -1.9089    3.6782 N.4       1 <0>        -0.3700
      5 C4          3.0370   -0.8957    4.4355 C.3       1 <0>        -0.0115
      6 C5          2.4345    0.1066    3.4759 C.3       1 <0>        -0.1634
      7 C6          0.9937   -0.3141    3.1335 C.3       1 <0>         0.1099
      8 N2          0.8943   -1.7777    2.9620 N.pl3     1 <0>        -0.5787
      9 C7          1.9018   -2.5462    2.2604 C.3       1 <0>         0.0735
     10 C8          2.9927   -3.0106    3.2542 C.3       1 <0>        -0.0601
     11 C9         -0.2009   -2.4384    3.4903 C.ar      1 <0>         0.6745
     12 N3         -0.2287   -3.7563    3.4404 N.ar      1 <0>        -0.5789
     13 C10        -1.2739   -4.4333    3.9418 C.ar      1 <0>         0.2096
     14 C11        -1.3331   -5.8319    3.9041 C.ar      1 <0>        -0.2264
     15 C12        -2.4278   -6.4796    4.4326 C.ar      1 <0>         0.2243
     16 C13        -3.4809   -5.7536    5.0061 C.ar      1 <0>         0.1331
     17 C14        -3.4435   -4.3893    5.0534 C.ar      1 <0>        -0.1225
     18 C15        -2.3416   -3.7065    4.5234 C.ar      1 <0>        -0.1751
     19 C16        -2.2557   -2.2935    4.5488 C.ar      1 <0>         0.5596
     20 N4         -1.1792   -1.7186    4.0320 N.ar      1 <0>        -0.5878
     21 N5         -3.2654   -1.5341    5.1025 N.pl3     1 <0>        -0.6476
     22 C17        -3.1581   -0.0731    5.1193 C.3       1 <0>         0.1261
     23 C18        -2.3634    0.3678    6.3518 C.3       1 <0>        -0.1586
     24 C19        -2.3231    1.8965    6.4059 C.3       1 <0>        -0.0076
     25 N6         -3.6906    2.4230    6.4896 N.4       1 <0>        -0.3857
     26 C20        -4.4373    2.0648    5.2777 C.3       1 <0>        -0.0071
     27 C21        -4.5590    0.5426    5.1802 C.3       1 <0>        -0.1614
     28 C22        -3.6437    3.8855    6.6197 C.3       1 <0>         0.0251
     29 C23        -2.8736    4.2603    7.8875 C.3       1 <0>        -0.1387
     30 C24        -2.8246    5.7835    8.0230 C.3       1 <0>        -0.1185
     31 C25        -4.2496    6.3338    8.1104 C.3       1 <0>        -0.1348
     32 C26        -5.0196    5.9590    6.8425 C.3       1 <0>        -0.1192
     33 C27        -5.0686    4.4358    6.7070 C.3       1 <0>        -0.1414
     34 O1         -4.5520   -6.4154    5.5209 O.3       1 <0>        -0.2836
     35 C28        -5.5930   -5.6200    6.0916 C.3       1 <0>         0.0131
     36 O2         -2.4878   -7.8363    4.3974 O.3       1 <0>        -0.2709
     37 C29        -1.3840   -8.5191    3.7995 C.3       1 <0>         0.0535
     38 C30        -1.6292  -10.0284    3.8516 C.3       1 <0>        -0.1575
     39 C31        -0.4474  -10.7595    3.2115 C.3       1 <0>        -0.0036
     40 N7         -0.6829  -12.2087    3.2615 N.4       1 <0>        -0.3831
     41 C32        -0.7116  -12.6502    4.6611 C.3       1 <0>        -0.0123
     42 C33        -1.0369  -14.1442    4.7220 C.3       1 <0>        -0.1479
     43 C34         0.0369  -14.9264    3.9602 C.3       1 <0>        -0.1415
     44 C35         0.1091  -14.4063    2.5216 C.3       1 <0>        -0.1487
     45 C36         0.3920  -12.9027    2.5422 C.3       1 <0>        -0.0052
     46 H1          3.8679   -4.1757    5.2404 H         1 <0>         0.0769
     47 H2          5.0907   -3.5138    6.3517 H         1 <0>         0.1143
     48 H3          3.5186   -2.6989    6.1706 H         1 <0>         0.0744
     49 H4          5.4178   -1.5680    4.9340 H         1 <0>         0.1498
     50 H5          5.2856   -4.1596    3.3302 H         1 <0>         0.0796
     51 H6          6.1347   -2.6891    2.7963 H         1 <0>         0.0883
     52 H7          6.6769   -3.5490    4.2574 H         1 <0>         0.1163
     53 H8          2.2427   -1.3731    5.0093 H         1 <0>         0.1235
     54 H9          3.7202   -0.3847    5.1139 H         1 <0>         0.1480
     55 H10         2.4246    1.0930    3.9395 H         1 <0>         0.1401
     56 H11         3.0300    0.1396    2.5636 H         1 <0>         0.1024
     57 H12         0.3290   -0.0024    3.9391 H         1 <0>         0.1195
     58 H13         0.6881    0.1759    2.2090 H         1 <0>         0.1083
     59 H14         1.4369   -3.4174    1.7991 H         1 <0>         0.1248
     60 H15         2.3562   -1.9271    1.4869 H         1 <0>         0.1414
     61 H16         3.6386   -3.7404    2.7660 H         1 <0>         0.1644
     62 H17         2.5191   -3.4733    4.1200 H         1 <0>         0.1293
     63 H18        -0.5263   -6.3987    3.4634 H         1 <0>         0.1676
     64 H19        -4.2603   -3.8394    5.4971 H         1 <0>         0.1619
     65 H20        -4.0465   -1.9674    5.4807 H         1 <0>         0.4327
     66 H21        -2.6501    0.2654    4.2163 H         1 <0>         0.1238
     67 H22        -2.8446   -0.0156    7.2515 H         1 <0>         0.0988
     68 H23        -1.3471   -0.0210    6.2879 H         1 <0>         0.1132
     69 H24        -1.7578    2.2139    7.2822 H         1 <0>         0.1432
     70 H25        -1.8415    2.2789    5.5059 H         1 <0>         0.1332
     71 H26        -5.4329    2.5064    5.3210 H         1 <0>         0.1494
     72 H27        -3.9106    2.4436    4.4017 H         1 <0>         0.1367
     73 H28        -5.1121    0.2787    4.2788 H         1 <0>         0.1273
     74 H29        -5.0858    0.1628    6.0556 H         1 <0>         0.1027
     75 H30        -3.1422    4.3116    5.7507 H         1 <0>         0.1393
     76 H31        -3.3750    3.8341    8.7565 H         1 <0>         0.0880
     77 H32        -1.8584    3.8682    7.8253 H         1 <0>         0.0832
     78 H33        -2.2760    6.0504    8.9262 H         1 <0>         0.0883
     79 H34        -2.3232    6.2096    7.1540 H         1 <0>         0.0752
     80 H35        -4.7510    5.9076    8.9793 H         1 <0>         0.0724
     81 H36        -4.2147    7.4189    8.2069 H         1 <0>         0.0851
     82 H37        -6.0348    6.3510    6.9047 H         1 <0>         0.0901
     83 H38        -4.5182    6.3851    5.9735 H         1 <0>         0.0758
     84 H39        -5.6172    4.1688    5.8038 H         1 <0>         0.0875
     85 H40        -5.5700    4.0097    7.5760 H         1 <0>         0.0886
     86 H41        -5.1898   -5.0302    6.9148 H         1 <0>         0.0665
     87 H42        -5.9987   -4.9526    5.3312 H         1 <0>         0.0679
     88 H43        -6.3845   -6.2703    6.4640 H         1 <0>         0.1270
     89 H44        -1.2806   -8.2034    2.7614 H         1 <0>         0.0855
     90 H45        -0.4707   -8.2804    4.3445 H         1 <0>         0.0835
     91 H46        -1.7326  -10.3441    4.8898 H         1 <0>         0.1076
     92 H47        -2.5425  -10.2672    3.3066 H         1 <0>         0.1084
     93 H48        -0.3441  -10.4439    2.1733 H         1 <0>         0.1344
     94 H49         0.4658  -10.5208    3.7565 H         1 <0>         0.1319
     95 H50         0.2619  -12.4719    5.1178 H         1 <0>         0.1293
     96 H51        -1.4740  -12.0904    5.2027 H         1 <0>         0.1295
     97 H52        -1.0560  -14.4704    5.7619 H         1 <0>         0.1159
     98 H53        -2.0104  -14.3236    4.2657 H         1 <0>         0.0904
     99 H54         1.0025  -14.7882    4.4467 H         1 <0>         0.0828
    100 H55        -0.2204  -15.9855    3.9524 H         1 <0>         0.0999
    101 H56         0.9093  -14.9200    1.9887 H         1 <0>         0.1172
    102 H57        -0.8406  -14.5912    2.0196 H         1 <0>         0.0906
    103 H58         0.4443  -12.5292    1.5195 H         1 <0>         0.1309
    104 H59         1.3420  -12.7190    3.0441 H         1 <0>         0.1291
    105 H60        -4.1524    2.0303    7.2962 H         1 <0>         0.4235
    106 H61        -1.5684  -12.4198    2.8262 H         1 <0>         0.4266
    107 H62         0.5104   -4.2392    3.0387 H         1 <0>         0.4331
    108 H63         4.1672   -1.4677    2.8631 H         1 <0>         0.4265
@<TRIPOS>BOND
     1    1    2 1
     2    1   46 1
     3    1   47 1
     4    1   48 1
     5    2    3 1
     6    2    4 1
     7    2   49 1
     8    3   50 1
     9    3   51 1
    10    3   52 1
    11    4   10 1
    12    4    5 1
    13    4  108 1
    14    5    6 1
    15    5   53 1
    16    5   54 1
    17    6    7 1
    18    6   55 1
    19    6   56 1
    20    7    8 1
    21    7   57 1
    22    7   58 1
    23    8    9 1
    24    8   11 1
    25    9   10 1
    26    9   59 1
    27    9   60 1
    28   10   61 1
    29   10   62 1
    30   11   20 ar
    31   11   12 ar
    32   12   13 ar
    33   12  107 1
    34   13   18 ar
    35   13   14 ar
    36   14   15 ar
    37   14   63 1
    38   15   16 ar
    39   15   36 1
    40   16   17 ar
    41   16   34 1
    42   17   18 ar
    43   17   64 1
    44   18   19 ar
    45   19   20 ar
    46   19   21 1
    47   21   22 1
    48   21   65 1
    49   22   27 1
    50   22   23 1
    51   22   66 1
    52   23   24 1
    53   23   67 1
    54   23   68 1
    55   24   25 1
    56   24   69 1
    57   24   70 1
    58   25   26 1
    59   25   28 1
    60   25  105 1
    61   26   27 1
    62   26   71 1
    63   26   72 1
    64   27   73 1
    65   27   74 1
    66   28   33 1
    67   28   29 1
    68   28   75 1
    69   29   30 1
    70   29   76 1
    71   29   77 1
    72   30   31 1
    73   30   78 1
    74   30   79 1
    75   31   32 1
    76   31   80 1
    77   31   81 1
    78   32   33 1
    79   32   82 1
    80   32   83 1
    81   33   84 1
    82   33   85 1
    83   34   35 1
    84   35   86 1
    85   35   87 1
    86   35   88 1
    87   36   37 1
    88   37   38 1
    89   37   89 1
    90   37   90 1
    91   38   39 1
    92   38   91 1
    93   38   92 1
    94   39   40 1
    95   39   93 1
    96   39   94 1
    97   40   45 1
    98   40   41 1
    99   40  106 1
   100   41   42 1
   101   41   95 1
   102   41   96 1
   103   42   43 1
   104   42   97 1
   105   42   98 1
   106   43   44 1
   107   43   99 1
   108   43  100 1
   109   44   45 1
   110   44  101 1
   111   44  102 1
   112   45  103 1
   113   45  104 1
@<TRIPOS>MOLECULE
ZINC36382102
   77    81     0     0     0
SMALL
USER_CHARGES

@<TRIPOS>ATOM
      1 C1         -1.4094   -5.7423   -0.4989 C.3       1 <0>        -0.0583
      2 N1         -0.8372   -4.3973   -0.3514 N.4       1 <0>        -0.3722
      3 C2         -0.6761   -4.1186    1.0738 C.3       1 <0>        -0.0116
      4 C3         -0.7991   -2.6292    1.3083 C.3       1 <0>        -0.1638
      5 C4          0.6009   -1.9893    1.2833 C.3       1 <0>         0.1116
      6 N2          1.4395   -2.5876    0.2250 N.pl3     1 <0>        -0.5837
      7 C5          0.9222   -2.8965   -1.0921 C.3       1 <0>         0.0731
      8 C6          0.3536   -4.3341   -1.1088 C.3       1 <0>        -0.0519
      9 C7          2.7671   -2.8635    0.5020 C.ar      1 <0>         0.6708
     10 N3          3.4846   -3.4949   -0.4073 N.ar      1 <0>        -0.5748
     11 C8          4.7755   -3.7808   -0.1756 C.ar      1 <0>         0.2113
     12 C9          5.5636   -4.4497   -1.1205 C.ar      1 <0>        -0.2316
     13 C10         6.8838   -4.7194   -0.8346 C.ar      1 <0>         0.2310
     14 C11         7.4444   -4.3320    0.3903 C.ar      1 <0>         0.1334
     15 C12         6.6940   -3.6788    1.3257 C.ar      1 <0>        -0.1301
     16 C13         5.3492   -3.3920    1.0598 C.ar      1 <0>        -0.1814
     17 C14         4.5301   -2.7167    1.9966 C.ar      1 <0>         0.5585
     18 N4          3.2679   -2.4764    1.6715 N.ar      1 <0>        -0.5908
     19 N5          5.0348   -2.3143    3.2157 N.pl3     1 <0>        -0.6531
     20 C15         4.1713   -1.6168    4.1717 C.3       1 <0>         0.1282
     21 C16         3.3984   -2.6421    5.0064 C.3       1 <0>        -0.1603
     22 C17         2.5592   -1.9093    6.0553 C.3       1 <0>        -0.0023
     23 N6          3.4391   -1.1265    6.9314 N.4       1 <0>        -0.3861
     24 C18         4.1298   -0.0940    6.1495 C.3       1 <0>        -0.0073
     25 C19         5.0294   -0.7569    5.1042 C.3       1 <0>        -0.1609
     26 C20         2.6375   -0.4875    7.9835 C.3       1 <0>         0.0469
     27 C21         3.5512    0.2153    8.9542 C.ar      1 <0>        -0.1724
     28 C22         4.0431   -0.4618   10.0544 C.ar      1 <0>        -0.0929
     29 C23         4.8812    0.1828   10.9448 C.ar      1 <0>        -0.1098
     30 C24         5.2278    1.5045   10.7348 C.ar      1 <0>        -0.0766
     31 C25         4.7366    2.1813    9.6341 C.ar      1 <0>        -0.1112
     32 C26         3.9019    1.5353    8.7414 C.ar      1 <0>        -0.1000
     33 O1          8.7502   -4.6102    0.6502 O.3       1 <0>        -0.2808
     34 C27         9.2636   -4.1900    1.9159 C.3       1 <0>         0.0145
     35 O2          7.6505   -5.3681   -1.7494 O.3       1 <0>        -0.2677
     36 C28         7.0215   -5.7371   -2.9783 C.3       1 <0>         0.0097
     37 H1         -0.6964   -6.4823   -0.1354 H         1 <0>         0.1245
     38 H2         -2.3307   -5.8105    0.0796 H         1 <0>         0.1352
     39 H3         -1.6256   -5.9319   -1.5502 H         1 <0>         0.1339
     40 H4         -1.4500   -4.6407    1.6365 H         1 <0>         0.1480
     41 H5          0.3059   -4.4588    1.4025 H         1 <0>         0.1241
     42 H6         -1.4146   -2.1876    0.5246 H         1 <0>         0.1016
     43 H7         -1.2628   -2.4512    2.2785 H         1 <0>         0.1381
     44 H8          0.5020   -0.9195    1.0993 H         1 <0>         0.1056
     45 H9          1.0814   -2.1421    2.2497 H         1 <0>         0.1185
     46 H10         0.1308   -2.1909   -1.3452 H         1 <0>         0.1402
     47 H11         1.7254   -2.8164   -1.8247 H         1 <0>         0.1264
     48 H12         1.0884   -5.0179   -0.6839 H         1 <0>         0.1277
     49 H13         0.1432   -4.6274   -2.1373 H         1 <0>         0.1651
     50 H14         5.1392   -4.7522   -2.0664 H         1 <0>         0.1713
     51 H15         7.1355   -3.3850    2.2665 H         1 <0>         0.1591
     52 H16         5.9614   -2.4932    3.4399 H         1 <0>         0.4322
     53 H17         3.4695   -0.9807    3.6323 H         1 <0>         0.1224
     54 H18         2.7431   -3.2213    4.3558 H         1 <0>         0.1139
     55 H19         4.1011   -3.3102    5.5043 H         1 <0>         0.0987
     56 H20         1.8567   -1.2418    5.5564 H         1 <0>         0.1335
     57 H21         2.0074   -2.6364    6.6512 H         1 <0>         0.1405
     58 H22         3.3939    0.5349    5.6485 H         1 <0>         0.1358
     59 H23         4.7376    0.5191    6.8149 H         1 <0>         0.1468
     60 H24         5.7660   -1.3859    5.6041 H         1 <0>         0.1017
     61 H25         5.5400    0.0114    4.5235 H         1 <0>         0.1263
     62 H26         1.9588    0.2371    7.5336 H         1 <0>         0.1374
     63 H27         2.0604   -1.2464    8.5120 H         1 <0>         0.1404
     64 H28         3.7723   -1.4944   10.2185 H         1 <0>         0.1310
     65 H29         5.2650   -0.3460   11.8048 H         1 <0>         0.1395
     66 H30         5.8820    2.0083   11.4309 H         1 <0>         0.1401
     67 H31         5.0071    3.2139    9.4702 H         1 <0>         0.1389
     68 H32         3.5211    2.0630    7.8794 H         1 <0>         0.1297
     69 H33        10.3133   -4.4730    1.9944 H         1 <0>         0.1250
     70 H34         9.1716   -3.1074    2.0039 H         1 <0>         0.0656
     71 H35         8.6974   -4.6689    2.7148 H         1 <0>         0.0643
     72 H36         6.1844   -6.4040   -2.7721 H         1 <0>         0.0706
     73 H37         6.6574   -4.8423   -3.4831 H         1 <0>         0.0724
     74 H38         7.7430   -6.2465   -3.6172 H         1 <0>         0.1287
     75 H39         4.1206   -1.7381    7.3553 H         1 <0>         0.4254
     76 H40        -1.4922   -3.7308   -0.7318 H         1 <0>         0.4282
     77 H41         3.0768   -3.7544   -1.2482 H         1 <0>         0.4339
@<TRIPOS>BOND
     1    1    2 1
     2    1   37 1
     3    1   38 1
     4    1   39 1
     5    2    8 1
     6    2    3 1
     7    2   76 1
     8    3    4 1
     9    3   40 1
    10    3   41 1
    11    4    5 1
    12    4   42 1
    13    4   43 1
    14    5    6 1
    15    5   44 1
    16    5   45 1
    17    6    7 1
    18    6    9 1
    19    7    8 1
    20    7   46 1
    21    7   47 1
    22    8   48 1
    23    8   49 1
    24    9   18 ar
    25    9   10 ar
    26   10   11 ar
    27   10   77 1
    28   11   16 ar
    29   11   12 ar
    30   12   13 ar
    31   12   50 1
    32   13   14 ar
    33   13   35 1
    34   14   15 ar
    35   14   33 1
    36   15   16 ar
    37   15   51 1
    38   16   17 ar
    39   17   18 ar
    40   17   19 1
    41   19   20 1
    42   19   52 1
    43   20   25 1
    44   20   21 1
    45   20   53 1
    46   21   22 1
    47   21   54 1
    48   21   55 1
    49   22   23 1
    50   22   56 1
    51   22   57 1
    52   23   24 1
    53   23   26 1
    54   23   75 1
    55   24   25 1
    56   24   58 1
    57   24   59 1
    58   25   60 1
    59   25   61 1
    60   26   27 1
    61   26   62 1
    62   26   63 1
    63   27   32 ar
    64   27   28 ar
    65   28   29 ar
    66   28   64 1
    67   29   30 ar
    68   29   65 1
    69   30   31 ar
    70   30   66 1
    71   31   32 ar
    72   31   67 1
    73   32   68 1
    74   33   34 1
    75   34   69 1
    76   34   70 1
    77   34   71 1
    78   35   36 1
    79   36   72 1
    80   36   73 1
    81   36   74 1
@<TRIPOS>MOLECULE
ZINC36382580
   82    85     0     0     0
SMALL
USER_CHARGES

@<TRIPOS>ATOM
      1 C1         -1.4094   -5.7423   -0.4989 C.3       1 <0>        -0.0583
      2 N1         -0.8372   -4.3973   -0.3515 N.4       1 <0>        -0.3735
      3 C2         -0.6761   -4.1186    1.0738 C.3       1 <0>        -0.0119
      4 C3         -0.7991   -2.6293    1.3083 C.3       1 <0>        -0.1644
      5 C4          0.6009   -1.9893    1.2833 C.3       1 <0>         0.1098
      6 N2          1.4395   -2.5876    0.2250 N.pl3     1 <0>        -0.5799
      7 C5          0.9222   -2.8965   -1.0921 C.3       1 <0>         0.0719
      8 C6          0.3536   -4.3341   -1.1088 C.3       1 <0>        -0.0501
      9 C7          2.7671   -2.8635    0.5020 C.ar      1 <0>         0.6742
     10 N3          3.4846   -3.4949   -0.4073 N.ar      1 <0>        -0.5785
     11 C8          4.7755   -3.7808   -0.1756 C.ar      1 <0>         0.2094
     12 C9          5.5636   -4.4497   -1.1205 C.ar      1 <0>        -0.2262
     13 C10         6.8838   -4.7194   -0.8346 C.ar      1 <0>         0.2245
     14 C11         7.4444   -4.3320    0.3903 C.ar      1 <0>         0.1337
     15 C12         6.6940   -3.6788    1.3257 C.ar      1 <0>        -0.1228
     16 C13         5.3492   -3.3920    1.0598 C.ar      1 <0>        -0.1751
     17 C14         4.5301   -2.7167    1.9966 C.ar      1 <0>         0.5597
     18 N4          3.2679   -2.4764    1.6715 N.ar      1 <0>        -0.5884
     19 N5          5.0348   -2.3143    3.2157 N.pl3     1 <0>        -0.6483
     20 C15         4.1713   -1.6168    4.1717 C.3       1 <0>         0.1277
     21 C16         4.1638   -0.1183    3.8564 C.3       1 <0>        -0.1630
     22 C17         3.3245    0.6140    4.9056 C.3       1 <0>        -0.0024
     23 N6          3.9008    0.3957    6.2378 N.4       1 <0>        -0.3891
     24 C18         3.8455   -1.0314    6.5766 C.3       1 <0>        -0.0015
     25 C19         4.7049   -1.8270    5.5917 C.3       1 <0>        -0.1636
     26 C20         3.1381    1.1632    7.2314 C.3       1 <0>        -0.0507
     27 O1          8.7502   -4.6102    0.6502 O.3       1 <0>        -0.2835
     28 C21         9.2636   -4.1900    1.9159 C.3       1 <0>         0.0130
     29 O2          7.6505   -5.3681   -1.7494 O.3       1 <0>        -0.2710
     30 C22         7.0215   -5.7371   -2.9783 C.3       1 <0>         0.0533
     31 C23         8.0343   -6.4521   -3.8750 C.3       1 <0>        -0.1583
     32 C24         7.3608   -6.8472   -5.1908 C.3       1 <0>        -0.0047
     33 N7          8.3332   -7.5336   -6.0518 N.4       1 <0>        -0.3867
     34 C25         8.7340   -8.8002   -5.4247 C.3       1 <0>        -0.0563
     35 C26         7.7223   -7.8065   -7.3596 C.3       1 <0>        -0.0492
     36 H1         -0.6964   -6.4823   -0.1354 H         1 <0>         0.1240
     37 H2         -2.3307   -5.8105    0.0796 H         1 <0>         0.1372
     38 H3         -1.6256   -5.9319   -1.5503 H         1 <0>         0.1336
     39 H4         -1.4500   -4.6407    1.6365 H         1 <0>         0.1504
     40 H5          0.3059   -4.4589    1.4025 H         1 <0>         0.1238
     41 H6         -1.4146   -2.1876    0.5246 H         1 <0>         0.1028
     42 H7         -1.2628   -2.4512    2.2785 H         1 <0>         0.1408
     43 H8          0.5020   -0.9195    1.0993 H         1 <0>         0.1074
     44 H9          1.0814   -2.1422    2.2497 H         1 <0>         0.1200
     45 H10         0.1308   -2.1909   -1.3452 H         1 <0>         0.1422
     46 H11         1.7254   -2.8164   -1.8247 H         1 <0>         0.1249
     47 H12         1.0884   -5.0179   -0.6840 H         1 <0>         0.1260
     48 H13         0.1432   -4.6274   -2.1374 H         1 <0>         0.1641
     49 H14         5.1392   -4.7522   -2.0664 H         1 <0>         0.1678
     50 H15         7.1355   -3.3850    2.2665 H         1 <0>         0.1621
     51 H16         5.9614   -2.4932    3.4399 H         1 <0>         0.4330
     52 H17         3.1572   -2.0103    4.1015 H         1 <0>         0.1212
     53 H18         5.1848    0.2629    3.8762 H         1 <0>         0.0998
     54 H19         3.7333    0.0436    2.8682 H         1 <0>         0.1169
     55 H20         3.3169    1.6812    4.6840 H         1 <0>         0.1431
     56 H21         2.3038    0.2322    4.8848 H         1 <0>         0.1332
     57 H22         4.2226   -1.1790    7.5886 H         1 <0>         0.1478
     58 H23         2.8137   -1.3781    6.5201 H         1 <0>         0.1355
     59 H24         4.6611   -2.8865    5.8439 H         1 <0>         0.1262
     60 H25         5.7371   -1.4813    5.6476 H         1 <0>         0.1038
     61 H26         2.0992    0.8335    7.2258 H         1 <0>         0.1255
     62 H27         3.5652    1.0018    8.2211 H         1 <0>         0.1324
     63 H28         3.1840    2.2239    6.9844 H         1 <0>         0.1311
     64 H29         9.1716   -3.1074    2.0039 H         1 <0>         0.0673
     65 H30         8.6974   -4.6689    2.7148 H         1 <0>         0.0674
     66 H31        10.3133   -4.4730    1.9944 H         1 <0>         0.1273
     67 H32         6.1844   -6.4040   -2.7721 H         1 <0>         0.0837
     68 H33         6.6574   -4.8423   -3.4831 H         1 <0>         0.0853
     69 H34         8.8714   -5.7852   -4.0813 H         1 <0>         0.1085
     70 H35         8.3984   -7.3469   -3.3702 H         1 <0>         0.1082
     71 H36         6.5237   -7.5141   -4.9846 H         1 <0>         0.1326
     72 H37         6.9967   -5.9524   -5.6956 H         1 <0>         0.1345
     73 H38         7.8566   -9.4330   -5.2910 H         1 <0>         0.1244
     74 H39         9.4555   -9.3095   -6.0635 H         1 <0>         0.1332
     75 H40         9.1872   -8.5977   -4.4543 H         1 <0>         0.1243
     76 H41         7.4249   -6.8667   -7.8249 H         1 <0>         0.1257
     77 H42         8.4438   -8.3159   -7.9984 H         1 <0>         0.1330
     78 H43         6.8450   -8.4394   -7.2259 H         1 <0>         0.1238
     79 H44         4.8614    0.7045    6.2424 H         1 <0>         0.4293
     80 H45         9.1453   -6.9478   -6.1755 H         1 <0>         0.4320
     81 H46         3.0768   -3.7544   -1.2482 H         1 <0>         0.4334
     82 H47        -1.4922   -3.7307   -0.7319 H         1 <0>         0.4295
@<TRIPOS>BOND
     1    1    2 1
     2    1   36 1
     3    1   37 1
     4    1   38 1
     5    2    8 1
     6    2    3 1
     7    2   82 1
     8    3    4 1
     9    3   39 1
    10    3   40 1
    11    4    5 1
    12    4   41 1
    13    4   42 1
    14    5    6 1
    15    5   43 1
    16    5   44 1
    17    6    7 1
    18    6    9 1
    19    7    8 1
    20    7   45 1
    21    7   46 1
    22    8   47 1
    23    8   48 1
    24    9   18 ar
    25    9   10 ar
    26   10   11 ar
    27   10   81 1
    28   11   16 ar
    29   11   12 ar
    30   12   13 ar
    31   12   49 1
    32   13   14 ar
    33   13   29 1
    34   14   15 ar
    35   14   27 1
    36   15   16 ar
    37   15   50 1
    38   16   17 ar
    39   17   18 ar
    40   17   19 1
    41   19   20 1
    42   19   51 1
    43   20   25 1
    44   20   21 1
    45   20   52 1
    46   21   22 1
    47   21   53 1
    48   21   54 1
    49   22   23 1
    50   22   55 1
    51   22   56 1
    52   23   24 1
    53   23   26 1
    54   23   79 1
    55   24   25 1
    56   24   57 1
    57   24   58 1
    58   25   59 1
    59   25   60 1
    60   26   61 1
    61   26   62 1
    62   26   63 1
    63   27   28 1
    64   28   64 1
    65   28   65 1
    66   28   66 1
    67   29   30 1
    68   30   31 1
    69   30   67 1
    70   30   68 1
    71   31   32 1
    72   31   69 1
    73   31   70 1
    74   32   33 1
    75   32   71 1
    76   32   72 1
    77   33   34 1
    78   33   35 1
    79   33   80 1
    80   34   73 1
    81   34   74 1
    82   34   75 1
    83   35   76 1
    84   35   77 1
    85   35   78 1
