@<TRIPOS>MOLECULE
ZINC00015095
   33    35     0     0     0
SMALL
USER_CHARGES
4,6,9-trihydroxy-8-methyl-3,4-dihydro-2H-anthracen-1-one
@<TRIPOS>ATOM
      1 C1          2.4719    1.0201   -0.0164 C.3       1 <0>        -0.1365
      2 C2          1.1613    1.7639    0.0004 C.ar      1 <0>        -0.0296
      3 C3          0.0035    1.0983    0.2610 C.ar      1 <0>        -0.1530
      4 C4         -1.2215    1.7712    0.2746 C.ar      1 <0>         0.1371
      5 C5         -1.2826    3.1270    0.0347 C.ar      1 <0>        -0.1531
      6 C6         -0.1039    3.8365   -0.2366 C.ar      1 <0>         0.0038
      7 C7          1.1330    3.1447   -0.2532 C.ar      1 <0>        -0.1009
      8 C8          2.3168    3.8583   -0.5241 C.ar      1 <0>         0.2006
      9 C9          2.2476    5.2317   -0.7718 C.ar      1 <0>        -0.1987
     10 C10         1.0089    5.9047   -0.7577 C.ar      1 <0>        -0.0292
     11 C11        -0.1359    5.2215   -0.4925 C.ar      1 <0>        -0.1015
     12 C12         0.9173    7.3814   -1.0391 C.3       1 <0>         0.1446
     13 H1          0.6435    7.5296   -2.0837 H         1 <0>         0.0780
     14 C13         2.2471    8.0790   -0.7681 C.3       1 <0>        -0.1493
     15 C14         3.3572    7.3887   -1.5710 C.3       1 <0>        -0.1525
     16 C15         3.4854    5.9749   -1.0445 C.2       1 <0>         0.3941
     17 O1          4.5736    5.4727   -0.8538 O.2       1 <0>        -0.4332
     18 O2         -0.0911    7.9554   -0.2050 O.3       1 <0>        -0.5583
     19 O3          3.5102    3.2198   -0.5437 O.3       1 <0>        -0.4665
     20 O4         -2.3633    1.0825    0.5319 O.3       1 <0>        -0.4975
     21 H2          2.7338    0.7687   -1.0441 H         1 <0>         0.0737
     22 H3          3.2518    1.6485    0.4139 H         1 <0>         0.1058
     23 H4          2.3781    0.1054    0.5689 H         1 <0>         0.0667
     24 H5          0.0308    0.0363    0.4553 H         1 <0>         0.1347
     25 H6         -2.2333    3.6392    0.0517 H         1 <0>         0.1398
     26 H7         -1.0799    5.7459   -0.4778 H         1 <0>         0.1417
     27 H8          2.1771    9.1244   -1.0689 H         1 <0>         0.0862
     28 H9          2.4779    8.0211    0.2956 H         1 <0>         0.0811
     29 H10         3.1135    7.3841   -2.5408 H         1 <0>         0.0940
     30 H11         4.2985    7.9213   -1.4351 H         1 <0>         0.0988
     31 H12        -0.2093    8.9071   -0.3289 H         1 <0>         0.3858
     32 H13         3.7566    2.8732   -1.4122 H         1 <0>         0.3970
     33 H14        -2.5963    1.0434    1.4696 H         1 <0>         0.3963
@<TRIPOS>BOND
     1    1    2 1
     2    1   21 1
     3    1   22 1
     4    1   23 1
     5    2    7 ar
     6    2    3 ar
     7    3    4 ar
     8    3   24 1
     9    4    5 ar
    10    4   20 1
    11    5    6 ar
    12    5   25 1
    13    6   11 ar
    14    6    7 ar
    15    7    8 ar
    16    8    9 ar
    17    8   19 1
    18    9   16 1
    19    9   10 ar
    20   10   11 ar
    21   10   12 1
    22   11   26 1
    23   12   13 1
    24   12   14 1
    25   12   18 1
    26   14   15 1
    27   14   27 1
    28   14   28 1
    29   15   16 1
    30   15   29 1
    31   15   30 1
    32   16   17 2
    33   18   31 1
    34   19   32 1
    35   20   33 1
@<TRIPOS>MOLECULE
ZINC03801063
   33    35     0     0     0
SMALL
USER_CHARGES
4,6,9-trihydroxy-8-methyl-3,4-dihydro-2H-anthracen-1-one
@<TRIPOS>ATOM
      1 C1         -2.2612    4.9507   -4.9239 C.3       1 <0>        -0.1228
      2 C2         -2.2342    5.7088   -3.6218 C.ar      1 <0>        -0.0282
      3 C3         -2.6875    6.9907   -3.5701 C.ar      1 <0>        -0.1535
      4 C4         -2.6691    7.7088   -2.3711 C.ar      1 <0>         0.1387
      5 C5         -2.1907    7.1338   -1.2136 C.ar      1 <0>        -0.1547
      6 C6         -1.7175    5.8141   -1.2396 C.ar      1 <0>         0.0049
      7 C7         -1.7408    5.0936   -2.4599 C.ar      1 <0>        -0.0965
      8 C8         -1.2664    3.7675   -2.4851 C.ar      1 <0>         0.2017
      9 C9         -0.7819    3.1906   -1.3084 C.ar      1 <0>        -0.1983
     10 C10        -0.7604    3.9219   -0.1033 C.ar      1 <0>        -0.0228
     11 C11        -1.2210    5.2005   -0.0727 C.ar      1 <0>        -0.1074
     12 C12        -0.2266    3.3184    1.1691 C.3       1 <0>         0.1433
     13 H1         -0.8276    3.6666    2.0092 H         1 <0>         0.0757
     14 C13        -0.2726    1.7939    1.1208 C.3       1 <0>        -0.1501
     15 C14         0.4687    1.3018   -0.1291 C.3       1 <0>        -0.1509
     16 C15        -0.2927    1.8055   -1.3370 C.2       1 <0>         0.4004
     17 O1         -0.4917    1.0896   -2.2965 O.2       1 <0>        -0.4446
     18 O2          1.1263    3.7392    1.3554 O.3       1 <0>        -0.5565
     19 O3         -1.2802    3.0588   -3.6383 O.3       1 <0>        -0.4693
     20 O4         -3.1273    8.9869   -2.3466 O.3       1 <0>        -0.4974
     21 H2         -1.2828    5.0120   -5.4004 H         1 <0>         0.0809
     22 H3         -2.5067    3.9063   -4.7313 H         1 <0>         0.0871
     23 H4         -3.0137    5.3854   -5.5819 H         1 <0>         0.0650
     24 H5         -3.0665    7.4590   -4.4665 H         1 <0>         0.1353
     25 H6         -2.1807    7.6964   -0.2917 H         1 <0>         0.1398
     26 H7         -1.2064    5.7515    0.8560 H         1 <0>         0.1368
     27 H8         -1.3105    1.4634    1.0817 H         1 <0>         0.0809
     28 H9          0.2058    1.3864    2.0114 H         1 <0>         0.0870
     29 H10         0.5024    0.3024   -0.1248 H         1 <0>         0.0858
     30 H11         1.4835    1.6994   -0.1385 H         1 <0>         0.1081
     31 H12         1.5400    3.3901    2.1566 H         1 <0>         0.3833
     32 H13        -2.0544    2.4884   -3.7402 H         1 <0>         0.4017
     33 H14        -2.4488    9.6515   -2.5286 H         1 <0>         0.3966
@<TRIPOS>BOND
     1    1    2 1
     2    1   21 1
     3    1   22 1
     4    1   23 1
     5    2    7 ar
     6    2    3 ar
     7    3    4 ar
     8    3   24 1
     9    4    5 ar
    10    4   20 1
    11    5    6 ar
    12    5   25 1
    13    6   11 ar
    14    6    7 ar
    15    7    8 ar
    16    8    9 ar
    17    8   19 1
    18    9   16 1
    19    9   10 ar
    20   10   11 ar
    21   10   12 1
    22   11   26 1
    23   12   13 1
    24   12   14 1
    25   12   18 1
    26   14   15 1
    27   14   27 1
    28   14   28 1
    29   15   16 1
    30   15   29 1
    31   15   30 1
    32   16   17 2
    33   18   31 1
    34   19   32 1
    35   20   33 1
