@<TRIPOS>MOLECULE
ZINC02397903
   63    67     0     0     0
SMALL
USER_CHARGES
1-benzyl-6,6-dimethyl-3-(3-methyl-5-oxo-1-phenyl-2H-pyrazol-4-yl)-3-(trifluoromethyl)-5,7-dihydroindole-2,4-dione
@<TRIPOS>ATOM
      1 C1          0.9581    0.8052   -3.0789 C.3       1 <0>        -0.1221
      2 C2         -0.1676   -0.1384   -2.7418 C.2       1 <0>         0.2231
      3 C3         -0.5480   -0.4999   -1.4997 C.2       1 <0>        -0.2968
      4 C4         -1.6400   -1.3911   -1.6169 C.2       1 <0>         0.5540
      5 O1         -2.2417   -1.9160   -0.6973 O.2       1 <0>        -0.4981
      6 N1         -1.8944   -1.5546   -2.9312 N.am      1 <0>        -0.3537
      7 N2         -0.9731   -0.7749   -3.6430 N.pl3     1 <0>        -0.4835
      8 H1         -0.9191   -0.6975   -4.6084 H         1 <0>         0.4468
      9 C5         -2.8973   -2.3573   -3.4841 C.ar      1 <0>         0.1670
     10 C6         -3.7420   -3.0850   -2.6558 C.ar      1 <0>        -0.1371
     11 C7         -4.7351   -3.8723   -3.2048 C.ar      1 <0>        -0.0840
     12 C8         -4.8814   -3.9458   -4.5779 C.ar      1 <0>        -0.1378
     13 C9         -4.0387   -3.2266   -5.4055 C.ar      1 <0>        -0.0890
     14 C10        -3.0472   -2.4330   -4.8628 C.ar      1 <0>        -0.1607
     15 C11         0.0771   -0.0310   -0.2111 C.3       1 <0>         0.0190
     16 C12         1.5147   -0.4635   -0.1265 C.2       1 <0>        -0.3061
     17 C13         2.2626    0.6712   -0.0641 C.2       1 <0>         0.2281
     18 C14         3.7749    0.6191    0.0186 C.3       1 <0>        -0.0731
     19 C15         4.2434   -0.6837   -0.6395 C.3       1 <0>        -0.0537
     20 C16         3.5635   -1.8853    0.0185 C.3       1 <0>        -0.1456
     21 C17         2.0612   -1.7553   -0.1099 C.2       1 <0>         0.4150
     22 O2          1.3516   -2.7378   -0.1950 O.2       1 <0>        -0.4376
     23 C18         3.8907   -0.6546   -2.1279 C.3       1 <0>        -0.1655
     24 C19         5.7601   -0.8125   -0.4845 C.3       1 <0>        -0.1431
     25 N3          1.4797    1.7806   -0.0923 N.am      1 <0>        -0.5346
     26 C20         0.1677    1.4843   -0.1798 C.2       1 <0>         0.5362
     27 O3         -0.7545    2.2700   -0.2289 O.2       1 <0>        -0.4373
     28 C21         2.0030    3.1477   -0.0337 C.3       1 <0>         0.1404
     29 C22         2.0946    3.5893    1.4042 C.ar      1 <0>        -0.1252
     30 C23         1.0229    4.2266    2.0011 C.ar      1 <0>        -0.0937
     31 C24         1.1053    4.6278    3.3214 C.ar      1 <0>        -0.1182
     32 C25         2.2629    4.4002    4.0420 C.ar      1 <0>        -0.1055
     33 C26         3.3363    3.7671    3.4436 C.ar      1 <0>        -0.1207
     34 C27         3.2523    3.3621    2.1246 C.ar      1 <0>        -0.1013
     35 C28        -0.7145   -0.5496    0.9910 C.3       1 <0>         0.4842
     36 F1         -2.0184   -0.0447    0.9438 F         1 <0>        -0.1655
     37 F2         -0.7543   -1.9476    0.9553 F         1 <0>        -0.1387
     38 F3         -0.0948   -0.1308    2.1733 F         1 <0>        -0.1852
     39 H2          1.8625    0.2329   -3.2850 H         1 <0>         0.1082
     40 H3          0.6903    1.3908   -3.9583 H         1 <0>         0.0929
     41 H4          1.1356    1.4745   -2.2370 H         1 <0>         0.0883
     42 H5         -3.6249   -3.0321   -1.5834 H         1 <0>         0.1594
     43 H6         -5.3948   -4.4352   -2.5611 H         1 <0>         0.1342
     44 H7         -5.6557   -4.5659   -5.0048 H         1 <0>         0.1284
     45 H8         -4.1558   -3.2859   -6.4775 H         1 <0>         0.1303
     46 H9         -2.3890   -1.8721   -5.5097 H         1 <0>         0.1185
     47 H10         4.2020    1.4721   -0.5086 H         1 <0>         0.1007
     48 H11         4.0873    0.6370    1.0628 H         1 <0>         0.1127
     49 H12         3.8629   -2.7260   -0.4327 H         1 <0>         0.0905
     50 H13         3.8347   -1.9226    1.0736 H         1 <0>         0.1033
     51 H14         4.4464    0.1452   -2.6174 H         1 <0>         0.0660
     52 H15         4.1530   -1.6100   -2.5823 H         1 <0>         0.0671
     53 H16         2.8214   -0.4782   -2.2446 H         1 <0>         0.0635
     54 H17         6.0173   -0.8261    0.5747 H         1 <0>         0.0633
     55 H18         6.0958   -1.7383   -0.9518 H         1 <0>         0.0664
     56 H19         6.2478    0.0351   -0.9660 H         1 <0>         0.0641
     57 H20         2.9940    3.1770   -0.4866 H         1 <0>         0.1072
     58 H21         1.3352    3.8160   -0.5772 H         1 <0>         0.1080
     59 H22         0.1201    4.4081    1.4369 H         1 <0>         0.1261
     60 H23         0.2666    5.1221    3.7889 H         1 <0>         0.1259
     61 H24         2.3285    4.7166    5.0725 H         1 <0>         0.1253
     62 H25         4.2406    3.5893    4.0066 H         1 <0>         0.1263
     63 H26         4.0910    2.8678    1.6571 H         1 <0>         0.1233
@<TRIPOS>BOND
     1    1    2 1
     2    1   39 1
     3    1   40 1
     4    1   41 1
     5    2    7 1
     6    2    3 2
     7    3    4 1
     8    3   15 1
     9    4    5 2
    10    4    6 am
    11    6    7 1
    12    6    9 1
    13    7    8 1
    14    9   14 ar
    15    9   10 ar
    16   10   11 ar
    17   10   42 1
    18   11   12 ar
    19   11   43 1
    20   12   13 ar
    21   12   44 1
    22   13   14 ar
    23   13   45 1
    24   14   46 1
    25   15   26 1
    26   15   16 1
    27   15   35 1
    28   16   21 1
    29   16   17 2
    30   17   18 1
    31   17   25 1
    32   18   19 1
    33   18   47 1
    34   18   48 1
    35   19   20 1
    36   19   23 1
    37   19   24 1
    38   20   21 1
    39   20   49 1
    40   20   50 1
    41   21   22 2
    42   23   51 1
    43   23   52 1
    44   23   53 1
    45   24   54 1
    46   24   55 1
    47   24   56 1
    48   25   26 am
    49   25   28 1
    50   26   27 2
    51   28   29 1
    52   28   57 1
    53   28   58 1
    54   29   34 ar
    55   29   30 ar
    56   30   31 ar
    57   30   59 1
    58   31   32 ar
    59   31   60 1
    60   32   33 ar
    61   32   61 1
    62   33   34 ar
    63   33   62 1
    64   34   63 1
    65   35   36 1
    66   35   37 1
    67   35   38 1
@<TRIPOS>MOLECULE
ZINC02397904
   63    67     0     0     0
SMALL
USER_CHARGES
1-benzyl-6,6-dimethyl-3-(3-methyl-5-oxo-1-phenyl-2H-pyrazol-4-yl)-3-(trifluoromethyl)-5,7-dihydroindole-2,4-dione
@<TRIPOS>ATOM
      1 C1         -0.4859    0.2692   -2.3825 C.3       1 <0>        -0.1211
      2 C2         -1.7449    1.0882   -2.2598 C.2       1 <0>         0.2296
      3 C3         -2.1703    1.7180   -1.1459 C.2       1 <0>        -0.3122
      4 C4         -3.3909    2.3661   -1.4469 C.2       1 <0>         0.5438
      5 O1         -4.0628    3.0278   -0.6763 O.2       1 <0>        -0.4591
      6 N1         -3.6740    2.1221   -2.7428 N.am      1 <0>        -0.3600
      7 N2         -2.6485    1.3183   -3.2582 N.pl3     1 <0>        -0.4860
      8 H1         -2.5903    0.9833   -4.1666 H         1 <0>         0.4451
      9 C5         -4.7927    2.5831   -3.4440 C.ar      1 <0>         0.1701
     10 C6         -5.7394    3.3718   -2.8032 C.ar      1 <0>        -0.1388
     11 C7         -6.8401    3.8302   -3.5001 C.ar      1 <0>        -0.0839
     12 C8         -7.0061    3.4952   -4.8315 C.ar      1 <0>        -0.1403
     13 C9         -6.0683    2.7053   -5.4709 C.ar      1 <0>        -0.0888
     14 C10        -4.9624    2.2484   -4.7813 C.ar      1 <0>        -0.1637
     15 C11        -1.4705    1.7246    0.1887 C.3       1 <0>         0.0216
     16 C12        -0.8338    3.0614    0.4501 C.2       1 <0>        -0.2908
     17 C13         0.5056    2.8452    0.5499 C.2       1 <0>         0.2180
     18 C14         1.4752    3.9834    0.7970 C.3       1 <0>        -0.0735
     19 C15         0.8508    5.2697    0.2446 C.3       1 <0>        -0.0536
     20 C16        -0.5244    5.5041    0.8715 C.3       1 <0>        -0.1448
     21 C17        -1.4274    4.3262    0.5762 C.2       1 <0>         0.3994
     22 O2         -2.6273    4.4711    0.4528 O.2       1 <0>        -0.4059
     23 C18         0.7015    5.1489   -1.2732 C.3       1 <0>        -0.1519
     24 C19         1.7645    6.4527    0.5711 C.3       1 <0>        -0.1428
     25 N3          0.8059    1.5296    0.3959 N.am      1 <0>        -0.5332
     26 C20        -0.2878    0.7725    0.1785 C.2       1 <0>         0.5395
     27 O3         -0.3202   -0.4269    0.0044 O.2       1 <0>        -0.4492
     28 C21         2.1676    0.9928    0.4595 C.3       1 <0>         0.1393
     29 C22         2.7773    1.0053   -0.9185 C.ar      1 <0>        -0.1233
     30 C23         2.6369   -0.0927   -1.7465 C.ar      1 <0>        -0.0980
     31 C24         3.1929   -0.0798   -3.0120 C.ar      1 <0>        -0.1198
     32 C25         3.8967    1.0279   -3.4464 C.ar      1 <0>        -0.1063
     33 C26         4.0413    2.1240   -2.6167 C.ar      1 <0>        -0.1185
     34 C27         3.4820    2.1126   -1.3526 C.ar      1 <0>        -0.1005
     35 C28        -2.4443    1.3640    1.3125 C.3       1 <0>         0.4709
     36 F1         -1.7775    1.4145    2.5413 F         1 <0>        -0.1837
     37 F2         -3.5057    2.2754    1.3200 F         1 <0>        -0.1307
     38 F3         -2.9399    0.0726    1.1035 F         1 <0>        -0.1745
     39 H2         -0.6780   -0.7466   -2.0370 H         1 <0>         0.1160
     40 H3         -0.1687    0.2445   -3.4251 H         1 <0>         0.0819
     41 H4          0.2998    0.7173   -1.7743 H         1 <0>         0.0947
     42 H5         -5.6128    3.6298   -1.7621 H         1 <0>         0.1604
     43 H6         -7.5744    4.4473   -3.0036 H         1 <0>         0.1334
     44 H7         -7.8702    3.8509   -5.3729 H         1 <0>         0.1274
     45 H8         -6.2010    2.4451   -6.5107 H         1 <0>         0.1292
     46 H9         -4.2305    1.6313   -5.2812 H         1 <0>         0.1174
     47 H10         1.6521    4.0903    1.8672 H         1 <0>         0.1109
     48 H11         2.4168    3.7823    0.2860 H         1 <0>         0.0975
     49 H12        -0.9282    6.3348    0.4883 H         1 <0>         0.0885
     50 H13        -0.4167    5.6169    1.9503 H         1 <0>         0.1007
     51 H14         0.2717    6.0685   -1.6704 H         1 <0>         0.0635
     52 H15         1.6805    4.9818   -1.7225 H         1 <0>         0.0609
     53 H16         0.0460    4.3103   -1.5083 H         1 <0>         0.0583
     54 H17         1.8676    6.5447    1.6523 H         1 <0>         0.0631
     55 H18         2.7454    6.2881    0.1253 H         1 <0>         0.0623
     56 H19         1.3314    7.3683    0.1682 H         1 <0>         0.0657
     57 H20         2.7695    1.6076    1.1288 H         1 <0>         0.1068
     58 H21         2.1377   -0.0302    0.8344 H         1 <0>         0.1097
     59 H22         2.0902   -0.9596   -1.4057 H         1 <0>         0.1286
     60 H23         3.0803   -0.9363   -3.6601 H         1 <0>         0.1260
     61 H24         4.3340    1.0367   -4.4338 H         1 <0>         0.1247
     62 H25         4.5915    2.9892   -2.9559 H         1 <0>         0.1259
     63 H26         3.5952    2.9688   -0.7042 H         1 <0>         0.1243
@<TRIPOS>BOND
     1    1    2 1
     2    1   39 1
     3    1   40 1
     4    1   41 1
     5    2    7 1
     6    2    3 2
     7    3    4 1
     8    3   15 1
     9    4    5 2
    10    4    6 am
    11    6    7 1
    12    6    9 1
    13    7    8 1
    14    9   14 ar
    15    9   10 ar
    16   10   11 ar
    17   10   42 1
    18   11   12 ar
    19   11   43 1
    20   12   13 ar
    21   12   44 1
    22   13   14 ar
    23   13   45 1
    24   14   46 1
    25   15   26 1
    26   15   16 1
    27   15   35 1
    28   16   21 1
    29   16   17 2
    30   17   18 1
    31   17   25 1
    32   18   19 1
    33   18   47 1
    34   18   48 1
    35   19   20 1
    36   19   23 1
    37   19   24 1
    38   20   21 1
    39   20   49 1
    40   20   50 1
    41   21   22 2
    42   23   51 1
    43   23   52 1
    44   23   53 1
    45   24   54 1
    46   24   55 1
    47   24   56 1
    48   25   26 am
    49   25   28 1
    50   26   27 2
    51   28   29 1
    52   28   57 1
    53   28   58 1
    54   29   34 ar
    55   29   30 ar
    56   30   31 ar
    57   30   59 1
    58   31   32 ar
    59   31   60 1
    60   32   33 ar
    61   32   61 1
    62   33   34 ar
    63   33   62 1
    64   34   63 1
    65   35   36 1
    66   35   37 1
    67   35   38 1
@<TRIPOS>MOLECULE
ZINC33353700
   60    64     0     0     0
SMALL
USER_CHARGES

@<TRIPOS>ATOM
      1 C1         -0.0893    1.1920   -1.2685 C.3       1 <0>        -0.1337
      2 C2         -0.0569   -0.2576   -0.8576 C.2       1 <0>         0.2312
      3 C3         -1.0569   -0.9272   -0.2495 C.2       1 <0>        -0.3158
      4 C4         -0.6283   -2.2582   -0.0366 C.2       1 <0>         0.5450
      5 O1         -1.2748   -3.1464    0.4891 O.2       1 <0>        -0.4597
      6 N1          0.6255   -2.3659   -0.5217 N.am      1 <0>        -0.3595
      7 N2          0.9885   -1.1172   -1.0434 N.pl3     1 <0>        -0.4842
      8 H1          1.8363   -0.9000   -1.4619 H         1 <0>         0.4458
      9 C5          1.4182   -3.5180   -0.5112 C.ar      1 <0>         0.1692
     10 C6          0.9245   -4.6976    0.0310 C.ar      1 <0>        -0.1382
     11 C7          1.7098   -5.8337    0.0394 C.ar      1 <0>        -0.0840
     12 C8          2.9863   -5.7976   -0.4912 C.ar      1 <0>        -0.1396
     13 C9          3.4810   -4.6247   -1.0313 C.ar      1 <0>        -0.0888
     14 C10         2.6988   -3.4866   -1.0480 C.ar      1 <0>        -0.1632
     15 C11        -2.3972   -0.3567    0.1366 C.3       1 <0>         0.0238
     16 C12        -3.4717   -0.8515   -0.7915 C.2       1 <0>        -0.2795
     17 C13        -3.9889    0.2431   -1.4121 C.2       1 <0>         0.2140
     18 C14        -5.1013    0.1222   -2.4340 C.3       1 <0>        -0.0691
     19 C15        -5.0069   -1.2652   -3.0790 C.3       1 <0>        -0.0532
     20 C16        -5.0554   -2.3540   -2.0061 C.3       1 <0>        -0.1541
     21 C17        -3.9151   -2.1609   -1.0303 C.2       1 <0>         0.4004
     22 O2         -3.3999   -3.1091   -0.4720 O.2       1 <0>        -0.4023
     23 C18        -3.6918   -1.3753   -3.8532 C.3       1 <0>        -0.1531
     24 C19        -6.1771   -1.4548   -4.0462 C.3       1 <0>        -0.1421
     25 N3         -3.3800    1.3833   -0.9904 N.am      1 <0>        -0.4920
     26 C20        -2.4204    1.1467   -0.0740 C.2       1 <0>         0.5368
     27 O3         -1.7168    1.9692    0.4724 O.2       1 <0>        -0.4341
     28 C21        -3.7127    2.6616   -1.4569 C.ar      1 <0>         0.1187
     29 C22        -3.4515    3.0109   -2.7755 C.ar      1 <0>        -0.1059
     30 C23        -3.7803    4.2717   -3.2330 C.ar      1 <0>        -0.0910
     31 C24        -4.3688    5.1870   -2.3798 C.ar      1 <0>        -0.0943
     32 C25        -4.6301    4.8428   -1.0652 C.ar      1 <0>        -0.0220
     33 C26        -4.3091    3.5798   -0.6035 C.ar      1 <0>        -0.0907
     34 Cl1        -5.3680    5.9953    0.0030 Cl        1 <0>        -0.0499
     35 C27        -2.7315   -0.7036    1.5888 C.3       1 <0>         0.4723
     36 F1         -1.7431   -0.1841    2.4317 F         1 <0>        -0.1725
     37 F2         -3.9710   -0.1500    1.9271 F         1 <0>        -0.1834
     38 F3         -2.7860   -2.0938    1.7355 F         1 <0>        -0.1292
     39 H2          0.8105    1.4289   -1.8361 H         1 <0>         0.0855
     40 H3         -0.9679    1.3746   -1.8873 H         1 <0>         0.0870
     41 H4         -0.1341    1.8207   -0.3793 H         1 <0>         0.1313
     42 H5         -0.0722   -4.7263    0.4458 H         1 <0>         0.1605
     43 H6          1.3266   -6.7511    0.4611 H         1 <0>         0.1336
     44 H7          3.5983   -6.6874   -0.4834 H         1 <0>         0.1276
     45 H8          4.4786   -4.5997   -1.4443 H         1 <0>         0.1294
     46 H9          3.0840   -2.5721   -1.4743 H         1 <0>         0.1176
     47 H10        -6.0673    0.2342   -1.9416 H         1 <0>         0.1108
     48 H11        -4.9852    0.8916   -3.1973 H         1 <0>         0.0986
     49 H12        -6.0037   -2.2947   -1.4720 H         1 <0>         0.1020
     50 H13        -4.9668   -3.3325   -2.4783 H         1 <0>         0.1002
     51 H14        -2.8548   -1.2333   -3.1696 H         1 <0>         0.0574
     52 H15        -3.6222   -2.3612   -4.3129 H         1 <0>         0.0654
     53 H16        -3.6615   -0.6099   -4.6286 H         1 <0>         0.0611
     54 H17        -6.1360   -0.6890   -4.8208 H         1 <0>         0.0626
     55 H18        -6.1122   -2.4408   -4.5063 H         1 <0>         0.0663
     56 H19        -7.1169   -1.3696   -3.5006 H         1 <0>         0.0628
     57 H20        -2.9912    2.2970   -3.4425 H         1 <0>         0.1374
     58 H21        -3.5772    4.5433   -4.2584 H         1 <0>         0.1460
     59 H22        -4.6246    6.1725   -2.7400 H         1 <0>         0.1440
     60 H23        -4.5178    3.3094    0.4210 H         1 <0>         0.1410
@<TRIPOS>BOND
     1    1    2 1
     2    1   39 1
     3    1   40 1
     4    1   41 1
     5    2    7 1
     6    2    3 2
     7    3    4 1
     8    3   15 1
     9    4    5 2
    10    4    6 am
    11    6    7 1
    12    6    9 1
    13    7    8 1
    14    9   14 ar
    15    9   10 ar
    16   10   11 ar
    17   10   42 1
    18   11   12 ar
    19   11   43 1
    20   12   13 ar
    21   12   44 1
    22   13   14 ar
    23   13   45 1
    24   14   46 1
    25   15   26 1
    26   15   16 1
    27   15   35 1
    28   16   21 1
    29   16   17 2
    30   17   18 1
    31   17   25 1
    32   18   19 1
    33   18   47 1
    34   18   48 1
    35   19   20 1
    36   19   23 1
    37   19   24 1
    38   20   21 1
    39   20   49 1
    40   20   50 1
    41   21   22 2
    42   23   51 1
    43   23   52 1
    44   23   53 1
    45   24   54 1
    46   24   55 1
    47   24   56 1
    48   25   26 am
    49   25   28 1
    50   26   27 2
    51   28   33 ar
    52   28   29 ar
    53   29   30 ar
    54   29   57 1
    55   30   31 ar
    56   30   58 1
    57   31   32 ar
    58   31   59 1
    59   32   33 ar
    60   32   34 1
    61   33   60 1
    62   35   36 1
    63   35   37 1
    64   35   38 1
@<TRIPOS>MOLECULE
ZINC33353703
   60    64     0     0     0
SMALL
USER_CHARGES

@<TRIPOS>ATOM
      1 C1         -0.3651    0.5311    2.0721 C.3       1 <0>        -0.1136
      2 C2         -0.1393   -0.4319    0.9352 C.2       1 <0>         0.2265
      3 C3         -1.0862   -0.8939    0.0936 C.2       1 <0>        -0.3017
      4 C4         -0.4659   -1.7714   -0.8261 C.2       1 <0>         0.5546
      5 O1         -1.0173   -2.3723   -1.7306 O.2       1 <0>        -0.4987
      6 N1          0.8468   -1.8218   -0.5206 N.am      1 <0>        -0.3535
      7 N2          1.0603   -0.9800    0.5790 N.pl3     1 <0>        -0.4814
      8 H1          1.9119   -0.8166    1.0136 H         1 <0>         0.4473
      9 C5          1.8204   -2.5742   -1.1852 C.ar      1 <0>         0.1661
     10 C6          1.4686   -3.3612   -2.2742 C.ar      1 <0>        -0.1367
     11 C7          2.4326   -4.1026   -2.9287 C.ar      1 <0>        -0.0839
     12 C8          3.7470   -4.0621   -2.5007 C.ar      1 <0>        -0.1371
     13 C9          4.1005   -3.2799   -1.4165 C.ar      1 <0>        -0.0889
     14 C10         3.1423   -2.5317   -0.7612 C.ar      1 <0>        -0.1603
     15 C11        -2.5502   -0.5381    0.1275 C.3       1 <0>         0.0216
     16 C12        -3.1492   -0.8834    1.4627 C.2       1 <0>        -0.2986
     17 C13        -3.5974    0.2810    2.0047 C.2       1 <0>         0.2266
     18 C14        -4.2742    0.3146    3.3602 C.3       1 <0>        -0.0707
     19 C15        -4.9279   -1.0510    3.6002 C.3       1 <0>        -0.0542
     20 C16        -3.8890   -2.1664    3.4746 C.3       1 <0>        -0.1537
     21 C17        -3.2639   -2.1295    2.0970 C.2       1 <0>         0.4158
     22 O2         -2.8742   -3.1460    1.5576 O.2       1 <0>        -0.4335
     23 C18        -5.5365   -1.0815    5.0036 C.3       1 <0>        -0.1417
     24 C19        -6.0348   -1.2712    2.5672 C.3       1 <0>        -0.1579
     25 N3         -3.3535    1.3350    1.1811 N.am      1 <0>        -0.4937
     26 C20        -2.7381    0.9659    0.0401 C.2       1 <0>         0.5353
     27 O3         -2.4020    1.6897   -0.8727 O.2       1 <0>        -0.4259
     28 C21        -3.7026    2.6572    1.4847 C.ar      1 <0>         0.1174
     29 C22        -3.0725    3.3207    2.5296 C.ar      1 <0>        -0.1054
     30 C23        -3.4183    4.6242    2.8270 C.ar      1 <0>        -0.0911
     31 C24        -4.3914    5.2694    2.0861 C.ar      1 <0>        -0.0944
     32 C25        -5.0217    4.6114    1.0446 C.ar      1 <0>        -0.0218
     33 C26        -4.6748    3.3087    0.7382 C.ar      1 <0>        -0.0910
     34 Cl1        -6.2436    5.4247    0.1177 Cl        1 <0>        -0.0495
     35 C27        -3.3015   -1.2427   -1.0038 C.3       1 <0>         0.4857
     36 F1         -3.1816   -2.6282   -0.8512 F         1 <0>        -0.1401
     37 F2         -4.6531   -0.8840   -0.9602 F         1 <0>        -0.1860
     38 F3         -2.7570   -0.8601   -2.2344 F         1 <0>        -0.1601
     39 H2          0.5673    0.6731    2.6186 H         1 <0>         0.0913
     40 H3         -0.7033    1.4885    1.6757 H         1 <0>         0.0921
     41 H4         -1.1226    0.1283    2.7445 H         1 <0>         0.1002
     42 H5          0.4422   -3.3935   -2.6087 H         1 <0>         0.1595
     43 H6          2.1596   -4.7150   -3.7753 H         1 <0>         0.1346
     44 H7          4.4989   -4.6428   -3.0142 H         1 <0>         0.1287
     45 H8          5.1277   -3.2510   -1.0844 H         1 <0>         0.1305
     46 H9          3.4199   -1.9173    0.0825 H         1 <0>         0.1185
     47 H10        -3.5342    0.5100    4.1363 H         1 <0>         0.1114
     48 H11        -5.0357    1.0944    3.3722 H         1 <0>         0.1025
     49 H12        -3.1141   -2.0266    4.2283 H         1 <0>         0.1029
     50 H13        -4.3727   -3.1312    3.6275 H         1 <0>         0.1030
     51 H14        -6.2883   -0.2971    5.0907 H         1 <0>         0.0639
     52 H15        -6.0020   -2.0518    5.1767 H         1 <0>         0.0672
     53 H16        -4.7528   -0.9174    5.7432 H         1 <0>         0.0621
     54 H17        -5.6073   -1.2427    1.5649 H         1 <0>         0.0599
     55 H18        -6.5012   -2.2418    2.7358 H         1 <0>         0.0676
     56 H19        -6.7844   -0.4860    2.6649 H         1 <0>         0.0639
     57 H20        -2.3129    2.8175    3.1093 H         1 <0>         0.1377
     58 H21        -2.9284    5.1401    3.6395 H         1 <0>         0.1463
     59 H22        -4.6603    6.2887    2.3210 H         1 <0>         0.1441
     60 H23        -5.1630    2.7969   -0.0780 H         1 <0>         0.1406
@<TRIPOS>BOND
     1    1    2 1
     2    1   39 1
     3    1   40 1
     4    1   41 1
     5    2    7 1
     6    2    3 2
     7    3    4 1
     8    3   15 1
     9    4    5 2
    10    4    6 am
    11    6    7 1
    12    6    9 1
    13    7    8 1
    14    9   14 ar
    15    9   10 ar
    16   10   11 ar
    17   10   42 1
    18   11   12 ar
    19   11   43 1
    20   12   13 ar
    21   12   44 1
    22   13   14 ar
    23   13   45 1
    24   14   46 1
    25   15   26 1
    26   15   16 1
    27   15   35 1
    28   16   21 1
    29   16   17 2
    30   17   18 1
    31   17   25 1
    32   18   19 1
    33   18   47 1
    34   18   48 1
    35   19   20 1
    36   19   23 1
    37   19   24 1
    38   20   21 1
    39   20   49 1
    40   20   50 1
    41   21   22 2
    42   23   51 1
    43   23   52 1
    44   23   53 1
    45   24   54 1
    46   24   55 1
    47   24   56 1
    48   25   26 am
    49   25   28 1
    50   26   27 2
    51   28   33 ar
    52   28   29 ar
    53   29   30 ar
    54   29   57 1
    55   30   31 ar
    56   30   58 1
    57   31   32 ar
    58   31   59 1
    59   32   33 ar
    60   32   34 1
    61   33   60 1
    62   35   36 1
    63   35   37 1
    64   35   38 1
@<TRIPOS>MOLECULE
ZINC02863466
   60    64     0     0     0
SMALL
USER_CHARGES

@<TRIPOS>ATOM
      1 C1         -0.3657    0.5320    2.0734 C.3       1 <0>        -0.1132
      2 C2         -0.1393   -0.4317    0.9371 C.2       1 <0>         0.2262
      3 C3         -1.0856   -0.8941    0.0951 C.2       1 <0>        -0.3008
      4 C4         -0.4648   -1.7722   -0.8236 C.2       1 <0>         0.5546
      5 O1         -1.0157   -2.3735   -1.7282 O.2       1 <0>        -0.4992
      6 N1          0.8476   -1.8227   -0.5171 N.am      1 <0>        -0.3538
      7 N2          1.0605   -0.9803    0.5822 N.pl3     1 <0>        -0.4820
      8 H1          1.9118   -0.8168    1.0173 H         1 <0>         0.4471
      9 C5          1.8216   -2.5757   -1.1806 C.ar      1 <0>         0.1664
     10 C6          1.4704   -3.3632   -2.2694 C.ar      1 <0>        -0.1368
     11 C7          2.4348   -4.1051   -2.9227 C.ar      1 <0>        -0.0839
     12 C8          3.7488   -4.0646   -2.4938 C.ar      1 <0>        -0.1374
     13 C9          4.1017   -3.2820   -1.4098 C.ar      1 <0>        -0.0889
     14 C10         3.1432   -2.5331   -0.7556 C.ar      1 <0>        -0.1604
     15 C11        -2.5496   -0.5380    0.1278 C.3       1 <0>         0.0214
     16 C12        -3.1500   -0.8835    1.4622 C.2       1 <0>        -0.3038
     17 C13        -3.5984    0.2809    2.0042 C.2       1 <0>         0.2295
     18 C14        -4.2765    0.3142    3.3591 C.3       1 <0>        -0.0700
     19 C15        -4.9306   -1.0514    3.5981 C.3       1 <0>        -0.0543
     20 C16        -3.8919   -2.1669    3.4731 C.3       1 <0>        -0.1538
     21 C17        -3.2658   -2.1298    2.0959 C.2       1 <0>         0.4161
     22 O2         -2.8758   -3.1463    1.5567 O.2       1 <0>        -0.4355
     23 C18        -5.5406   -1.0821    5.0009 C.3       1 <0>        -0.1416
     24 C19        -6.0366   -1.2710    2.5639 C.3       1 <0>        -0.1574
     25 N3         -3.3535    1.3350    1.1811 N.am      1 <0>        -0.4921
     26 C20        -2.7371    0.9661    0.0406 C.2       1 <0>         0.5355
     27 O3         -2.3995    1.6902   -0.8714 O.2       1 <0>        -0.4288
     28 C21        -3.7036    2.6570    1.4842 C.ar      1 <0>         0.1016
     29 C22        -3.0749    3.3211    2.5292 C.ar      1 <0>        -0.1090
     30 C23        -3.4220    4.6247    2.8253 C.ar      1 <0>        -0.1060
     31 C24        -4.3944    5.2686    2.0823 C.ar      1 <0>        -0.1031
     32 C25        -5.0223    4.6100    1.0411 C.ar      1 <0>        -0.1030
     33 C26        -4.6760    3.3081    0.7367 C.ar      1 <0>        -0.0971
     34 C27        -3.3000   -1.2421   -1.0044 C.3       1 <0>         0.4857
     35 F1         -3.1805   -2.6277   -0.8522 F         1 <0>        -0.1405
     36 F2         -4.6515   -0.8832   -0.9620 F         1 <0>        -0.1864
     37 F3         -2.7542   -0.8593   -2.2344 F         1 <0>        -0.1607
     38 H2          0.5664    0.6745    2.6202 H         1 <0>         0.0908
     39 H3         -0.7039    1.4890    1.6762 H         1 <0>         0.0924
     40 H4         -1.1234    0.1294    2.7457 H         1 <0>         0.1000
     41 H5          0.4443   -3.3955   -2.6046 H         1 <0>         0.1595
     42 H6          2.1623   -4.7180   -3.7692 H         1 <0>         0.1345
     43 H7          4.5011   -4.6458   -3.0064 H         1 <0>         0.1286
     44 H8          5.1287   -3.2530   -1.0769 H         1 <0>         0.1305
     45 H9          3.4203   -1.9183    0.0880 H         1 <0>         0.1185
     46 H10        -3.5372    0.5092    4.1360 H         1 <0>         0.1102
     47 H11        -5.0378    1.0941    3.3705 H         1 <0>         0.1024
     48 H12        -3.1177   -2.0275    4.2276 H         1 <0>         0.1023
     49 H13        -4.3759   -3.1316    3.6254 H         1 <0>         0.1024
     50 H14        -6.2923   -0.2976    5.0875 H         1 <0>         0.0637
     51 H15        -6.0065   -2.0523    5.1733 H         1 <0>         0.0669
     52 H16        -4.7575   -0.9184    5.7412 H         1 <0>         0.0618
     53 H17        -5.6082   -1.2423    1.5621 H         1 <0>         0.0600
     54 H18        -6.5034   -2.2416    2.7318 H         1 <0>         0.0671
     55 H19        -6.7862   -0.4857    2.6612 H         1 <0>         0.0635
     56 H20        -2.3156    2.8186    3.1100 H         1 <0>         0.1297
     57 H21        -2.9336    5.1416    3.6381 H         1 <0>         0.1347
     58 H22        -4.6643    6.2879    2.3160 H         1 <0>         0.1322
     59 H23        -5.7817    5.1155    0.4629 H         1 <0>         0.1348
     60 H24        -5.1635    2.7958   -0.0795 H         1 <0>         0.1291
@<TRIPOS>BOND
     1    1    2 1
     2    1   38 1
     3    1   39 1
     4    1   40 1
     5    2    7 1
     6    2    3 2
     7    3    4 1
     8    3   15 1
     9    4    5 2
    10    4    6 am
    11    6    7 1
    12    6    9 1
    13    7    8 1
    14    9   14 ar
    15    9   10 ar
    16   10   11 ar
    17   10   41 1
    18   11   12 ar
    19   11   42 1
    20   12   13 ar
    21   12   43 1
    22   13   14 ar
    23   13   44 1
    24   14   45 1
    25   15   26 1
    26   15   16 1
    27   15   34 1
    28   16   21 1
    29   16   17 2
    30   17   18 1
    31   17   25 1
    32   18   19 1
    33   18   46 1
    34   18   47 1
    35   19   20 1
    36   19   23 1
    37   19   24 1
    38   20   21 1
    39   20   48 1
    40   20   49 1
    41   21   22 2
    42   23   50 1
    43   23   51 1
    44   23   52 1
    45   24   53 1
    46   24   54 1
    47   24   55 1
    48   25   26 am
    49   25   28 1
    50   26   27 2
    51   28   33 ar
    52   28   29 ar
    53   29   30 ar
    54   29   56 1
    55   30   31 ar
    56   30   57 1
    57   31   32 ar
    58   31   58 1
    59   32   33 ar
    60   32   59 1
    61   33   60 1
    62   34   35 1
    63   34   36 1
    64   34   37 1
@<TRIPOS>MOLECULE
ZINC02863467
   60    64     0     0     0
SMALL
USER_CHARGES

@<TRIPOS>ATOM
      1 C1         -0.0893    1.1921   -1.2678 C.3       1 <0>        -0.1334
      2 C2         -0.0568   -0.2575   -0.8571 C.2       1 <0>         0.2308
      3 C3         -1.0570   -0.9272   -0.2492 C.2       1 <0>        -0.3151
      4 C4         -0.6284   -2.2581   -0.0363 C.2       1 <0>         0.5449
      5 O1         -1.2749   -3.1464    0.4891 O.2       1 <0>        -0.4597
      6 N1          0.6256   -2.3658   -0.5212 N.am      1 <0>        -0.3598
      7 N2          0.9886   -1.1170   -1.0427 N.pl3     1 <0>        -0.4847
      8 H1          1.8365   -0.8997   -1.4609 H         1 <0>         0.4456
      9 C5          1.4183   -3.5178   -0.5106 C.ar      1 <0>         0.1696
     10 C6          0.9246   -4.6975    0.0313 C.ar      1 <0>        -0.1385
     11 C7          1.7099   -5.8335    0.0398 C.ar      1 <0>        -0.0839
     12 C8          2.9865   -5.7974   -0.4905 C.ar      1 <0>        -0.1399
     13 C9          3.4813   -4.6244   -1.0304 C.ar      1 <0>        -0.0888
     14 C10         2.6990   -3.4863   -1.0472 C.ar      1 <0>        -0.1635
     15 C11        -2.3974   -0.3568    0.1367 C.3       1 <0>         0.0235
     16 C12        -3.4717   -0.8515   -0.7917 C.2       1 <0>        -0.2846
     17 C13        -3.9888    0.2431   -1.4123 C.2       1 <0>         0.2170
     18 C14        -5.1010    0.1222   -2.4345 C.3       1 <0>        -0.0685
     19 C15        -5.0063   -1.2651   -3.0796 C.3       1 <0>        -0.0533
     20 C16        -5.0550   -2.3540   -2.0068 C.3       1 <0>        -0.1540
     21 C17        -3.9146   -2.1610   -1.0310 C.2       1 <0>         0.4008
     22 O2         -3.3996   -3.1092   -0.4727 O.2       1 <0>        -0.4042
     23 C18        -6.1763   -1.4546   -4.0471 C.3       1 <0>        -0.1420
     24 C19        -3.6911   -1.3751   -3.8535 C.3       1 <0>        -0.1529
     25 N3         -3.3800    1.3833   -0.9904 N.am      1 <0>        -0.4907
     26 C20        -2.4205    1.1466   -0.0738 C.2       1 <0>         0.5369
     27 O3         -1.7176    1.9692    0.4732 O.2       1 <0>        -0.4370
     28 C21        -3.7124    2.6616   -1.4570 C.ar      1 <0>         0.1029
     29 C22        -4.3039    3.5822   -0.6022 C.ar      1 <0>        -0.0969
     30 C23        -4.6300    4.8420   -1.0651 C.ar      1 <0>        -0.1033
     31 C24        -4.3681    5.1868   -2.3784 C.ar      1 <0>        -0.1030
     32 C25        -3.7792    4.2722   -3.2321 C.ar      1 <0>        -0.1059
     33 C26        -3.4459    3.0127   -2.7738 C.ar      1 <0>        -0.1095
     34 C27        -2.7319   -0.7038    1.5888 C.3       1 <0>         0.4724
     35 F1         -1.7438   -0.1843    2.4319 F         1 <0>        -0.1731
     36 F2         -3.9715   -0.1503    1.9268 F         1 <0>        -0.1838
     37 F3         -2.7864   -2.0940    1.7353 F         1 <0>        -0.1297
     38 H2          0.8107    1.4292   -1.8352 H         1 <0>         0.0848
     39 H3         -0.9676    1.3748   -1.8868 H         1 <0>         0.0873
     40 H4         -0.1343    1.8208   -0.3785 H         1 <0>         0.1314
     41 H5         -0.0722   -4.7263    0.4460 H         1 <0>         0.1605
     42 H6          1.3267   -6.7510    0.4614 H         1 <0>         0.1335
     43 H7          3.5986   -6.6871   -0.4827 H         1 <0>         0.1275
     44 H8          4.4790   -4.5993   -1.4431 H         1 <0>         0.1293
     45 H9          3.0842   -2.5717   -1.4733 H         1 <0>         0.1176
     46 H10        -6.0670    0.2341   -1.9423 H         1 <0>         0.1099
     47 H11        -4.9847    0.8917   -3.1977 H         1 <0>         0.0985
     48 H12        -6.0034   -2.2947   -1.4729 H         1 <0>         0.1015
     49 H13        -4.9663   -3.3324   -2.4790 H         1 <0>         0.0996
     50 H14        -6.1351   -0.6888   -4.8216 H         1 <0>         0.0623
     51 H15        -6.1113   -2.4406   -4.5072 H         1 <0>         0.0660
     52 H16        -7.1162   -1.3695   -3.5017 H         1 <0>         0.0626
     53 H17        -2.8542   -1.2331   -3.1697 H         1 <0>         0.0574
     54 H18        -3.6213   -2.3609   -4.3132 H         1 <0>         0.0650
     55 H19        -3.6606   -0.6096   -4.6289 H         1 <0>         0.0608
     56 H20        -4.5091    3.3134    0.4235 H         1 <0>         0.1294
     57 H21        -5.0904    5.5583   -0.4008 H         1 <0>         0.1347
     58 H22        -4.6244    6.1724   -2.7381 H         1 <0>         0.1321
     59 H23        -3.5762    4.5444   -4.2574 H         1 <0>         0.1343
     60 H24        -2.9818    2.3004   -3.4398 H         1 <0>         0.1293
@<TRIPOS>BOND
     1    1    2 1
     2    1   38 1
     3    1   39 1
     4    1   40 1
     5    2    7 1
     6    2    3 2
     7    3    4 1
     8    3   15 1
     9    4    5 2
    10    4    6 am
    11    6    7 1
    12    6    9 1
    13    7    8 1
    14    9   14 ar
    15    9   10 ar
    16   10   11 ar
    17   10   41 1
    18   11   12 ar
    19   11   42 1
    20   12   13 ar
    21   12   43 1
    22   13   14 ar
    23   13   44 1
    24   14   45 1
    25   15   26 1
    26   15   16 1
    27   15   34 1
    28   16   21 1
    29   16   17 2
    30   17   18 1
    31   17   25 1
    32   18   19 1
    33   18   46 1
    34   18   47 1
    35   19   20 1
    36   19   23 1
    37   19   24 1
    38   20   21 1
    39   20   48 1
    40   20   49 1
    41   21   22 2
    42   23   50 1
    43   23   51 1
    44   23   52 1
    45   24   53 1
    46   24   54 1
    47   24   55 1
    48   25   26 am
    49   25   28 1
    50   26   27 2
    51   28   33 ar
    52   28   29 ar
    53   29   30 ar
    54   29   56 1
    55   30   31 ar
    56   30   57 1
    57   31   32 ar
    58   31   58 1
    59   32   33 ar
    60   32   59 1
    61   33   60 1
    62   34   35 1
    63   34   36 1
    64   34   37 1
@<TRIPOS>MOLECULE
ZINC03626882
   64    68     0     0     0
SMALL
USER_CHARGES
1-(4-methoxyphenyl)-6,6-dimethyl-3-(3-methyl-5-oxo-1-phenyl-2H-pyrazol-4-yl)-3-(trifluoromethyl)-5,7-dihydroindole-2,4-dione
@<TRIPOS>ATOM
      1 C1         -0.0995    2.0763    1.9901 C.3       1 <0>        -0.1332
      2 C2          0.5076    1.3197    0.8367 C.2       1 <0>         0.2316
      3 C3          1.3328    1.8349   -0.0970 C.2       1 <0>        -0.3160
      4 C4          1.6761    0.8005   -0.9984 C.2       1 <0>         0.5440
      5 O1          2.4091    0.9034   -1.9656 O.2       1 <0>        -0.4591
      6 N1          1.0496   -0.3218   -0.5899 N.am      1 <0>        -0.3600
      7 N2          0.3149   -0.0042    0.5602 N.pl3     1 <0>        -0.4849
      8 H1         -0.2354   -0.6180    1.0714 H         1 <0>         0.4456
      9 C5          1.1210   -1.5766   -1.2032 C.ar      1 <0>         0.1697
     10 C6          1.8883   -1.7491   -2.3480 C.ar      1 <0>        -0.1386
     11 C7          1.9605   -2.9907   -2.9484 C.ar      1 <0>        -0.0840
     12 C8          1.2614   -4.0590   -2.4172 C.ar      1 <0>        -0.1400
     13 C9          0.4923   -3.8894   -1.2805 C.ar      1 <0>        -0.0889
     14 C10         0.4201   -2.6516   -0.6722 C.ar      1 <0>        -0.1635
     15 C11         1.8070    3.2636   -0.1675 C.3       1 <0>         0.0241
     16 C12         1.1527    3.9839   -1.3137 C.2       1 <0>        -0.2848
     17 C13         0.4294    5.0048   -0.7697 C.2       1 <0>         0.2154
     18 C14        -0.3821    5.9478   -1.6351 C.3       1 <0>        -0.0709
     19 C15        -0.7792    5.1993   -2.9126 C.3       1 <0>        -0.0547
     20 C16         0.4641    4.6555   -3.6178 C.3       1 <0>        -0.1444
     21 C17         1.2127    3.7253   -2.6881 C.2       1 <0>         0.3981
     22 O2          1.8481    2.7842   -3.1203 O.2       1 <0>        -0.4006
     23 C18        -1.7057    4.0366   -2.5510 C.3       1 <0>        -0.1536
     24 C19        -1.5125    6.1573   -3.8536 C.3       1 <0>        -0.1425
     25 N3          0.5496    5.0295    0.5840 N.am      1 <0>        -0.4823
     26 C20         1.3416    4.0432    1.0495 C.2       1 <0>         0.5353
     27 O3          1.6260    3.8232    2.2074 O.2       1 <0>        -0.4379
     28 C21        -0.0798    5.9761    1.4049 C.ar      1 <0>         0.0663
     29 C22         0.6731    6.7437    2.2833 C.ar      1 <0>        -0.0560
     30 C23         0.0535    7.6797    3.0873 C.ar      1 <0>        -0.1915
     31 C24        -1.3226    7.8453    3.0257 C.ar      1 <0>         0.1425
     32 C25        -2.0762    7.0745    2.1523 C.ar      1 <0>        -0.1358
     33 C26        -1.4570    6.1422    1.3438 C.ar      1 <0>        -0.0746
     34 O4         -1.9329    8.7628    3.8219 O.3       1 <0>        -0.3118
     35 C27        -1.0958    9.5214    4.6970 C.3       1 <0>         0.0232
     36 C28         3.3307    3.3192   -0.2940 C.3       1 <0>         0.4738
     37 F1          3.7169    2.7715   -1.5220 F         1 <0>        -0.1324
     38 F2          3.7563    4.6500   -0.2225 F         1 <0>        -0.1843
     39 F3          3.9121    2.5871    0.7467 F         1 <0>        -0.1727
     40 H2         -0.8061    1.4333    2.5147 H         1 <0>         0.0837
     41 H3          0.6886    2.3861    2.6764 H         1 <0>         0.1337
     42 H4         -0.6200    2.9568    1.6133 H         1 <0>         0.0877
     43 H5          2.4312   -0.9141   -2.7657 H         1 <0>         0.1605
     44 H6          2.5600   -3.1264   -3.8365 H         1 <0>         0.1334
     45 H7          1.3160   -5.0279   -2.8912 H         1 <0>         0.1274
     46 H8         -0.0527   -4.7257   -0.8683 H         1 <0>         0.1293
     47 H9         -0.1811   -2.5198    0.2153 H         1 <0>         0.1176
     48 H10        -1.2776    6.2611   -1.0985 H         1 <0>         0.0998
     49 H11         0.2184    6.8206   -1.8915 H         1 <0>         0.1108
     50 H12         0.1894    4.1535   -4.4379 H         1 <0>         0.0893
     51 H13         1.1130    5.4847   -3.8995 H         1 <0>         0.1008
     52 H14        -2.5998    4.4231   -2.0619 H         1 <0>         0.0616
     53 H15        -1.9896    3.5027   -3.4579 H         1 <0>         0.0651
     54 H16        -1.1876    3.3557   -1.8757 H         1 <0>         0.0580
     55 H17        -0.8566    6.9899   -4.1078 H         1 <0>         0.0629
     56 H18        -1.7961    5.6274   -4.7629 H         1 <0>         0.0659
     57 H19        -2.4073    6.5372   -3.3604 H         1 <0>         0.0631
     58 H20         1.7438    6.6116    2.3347 H         1 <0>         0.1333
     59 H21         0.6396    8.2798    3.7676 H         1 <0>         0.1399
     60 H22        -3.1474    7.2035    2.1051 H         1 <0>         0.1433
     61 H23        -2.0437    5.5420    0.6641 H         1 <0>         0.1382
     62 H24        -0.5730    8.8469    5.3750 H         1 <0>         0.0594
     63 H25        -0.3685   10.0814    4.1092 H         1 <0>         0.0595
     64 H26        -1.7075   10.2148    5.2743 H         1 <0>         0.1049
@<TRIPOS>BOND
     1    1    2 1
     2    1   40 1
     3    1   41 1
     4    1   42 1
     5    2    7 1
     6    2    3 2
     7    3    4 1
     8    3   15 1
     9    4    5 2
    10    4    6 am
    11    6    7 1
    12    6    9 1
    13    7    8 1
    14    9   14 ar
    15    9   10 ar
    16   10   11 ar
    17   10   43 1
    18   11   12 ar
    19   11   44 1
    20   12   13 ar
    21   12   45 1
    22   13   14 ar
    23   13   46 1
    24   14   47 1
    25   15   26 1
    26   15   16 1
    27   15   36 1
    28   16   21 1
    29   16   17 2
    30   17   18 1
    31   17   25 1
    32   18   19 1
    33   18   48 1
    34   18   49 1
    35   19   20 1
    36   19   23 1
    37   19   24 1
    38   20   21 1
    39   20   50 1
    40   20   51 1
    41   21   22 2
    42   23   52 1
    43   23   53 1
    44   23   54 1
    45   24   55 1
    46   24   56 1
    47   24   57 1
    48   25   26 am
    49   25   28 1
    50   26   27 2
    51   28   33 ar
    52   28   29 ar
    53   29   30 ar
    54   29   58 1
    55   30   31 ar
    56   30   59 1
    57   31   32 ar
    58   31   34 1
    59   32   33 ar
    60   32   60 1
    61   33   61 1
    62   34   35 1
    63   35   62 1
    64   35   63 1
    65   35   64 1
    66   36   37 1
    67   36   38 1
    68   36   39 1
@<TRIPOS>MOLECULE
ZINC03626883
   64    68     0     0     0
SMALL
USER_CHARGES
1-(4-methoxyphenyl)-6,6-dimethyl-3-(3-methyl-5-oxo-1-phenyl-2H-pyrazol-4-yl)-3-(trifluoromethyl)-5,7-dihydroindole-2,4-dione
@<TRIPOS>ATOM
      1 C1          0.5872    2.2322   -3.0249 C.3       1 <0>        -0.1169
      2 C2          1.3424    3.5042   -2.7372 C.2       1 <0>         0.2251
      3 C3          1.2740    4.2209   -1.5971 C.2       1 <0>        -0.2996
      4 C4          2.1267    5.3413   -1.7309 C.2       1 <0>         0.5549
      5 O1          2.3108    6.2087   -0.8960 O.2       1 <0>        -0.4977
      6 N1          2.7019    5.2735   -2.9489 N.am      1 <0>        -0.3539
      7 N2          2.2122    4.1263   -3.5873 N.pl3     1 <0>        -0.4828
      8 H1          2.4496    3.8259   -4.4785 H         1 <0>         0.4470
      9 C5          3.6174    6.1868   -3.4812 C.ar      1 <0>         0.1666
     10 C6          4.0136    7.2898   -2.7358 C.ar      1 <0>        -0.1367
     11 C7          4.9222    8.1868   -3.2623 C.ar      1 <0>        -0.0839
     12 C8          5.4288    7.9940   -4.5345 C.ar      1 <0>        -0.1376
     13 C9          5.0321    6.8999   -5.2814 C.ar      1 <0>        -0.0890
     14 C10         4.1281    5.9960   -4.7587 C.ar      1 <0>        -0.1607
     15 C11         0.4310    3.8893   -0.3927 C.3       1 <0>         0.0202
     16 C12         0.8671    2.5862    0.2177 C.2       1 <0>        -0.3031
     17 C13        -0.1982    1.7429    0.1451 C.2       1 <0>         0.2279
     18 C14        -0.1244    0.3263    0.6784 C.3       1 <0>        -0.0698
     19 C15         0.9231    0.2923    1.7970 C.3       1 <0>        -0.0555
     20 C16         2.2664    0.8120    1.2826 C.3       1 <0>        -0.1438
     21 C17         2.1047    2.2274    0.7719 C.2       1 <0>         0.4151
     22 O2          3.0171    3.0268    0.8398 O.2       1 <0>        -0.4339
     23 C18         0.4521    1.1693    2.9588 C.3       1 <0>        -0.1575
     24 C19         1.0918   -1.1465    2.2893 C.3       1 <0>        -0.1419
     25 N3         -1.2663    2.3463   -0.4404 N.am      1 <0>        -0.4879
     26 C20        -1.0055    3.6182   -0.8024 C.2       1 <0>         0.5357
     27 O3         -1.7668    4.3918   -1.3429 O.2       1 <0>        -0.4294
     28 C21        -2.5008    1.7148   -0.6477 C.ar      1 <0>         0.0611
     29 C22        -2.6054    0.6787   -1.5661 C.ar      1 <0>        -0.0643
     30 C23        -3.8202    0.0537   -1.7660 C.ar      1 <0>        -0.1973
     31 C24        -4.9386    0.4677   -1.0571 C.ar      1 <0>         0.1471
     32 C25        -4.8360    1.5067   -0.1435 C.ar      1 <0>        -0.1365
     33 C26        -3.6206    2.1290    0.0611 C.ar      1 <0>        -0.0544
     34 O4         -6.1356   -0.1446   -1.2581 O.3       1 <0>        -0.3111
     35 C27        -6.1686   -1.2068   -2.2135 C.3       1 <0>         0.0237
     36 C28         0.4944    5.0169    0.6395 C.3       1 <0>         0.4854
     37 F1          1.8075    5.1514    1.1032 F         1 <0>        -0.1384
     38 F2          0.0843    6.2157    0.0463 F         1 <0>        -0.1628
     39 F3         -0.3506    4.7147    1.7128 F         1 <0>        -0.1863
     40 H2         -0.4070    2.4766   -3.3991 H         1 <0>         0.0977
     41 H3          1.1251    1.6520   -3.7747 H         1 <0>         0.0937
     42 H4          0.4973    1.6479   -2.1091 H         1 <0>         0.0935
     43 H5          3.6146    7.4436   -1.7441 H         1 <0>         0.1596
     44 H6          5.2340    9.0423   -2.6815 H         1 <0>         0.1344
     45 H7          6.1361    8.6991   -4.9454 H         1 <0>         0.1285
     46 H8          5.4293    6.7523   -6.2748 H         1 <0>         0.1303
     47 H9          3.8184    5.1420   -5.3427 H         1 <0>         0.1184
     48 H10        -1.0959    0.0313    1.0749 H         1 <0>         0.1029
     49 H11         0.1683   -0.3534   -0.1218 H         1 <0>         0.1098
     50 H12         2.9343    0.8032    2.0268 H         1 <0>         0.0913
     51 H13         2.6166    0.1721    0.4727 H         1 <0>         0.1017
     52 H14        -0.4978    0.7917    3.3372 H         1 <0>         0.0644
     53 H15         1.1955    1.1468    3.7557 H         1 <0>         0.0670
     54 H16         0.3231    2.1943    2.6112 H         1 <0>         0.0602
     55 H17         1.4200   -1.7771    1.4630 H         1 <0>         0.0618
     56 H18         1.8363   -1.1734    3.0849 H         1 <0>         0.0668
     57 H19         0.1391   -1.5140    2.6706 H         1 <0>         0.0641
     58 H20        -1.7357    0.3590   -2.1210 H         1 <0>         0.1328
     59 H21        -3.9008   -0.7547   -2.4776 H         1 <0>         0.1401
     60 H22        -5.7071    1.8291    0.4076 H         1 <0>         0.1436
     61 H23        -3.5408    2.9376    0.7726 H         1 <0>         0.1371
     62 H24        -5.4843   -1.9963   -1.9028 H         1 <0>         0.0594
     63 H25        -7.1804   -1.6072   -2.2769 H         1 <0>         0.1048
     64 H26        -5.8663   -0.8272   -3.1895 H         1 <0>         0.0589
@<TRIPOS>BOND
     1    1    2 1
     2    1   40 1
     3    1   41 1
     4    1   42 1
     5    2    7 1
     6    2    3 2
     7    3    4 1
     8    3   15 1
     9    4    5 2
    10    4    6 am
    11    6    7 1
    12    6    9 1
    13    7    8 1
    14    9   14 ar
    15    9   10 ar
    16   10   11 ar
    17   10   43 1
    18   11   12 ar
    19   11   44 1
    20   12   13 ar
    21   12   45 1
    22   13   14 ar
    23   13   46 1
    24   14   47 1
    25   15   26 1
    26   15   16 1
    27   15   36 1
    28   16   21 1
    29   16   17 2
    30   17   18 1
    31   17   25 1
    32   18   19 1
    33   18   48 1
    34   18   49 1
    35   19   20 1
    36   19   23 1
    37   19   24 1
    38   20   21 1
    39   20   50 1
    40   20   51 1
    41   21   22 2
    42   23   52 1
    43   23   53 1
    44   23   54 1
    45   24   55 1
    46   24   56 1
    47   24   57 1
    48   25   26 am
    49   25   28 1
    50   26   27 2
    51   28   33 ar
    52   28   29 ar
    53   29   30 ar
    54   29   58 1
    55   30   31 ar
    56   30   59 1
    57   31   32 ar
    58   31   34 1
    59   32   33 ar
    60   32   60 1
    61   33   61 1
    62   34   35 1
    63   35   62 1
    64   35   63 1
    65   35   64 1
    66   36   37 1
    67   36   38 1
    68   36   39 1
@<TRIPOS>MOLECULE
ZINC43017312
   50    53     0     0     0
SMALL
USER_CHARGES

@<TRIPOS>ATOM
      1 C1         -0.0483    1.3727    0.0255 C.ar      1 <0>        -0.0889
      2 C2          1.1618    2.0497    0.0075 C.ar      1 <0>        -0.1159
      3 C3          2.3384    1.3254   -0.0147 C.ar      1 <0>         0.0833
      4 N1          2.3188    0.0067   -0.0194 N.ar      1 <0>        -0.3898
      5 C4          1.1872   -0.6700   -0.0027 C.ar      1 <0>        -0.4304
      6 C5         -0.0289   -0.0135    0.0204 C.ar      1 <0>        -0.0882
      7 S1          1.2259   -2.4316   -0.0106 S.o2      1 <0>         2.4981
      8 O1         -0.0107   -2.8187   -0.5939 O.2       1 <0>        -0.9286
      9 O2          2.4576   -2.7644   -0.6360 O.2       1 <0>        -0.9080
     10 C6          1.2662   -2.9048    1.7401 C.3       1 <0>        -0.5636
     11 C7          2.4429   -2.2079    2.4294 C.3       1 <0>        -0.1140
     12 C8          2.5574   -2.7326    3.8695 C.3       1 <0>         0.1631
     13 H1          3.2932   -2.1772    4.4511 H         1 <0>         0.1125
     14 C9          1.1494   -2.6796    4.5061 C.3       1 <0>        -0.1333
     15 C10         0.5080   -4.0384    4.1549 C.3       1 <0>        -0.1305
     16 C11         1.5888   -4.7848    3.3393 C.3       1 <0>         0.1397
     17 H2          1.5610   -5.8615    3.5073 H         1 <0>         0.1041
     18 C12         1.4274   -4.4235    1.8539 C.3       1 <0>        -0.1208
     19 N2          2.8822   -4.1772    3.7874 N.am      1 <0>        -0.6328
     20 C13         4.0538   -4.7850    4.0601 C.2       1 <0>         0.7320
     21 O3          5.0092   -4.1276    4.4251 O.2       1 <0>        -0.5626
     22 N3          4.1662   -6.1216    3.9283 N.am      1 <0>        -0.6851
     23 C14         5.4065   -6.7415    4.1173 C.ar      1 <0>         0.1975
     24 C15         5.7586   -7.8426    3.3479 C.ar      1 <0>        -0.1484
     25 C16         6.9836   -8.4518    3.5366 C.ar      1 <0>        -0.0484
     26 C17         7.8592   -7.9665    4.4905 C.ar      1 <0>        -0.2017
     27 C18         7.5115   -6.8705    5.2586 C.ar      1 <0>        -0.0494
     28 C19         6.2902   -6.2533    5.0708 C.ar      1 <0>        -0.1223
     29 C20         9.1951   -8.6337    4.6937 C.3       1 <0>         0.5100
     30 F1         10.1454   -8.0395    3.8564 F         1 <0>        -0.1763
     31 F2          9.5917   -8.4867    6.0272 F         1 <0>        -0.1773
     32 F3          9.0884   -9.9943    4.3862 F         1 <0>        -0.1778
     33 H3         -0.9835    1.9124    0.0475 H         1 <0>         0.1483
     34 H4          1.1843    3.1295    0.0105 H         1 <0>         0.1471
     35 H5          3.2849    1.8452   -0.0288 H         1 <0>         0.1706
     36 H6         -0.9524   -0.5733    0.0343 H         1 <0>         0.1548
     37 H7          0.3351   -2.6021    2.2192 H         1 <0>         0.1480
     38 H8          3.3636   -2.4244    1.8877 H         1 <0>         0.0954
     39 H9          2.2712   -1.1316    2.4455 H         1 <0>         0.0892
     40 H10         1.2256   -2.5638    5.5872 H         1 <0>         0.0788
     41 H11         0.5689   -1.8633    4.0761 H         1 <0>         0.0840
     42 H12         0.2686   -4.5913    5.0632 H         1 <0>         0.0802
     43 H13        -0.3880   -3.8908    3.5520 H         1 <0>         0.0874
     44 H14         0.5370   -4.9155    1.4627 H         1 <0>         0.0979
     45 H15         2.3018   -4.7414    1.2859 H         1 <0>         0.0919
     46 H16         3.3874   -6.6539    3.7023 H         1 <0>         0.4090
     47 H17         5.0750   -8.2223    2.6030 H         1 <0>         0.1383
     48 H18         7.2579   -9.3084    2.9387 H         1 <0>         0.1408
     49 H19         8.1973   -6.4940    6.0030 H         1 <0>         0.1396
     50 H20         6.0212   -5.3944    5.6677 H         1 <0>         0.1525
@<TRIPOS>BOND
     1    1    6 ar
     2    1    2 ar
     3    1   33 1
     4    2    3 ar
     5    2   34 1
     6    3    4 ar
     7    3   35 1
     8    4    5 ar
     9    5    6 ar
    10    5    7 1
    11    6   36 1
    12    7    8 2
    13    7    9 2
    14    7   10 1
    15   10   18 1
    16   10   11 1
    17   10   37 1
    18   11   12 1
    19   11   38 1
    20   11   39 1
    21   12   13 1
    22   12   19 1
    23   12   14 1
    24   14   15 1
    25   14   40 1
    26   14   41 1
    27   15   16 1
    28   15   42 1
    29   15   43 1
    30   16   17 1
    31   16   18 1
    32   16   19 1
    33   18   44 1
    34   18   45 1
    35   19   20 am
    36   20   21 2
    37   20   22 am
    38   22   23 1
    39   22   46 1
    40   23   28 ar
    41   23   24 ar
    42   24   25 ar
    43   24   47 1
    44   25   26 ar
    45   25   48 1
    46   26   27 ar
    47   26   29 1
    48   27   28 ar
    49   27   49 1
    50   28   50 1
    51   29   30 1
    52   29   31 1
    53   29   32 1
@<TRIPOS>MOLECULE
ZINC43019733
   52    55     0     0     0
SMALL
USER_CHARGES

@<TRIPOS>ATOM
      1 C1          1.0279   -0.5781   -0.8356 C.3       1 <0>         0.0264
      2 O1          0.0002   -0.0010   -0.0277 O.3       1 <0>        -0.3181
      3 C2         -1.2024   -0.6355   -0.0123 C.ar      1 <0>         0.1120
      4 C3         -1.3854   -1.7925   -0.7553 C.ar      1 <0>        -0.1865
      5 C4         -2.6064   -2.4373   -0.7402 C.ar      1 <0>        -0.0780
      6 C5         -3.6509   -1.9277    0.0194 C.ar      1 <0>         0.1265
      7 C6         -3.4669   -0.7699    0.7632 C.ar      1 <0>        -0.1067
      8 C7         -2.2439   -0.1287    0.7510 C.ar      1 <0>        -0.1313
      9 N1         -4.8905   -2.5814    0.0349 N.am      1 <0>        -0.6820
     10 C8         -4.9456   -3.9241   -0.0684 C.2       1 <0>         0.7290
     11 O2         -3.9191   -4.5758   -0.0776 O.2       1 <0>        -0.5675
     12 N2         -6.1385   -4.5444   -0.1614 N.am      1 <0>        -0.6318
     13 C9         -7.4905   -3.9353   -0.1746 C.3       1 <0>         0.1371
     14 H1         -7.4831   -2.9080    0.1895 H         1 <0>         0.1003
     15 C10        -8.3367   -4.8670    0.7233 C.3       1 <0>        -0.1303
     16 C11        -7.6213   -6.2327    0.6570 C.3       1 <0>        -0.1341
     17 C12        -6.4099   -5.9973   -0.2814 C.3       1 <0>         0.1653
     18 H2         -5.5472   -6.6021   -0.0018 H         1 <0>         0.1147
     19 C13        -6.8709   -6.2579   -1.7243 C.3       1 <0>        -0.1212
     20 C14        -8.1929   -5.5225   -1.9627 C.3       1 <0>        -0.5654
     21 C15        -8.0221   -4.0352   -1.6133 C.3       1 <0>        -0.1203
     22 S1         -8.6601   -5.6715   -3.7091 S.o2      1 <0>         2.4899
     23 O3         -7.6848   -5.0458   -4.5318 O.2       1 <0>        -0.9307
     24 O4         -9.1016   -6.9933   -3.9866 O.2       1 <0>        -0.9342
     25 C16       -10.1006   -4.6712   -3.8794 C.ar      1 <0>        -0.6577
     26 C17       -11.3522   -5.2217   -3.6764 C.ar      1 <0>        -0.0245
     27 C18       -12.4824   -4.4369   -3.8100 C.ar      1 <0>        -0.1382
     28 C19       -12.3608   -3.1016   -4.1462 C.ar      1 <0>        -0.0632
     29 C20       -11.1091   -2.5509   -4.3483 C.ar      1 <0>        -0.1385
     30 C21        -9.9787   -3.3346   -4.2105 C.ar      1 <0>        -0.0239
     31 H3          1.9326    0.0248   -0.7580 H         1 <0>         0.1006
     32 H4          1.2356   -1.5910   -0.4905 H         1 <0>         0.0561
     33 H5          0.6994   -0.6084   -1.8744 H         1 <0>         0.0559
     34 H6         -0.5728   -2.1888   -1.3462 H         1 <0>         0.1317
     35 H7         -2.7490   -3.3377   -1.3193 H         1 <0>         0.1389
     36 H8         -4.2790   -0.3730    1.3543 H         1 <0>         0.1317
     37 H9         -2.0995    0.7696    1.3328 H         1 <0>         0.1354
     38 H10        -5.7087   -2.0675    0.1199 H         1 <0>         0.4042
     39 H11        -8.3517   -4.4958    1.7480 H         1 <0>         0.0774
     40 H12        -9.3513   -4.9507    0.3340 H         1 <0>         0.0840
     41 H13        -7.2844   -6.5333    1.6490 H         1 <0>         0.0787
     42 H14        -8.2840   -6.9883    0.2350 H         1 <0>         0.0857
     43 H15        -6.1174   -5.8894   -2.4205 H         1 <0>         0.0890
     44 H16        -7.0162   -7.3278   -1.8736 H         1 <0>         0.0967
     45 H17        -8.9711   -5.9647   -1.3407 H         1 <0>         0.1492
     46 H18        -8.9889   -3.5364   -1.6808 H         1 <0>         0.0932
     47 H19        -7.3168   -3.5623   -2.2968 H         1 <0>         0.0915
     48 H20       -11.4472   -6.2649   -3.4137 H         1 <0>         0.1413
     49 H21       -13.4603   -4.8671   -3.6521 H         1 <0>         0.1344
     50 H22       -13.2438   -2.4886   -4.2513 H         1 <0>         0.1322
     51 H23       -11.0141   -1.5077   -4.6113 H         1 <0>         0.1343
     52 H24        -9.0006   -2.9035   -4.3648 H         1 <0>         0.1409
@<TRIPOS>BOND
     1    1    2 1
     2    1   31 1
     3    1   32 1
     4    1   33 1
     5    2    3 1
     6    3    8 ar
     7    3    4 ar
     8    4    5 ar
     9    4   34 1
    10    5    6 ar
    11    5   35 1
    12    6    7 ar
    13    6    9 1
    14    7    8 ar
    15    7   36 1
    16    8   37 1
    17    9   10 am
    18    9   38 1
    19   10   11 2
    20   10   12 am
    21   12   17 1
    22   12   13 1
    23   13   14 1
    24   13   21 1
    25   13   15 1
    26   15   16 1
    27   15   39 1
    28   15   40 1
    29   16   17 1
    30   16   41 1
    31   16   42 1
    32   17   18 1
    33   17   19 1
    34   19   20 1
    35   19   43 1
    36   19   44 1
    37   20   21 1
    38   20   22 1
    39   20   45 1
    40   21   46 1
    41   21   47 1
    42   22   23 2
    43   22   24 2
    44   22   25 1
    45   25   30 ar
    46   25   26 ar
    47   26   27 ar
    48   26   48 1
    49   27   28 ar
    50   27   49 1
    51   28   29 ar
    52   28   50 1
    53   29   30 ar
    54   29   51 1
    55   30   52 1
@<TRIPOS>MOLECULE
ZINC43012196
   51    54     0     0     0
SMALL
USER_CHARGES

@<TRIPOS>ATOM
      1 C1          0.0113    1.5031    0.0069 C.3       1 <0>        -0.1138
      2 C2          0.0236   -0.0038   -0.0004 C.ar      1 <0>        -0.1026
      3 C3          0.7786   -0.6921    0.9315 C.ar      1 <0>        -0.0996
      4 C4          0.7920   -2.0732    0.9274 C.ar      1 <0>        -0.1154
      5 C5          0.0463   -2.7706   -0.0138 C.ar      1 <0>         0.1581
      6 C6         -0.7108   -2.0764   -0.9483 C.ar      1 <0>        -0.1441
      7 C7         -0.7245   -0.6954   -0.9354 C.ar      1 <0>        -0.1004
      8 N1          0.0581   -4.1699   -0.0209 N.am      1 <0>        -0.6840
      9 C8          0.1745   -4.8487    1.1376 C.2       1 <0>         0.7289
     10 O1          0.1720   -4.2501    2.1959 O.2       1 <0>        -0.5652
     11 N2          0.2938   -6.1911    1.1231 N.am      1 <0>        -0.6318
     12 C9          0.3248   -7.0966   -0.0509 C.3       1 <0>         0.1369
     13 H1         -0.0487   -6.6135   -0.9538 H         1 <0>         0.0998
     14 C10        -0.5499   -8.2991    0.3724 C.3       1 <0>        -0.1302
     15 C11        -0.4835   -8.3099    1.9140 C.3       1 <0>        -0.1341
     16 C12         0.4317   -7.1123    2.2770 C.3       1 <0>         0.1652
     17 H2          0.1428   -6.6416    3.2167 H         1 <0>         0.1149
     18 C13         1.8846   -7.6134    2.2899 C.3       1 <0>        -0.1212
     19 C14         2.1390   -8.4285    1.0186 C.3       1 <0>        -0.5653
     20 C15         1.7733   -7.5844   -0.2131 C.3       1 <0>        -0.1203
     21 S1          3.8946   -8.8767    0.9301 S.o2      1 <0>         2.4901
     22 O2          4.6945   -7.7059    0.8375 O.2       1 <0>        -0.9306
     23 O3          4.1917   -9.8831    1.8883 O.2       1 <0>        -0.9340
     24 C16         4.0806   -9.6729   -0.6307 C.ar      1 <0>        -0.6577
     25 C17         3.9042  -11.0400   -0.7346 C.ar      1 <0>        -0.0245
     26 C18         4.0501  -11.6647   -1.9590 C.ar      1 <0>        -0.1382
     27 C19         4.3720  -10.9222   -3.0798 C.ar      1 <0>        -0.0632
     28 C20         4.5475   -9.5549   -2.9760 C.ar      1 <0>        -0.1386
     29 C21         4.3973   -8.9297   -1.7524 C.ar      1 <0>        -0.0240
     30 H3         -0.7906    1.8568    0.6550 H         1 <0>         0.0696
     31 H4          0.9675    1.8725    0.3774 H         1 <0>         0.0661
     32 H5         -0.1520    1.8700   -1.0064 H         1 <0>         0.0655
     33 H6          1.3586   -0.1492    1.6630 H         1 <0>         0.1254
     34 H7          1.3821   -2.6102    1.6553 H         1 <0>         0.1356
     35 H8         -1.2916   -2.6159   -1.6818 H         1 <0>         0.1235
     36 H9         -1.3166   -0.1550   -1.6592 H         1 <0>         0.1257
     37 H10        -0.0175   -4.6514   -0.8596 H         1 <0>         0.4043
     38 H11        -1.5775   -8.1576    0.0377 H         1 <0>         0.0773
     39 H12        -0.1424   -9.2258   -0.0316 H         1 <0>         0.0842
     40 H13        -1.4784   -8.1736    2.3378 H         1 <0>         0.0788
     41 H14        -0.0433   -9.2419    2.2685 H         1 <0>         0.0859
     42 H15         2.5643   -6.7618    2.3197 H         1 <0>         0.0891
     43 H16         2.0461   -8.2425    3.1653 H         1 <0>         0.0970
     44 H17         1.5347   -9.3353    1.0421 H         1 <0>         0.1492
     45 H18         1.8528   -8.2009   -1.1084 H         1 <0>         0.0932
     46 H19         2.4401   -6.7263   -0.2981 H         1 <0>         0.0915
     47 H20         3.6527  -11.6201    0.1410 H         1 <0>         0.1413
     48 H21         3.9130  -12.7328   -2.0401 H         1 <0>         0.1344
     49 H22         4.4867  -11.4103   -4.0363 H         1 <0>         0.1323
     50 H23         4.7993   -8.9749   -3.8516 H         1 <0>         0.1343
     51 H24         4.5308   -7.8609   -1.6720 H         1 <0>         0.1408
@<TRIPOS>BOND
     1    1    2 1
     2    1   30 1
     3    1   31 1
     4    1   32 1
     5    2    7 ar
     6    2    3 ar
     7    3    4 ar
     8    3   33 1
     9    4    5 ar
    10    4   34 1
    11    5    6 ar
    12    5    8 1
    13    6    7 ar
    14    6   35 1
    15    7   36 1
    16    8    9 am
    17    8   37 1
    18    9   10 2
    19    9   11 am
    20   11   16 1
    21   11   12 1
    22   12   13 1
    23   12   20 1
    24   12   14 1
    25   14   15 1
    26   14   38 1
    27   14   39 1
    28   15   16 1
    29   15   40 1
    30   15   41 1
    31   16   17 1
    32   16   18 1
    33   18   19 1
    34   18   42 1
    35   18   43 1
    36   19   20 1
    37   19   21 1
    38   19   44 1
    39   20   45 1
    40   20   46 1
    41   21   22 2
    42   21   23 2
    43   21   24 1
    44   24   29 ar
    45   24   25 ar
    46   25   26 ar
    47   25   47 1
    48   26   27 ar
    49   26   48 1
    50   27   28 ar
    51   27   49 1
    52   28   29 ar
    53   28   50 1
    54   29   51 1
@<TRIPOS>MOLECULE
ZINC43067863
   48    51     0     0     0
SMALL
USER_CHARGES

@<TRIPOS>ATOM
      1 C1         -0.0252    1.3460    0.0152 C.ar      1 <0>        -0.0625
      2 C2          1.1621    2.0538    0.0002 C.ar      1 <0>        -0.1381
      3 C3          2.3687    1.3795   -0.0124 C.ar      1 <0>        -0.0227
      4 C4          2.3881   -0.0027   -0.0096 C.ar      1 <0>        -0.6582
      5 C5          1.2008   -0.7106    0.0064 C.ar      1 <0>        -0.0248
      6 C6         -0.0058   -0.0362    0.0176 C.ar      1 <0>        -0.1387
      7 S1          3.9261   -0.8623   -0.0268 S.o2      1 <0>         2.4911
      8 O1          3.6329   -2.1182   -0.6233 O.2       1 <0>        -0.9348
      9 O2          4.8373    0.0373   -0.6431 O.2       1 <0>        -0.9306
     10 C7          4.3549   -1.0858    1.7215 C.3       1 <0>        -0.5673
     11 C8          4.3509    0.2745    2.4251 C.3       1 <0>        -0.1195
     12 C9          4.8615    0.0921    3.8633 C.3       1 <0>         0.1634
     13 H1          4.7560    1.0018    4.4544 H         1 <0>         0.1120
     14 C10         4.1022   -1.1013    4.4875 C.3       1 <0>        -0.1331
     15 C11         4.9484   -2.3392    4.1231 C.3       1 <0>        -0.1304
     16 C12         6.1395   -1.7774    3.3131 C.3       1 <0>         0.1395
     17 H2          7.0534   -2.3490    3.4749 H         1 <0>         0.1028
     18 C13         5.7458   -1.7178    1.8283 C.3       1 <0>        -0.1207
     19 N1          6.2714   -0.3593    3.7760 N.am      1 <0>        -0.6337
     20 C14         7.3893    0.3395    4.0558 C.2       1 <0>         0.7316
     21 O3          7.3071    1.4925    4.4330 O.2       1 <0>        -0.5657
     22 N2          8.5984   -0.2397    3.9176 N.am      1 <0>        -0.6842
     23 C15         9.7620    0.5135    4.1144 C.ar      1 <0>         0.1675
     24 C16        10.8892    0.2666    3.3420 C.ar      1 <0>        -0.1343
     25 C17        12.0359    1.0111    3.5381 C.ar      1 <0>        -0.0898
     26 C18        12.0621    2.0023    4.5034 C.ar      1 <0>        -0.0507
     27 C19        10.9403    2.2500    5.2747 C.ar      1 <0>        -0.0905
     28 C20         9.7891    1.5126    5.0784 C.ar      1 <0>        -0.1074
     29 Cl1        13.5050    2.9362    4.7474 Cl        1 <0>        -0.0698
     30 H3         -0.9679    1.8728    0.0296 H         1 <0>         0.1325
     31 H4          1.1469    3.1337   -0.0020 H         1 <0>         0.1347
     32 H5          3.2963    1.9325   -0.0249 H         1 <0>         0.1414
     33 H6          1.2160   -1.7905    0.0082 H         1 <0>         0.1411
     34 H7         -0.9334   -0.5893    0.0296 H         1 <0>         0.1344
     35 H8          3.6221   -1.7399    2.1939 H         1 <0>         0.1486
     36 H9          5.0041    0.9640    1.8904 H         1 <0>         0.0904
     37 H10         3.3361    0.6719    2.4457 H         1 <0>         0.0937
     38 H11         4.0414   -0.9882    5.5699 H         1 <0>         0.0783
     39 H12         3.1043   -1.1834    4.0569 H         1 <0>         0.0853
     40 H13         5.3038   -2.8353    5.0262 H         1 <0>         0.0793
     41 H14         4.3668   -3.0304    3.5131 H         1 <0>         0.0870
     42 H15         5.7184   -2.7306    1.4264 H         1 <0>         0.0964
     43 H16         6.4629   -1.1193    1.2664 H         1 <0>         0.0900
     44 H17         8.6624   -1.1784    3.6818 H         1 <0>         0.4072
     45 H18        10.8694   -0.5071    2.5887 H         1 <0>         0.1349
     46 H19        12.9130    0.8192    2.9378 H         1 <0>         0.1382
     47 H20        10.9634    3.0239    6.0277 H         1 <0>         0.1370
     48 H21         8.9123    1.7095    5.6774 H         1 <0>         0.1497
@<TRIPOS>BOND
     1    1    6 ar
     2    1    2 ar
     3    1   30 1
     4    2    3 ar
     5    2   31 1
     6    3    4 ar
     7    3   32 1
     8    4    5 ar
     9    4    7 1
    10    5    6 ar
    11    5   33 1
    12    6   34 1
    13    7    8 2
    14    7    9 2
    15    7   10 1
    16   10   18 1
    17   10   11 1
    18   10   35 1
    19   11   12 1
    20   11   36 1
    21   11   37 1
    22   12   13 1
    23   12   19 1
    24   12   14 1
    25   14   15 1
    26   14   38 1
    27   14   39 1
    28   15   16 1
    29   15   40 1
    30   15   41 1
    31   16   17 1
    32   16   18 1
    33   16   19 1
    34   18   42 1
    35   18   43 1
    36   19   20 am
    37   20   21 2
    38   20   22 am
    39   22   23 1
    40   22   44 1
    41   23   28 ar
    42   23   24 ar
    43   24   25 ar
    44   24   45 1
    45   25   26 ar
    46   25   46 1
    47   26   27 ar
    48   26   29 1
    49   27   28 ar
    50   27   47 1
    51   28   48 1
@<TRIPOS>MOLECULE
ZINC43022913
   49    52     0     0     0
SMALL
USER_CHARGES

@<TRIPOS>ATOM
      1 C1         -0.6464   -0.1511    1.3187 C.ar      1 <0>        -0.0624
      2 C2          0.4856    0.4650    0.8189 C.ar      1 <0>        -0.1381
      3 C3          1.7032   -0.1883    0.8595 C.ar      1 <0>        -0.0229
      4 C4          1.7887   -1.4577    1.4001 C.ar      1 <0>        -0.6584
      5 C5          0.6569   -2.0735    1.9007 C.ar      1 <0>        -0.0247
      6 C6         -0.5609   -1.4207    1.8589 C.ar      1 <0>        -0.1386
      7 S1          3.3404   -2.2909    1.4507 S.o2      1 <0>         2.4911
      8 O1          3.0099   -3.6729    1.4557 O.2       1 <0>        -0.9335
      9 O2          4.0888   -1.7290    0.3814 O.2       1 <0>        -0.9299
     10 C7          4.0720   -1.8177    3.0418 C.3       1 <0>        -0.5678
     11 C8          4.1234   -0.2906    3.1449 C.3       1 <0>        -0.1188
     12 C9          4.8806    0.0962    4.4253 C.3       1 <0>         0.1452
     13 H1          4.8344    1.1674    4.6213 H         1 <0>         0.1116
     14 C10         4.2971   -0.7363    5.5902 C.3       1 <0>        -0.1325
     15 C11         5.1266   -2.0375    5.5972 C.3       1 <0>        -0.1315
     16 C12         6.1334   -1.8688    4.4361 C.3       1 <0>         0.1257
     17 H2          7.0878   -2.3520    4.6453 H         1 <0>         0.1188
     18 C13         5.4893   -2.3895    3.1411 C.3       1 <0>        -0.1265
     19 N1          6.2747   -0.3866    4.2754 N.am      1 <0>        -0.6137
     20 C14         7.3893    0.3391    4.0576 C.2       1 <0>         0.5819
     21 O3          7.3104    1.5417    3.8997 O.2       1 <0>        -0.5221
     22 C15         8.7081   -0.3276    4.0108 C.ar      1 <0>        -0.0952
     23 C16         8.8115   -1.6459    3.5641 C.ar      1 <0>        -0.1046
     24 C17        10.0452   -2.2621    3.5224 C.ar      1 <0>        -0.0737
     25 C18        11.1782   -1.5763    3.9227 C.ar      1 <0>        -0.1606
     26 C19        11.0826   -0.2695    4.3670 C.ar      1 <0>        -0.0722
     27 C20         9.8558    0.3604    4.4077 C.ar      1 <0>        -0.0633
     28 C21        12.5224   -2.2559    3.8750 C.3       1 <0>         0.5072
     29 F1         13.1129   -2.0343    2.6262 F         1 <0>        -0.1726
     30 F2         13.3449   -1.7337    4.8790 F         1 <0>        -0.1741
     31 F3         12.3574   -3.6306    4.0754 F         1 <0>        -0.1743
     32 H3         -1.5968    0.3611    1.2911 H         1 <0>         0.1325
     33 H4          0.4188    1.4568    0.3965 H         1 <0>         0.1348
     34 H5          2.5875    0.2928    0.4684 H         1 <0>         0.1415
     35 H6          0.7237   -3.0653    2.3228 H         1 <0>         0.1413
     36 H7         -1.4453   -1.9019    2.2496 H         1 <0>         0.1345
     37 H8          3.4629   -2.2152    3.8536 H         1 <0>         0.1500
     38 H9          4.6419    0.1167    2.2770 H         1 <0>         0.0908
     39 H10         3.1093    0.1068    3.1863 H         1 <0>         0.0943
     40 H11         4.4169   -0.2046    6.5341 H         1 <0>         0.0782
     41 H12         3.2453   -0.9576    5.4090 H         1 <0>         0.0853
     42 H13         5.6545   -2.1460    6.5447 H         1 <0>         0.0804
     43 H14         4.4829   -2.8990    5.4195 H         1 <0>         0.0878
     44 H15         5.4420   -3.4778    3.1798 H         1 <0>         0.1003
     45 H16         6.0703   -2.0782    2.2730 H         1 <0>         0.0917
     46 H17         7.9278   -2.1825    3.2520 H         1 <0>         0.1476
     47 H18        10.1266   -3.2821    3.1769 H         1 <0>         0.1457
     48 H19        11.9708    0.2601    4.6784 H         1 <0>         0.1462
     49 H20         9.7831    1.3821    4.7501 H         1 <0>         0.1477
@<TRIPOS>BOND
     1    1    6 ar
     2    1    2 ar
     3    1   32 1
     4    2    3 ar
     5    2   33 1
     6    3    4 ar
     7    3   34 1
     8    4    5 ar
     9    4    7 1
    10    5    6 ar
    11    5   35 1
    12    6   36 1
    13    7    8 2
    14    7    9 2
    15    7   10 1
    16   10   18 1
    17   10   11 1
    18   10   37 1
    19   11   12 1
    20   11   38 1
    21   11   39 1
    22   12   13 1
    23   12   19 1
    24   12   14 1
    25   14   15 1
    26   14   40 1
    27   14   41 1
    28   15   16 1
    29   15   42 1
    30   15   43 1
    31   16   17 1
    32   16   18 1
    33   16   19 1
    34   18   44 1
    35   18   45 1
    36   19   20 am
    37   20   21 2
    38   20   22 1
    39   22   27 ar
    40   22   23 ar
    41   23   24 ar
    42   23   46 1
    43   24   25 ar
    44   24   47 1
    45   25   26 ar
    46   25   28 1
    47   26   27 ar
    48   26   48 1
    49   27   49 1
    50   28   29 1
    51   28   30 1
    52   28   31 1
@<TRIPOS>MOLECULE
ZINC45259223
   45    48     0     0     0
SMALL
USER_CHARGES

@<TRIPOS>ATOM
      1 C1         -5.3452    0.2675    2.5398 C.ar      1 <0>        -0.0252
      2 C2         -6.2611    0.5269    3.5366 C.ar      1 <0>        -0.1598
      3 C3         -6.7350   -0.5054    4.3319 C.ar      1 <0>         0.1317
      4 C4         -6.2906   -1.8031    4.1297 C.ar      1 <0>        -0.1600
      5 C5         -5.3748   -2.0736    3.1357 C.ar      1 <0>        -0.0545
      6 C6         -4.8945   -1.0378    2.3316 C.ar      1 <0>        -0.1508
      7 C7         -3.9133   -1.3219    1.2644 C.2       1 <0>         0.5684
      8 O1         -3.4967   -0.4185    0.5656 O.2       1 <0>        -0.5221
      9 N1         -3.4800   -2.5825    1.0655 N.am      1 <0>        -0.7204
     10 C8         -2.5069   -2.8642    0.0072 C.3       1 <0>         0.1315
     11 C9         -2.0969   -4.3368    0.0702 C.3       1 <0>         0.1290
     12 C10        -3.3180   -5.2077   -0.0883 C.ar      1 <0>        -0.1932
     13 C11        -4.3750   -4.8004   -0.8697 C.ar      1 <0>        -0.0373
     14 C12        -5.4905   -5.6279   -1.0128 C.ar      1 <0>        -0.0462
     15 C13        -5.5283   -6.8635   -0.3647 C.ar      1 <0>        -0.0289
     16 C14        -4.4679   -7.2629    0.4209 C.ar      1 <0>        -0.1393
     17 C15        -3.3632   -6.4350    0.5659 C.ar      1 <0>         0.1957
     18 N2         -2.2915   -6.8079    1.3843 N.am      1 <0>        -0.6582
     19 C16        -1.3426   -5.9004    1.6893 C.2       1 <0>         0.6553
     20 O2         -0.3455   -6.2503    2.2893 O.2       1 <0>        -0.4683
     21 O3         -1.4893   -4.6104    1.3354 O.3       1 <0>        -0.3063
     22 C17        -6.6310   -5.1954   -1.8499 C.2       1 <0>         0.1205
     23 C18        -7.7828   -5.8960   -2.0738 C.2       1 <0>        -0.2448
     24 C19        -8.5909   -5.1321   -2.9162 C.2       1 <0>         0.0508
     25 N3         -7.9657   -4.0167   -3.1959 N.2       1 <0>        -0.2759
     26 N4         -6.7302   -4.0218   -2.5359 N.pl3     1 <0>        -0.4724
     27 H1         -6.0639   -3.3174   -2.5637 H         1 <0>         0.4376
     28 C20        -1.1014   -4.6393   -1.0516 C.3       1 <0>         0.4416
     29 F1          0.0801   -3.9230   -0.8323 F         1 <0>        -0.1580
     30 F2         -0.8197   -6.0096   -1.0682 F         1 <0>        -0.1679
     31 F3         -1.6544   -4.2619   -2.2800 F         1 <0>        -0.1609
     32 F4         -7.6327   -0.2457    5.3075 F         1 <0>        -0.1304
     33 H2         -4.9800    1.0715    1.9180 H         1 <0>         0.1497
     34 H3         -6.6100    1.5360    3.6988 H         1 <0>         0.1468
     35 H4         -6.6624   -2.6034    4.7524 H         1 <0>         0.1446
     36 H5         -5.0290   -3.0848    2.9793 H         1 <0>         0.1326
     37 H6         -3.8125   -3.3033    1.6231 H         1 <0>         0.4051
     38 H7         -2.9548   -2.6530   -0.9638 H         1 <0>         0.1108
     39 H8         -1.6272   -2.2358    0.1459 H         1 <0>         0.1108
     40 H9         -4.3419   -3.8439   -1.3702 H         1 <0>         0.1359
     41 H10        -6.3885   -7.5066   -0.4783 H         1 <0>         0.1500
     42 H11        -4.4967   -8.2188    0.9229 H         1 <0>         0.1509
     43 H12        -2.2319   -7.7123    1.7299 H         1 <0>         0.4390
     44 H13        -8.0244   -6.8682   -1.6704 H         1 <0>         0.1536
     45 H14        -9.5689   -5.4140   -3.2772 H         1 <0>         0.1887
@<TRIPOS>BOND
     1    1    6 ar
     2    1    2 ar
     3    1   33 1
     4    2    3 ar
     5    2   34 1
     6    3    4 ar
     7    3   32 1
     8    4    5 ar
     9    4   35 1
    10    5    6 ar
    11    5   36 1
    12    6    7 1
    13    7    8 2
    14    7    9 am
    15    9   10 1
    16    9   37 1
    17   10   11 1
    18   10   38 1
    19   10   39 1
    20   11   21 1
    21   11   12 1
    22   11   28 1
    23   12   17 ar
    24   12   13 ar
    25   13   14 ar
    26   13   40 1
    27   14   15 ar
    28   14   22 1
    29   15   16 ar
    30   15   41 1
    31   16   17 ar
    32   16   42 1
    33   17   18 1
    34   18   19 am
    35   18   43 1
    36   19   20 2
    37   19   21 1
    38   22   26 1
    39   22   23 2
    40   23   24 1
    41   23   44 1
    42   24   25 2
    43   24   45 1
    44   25   26 1
    45   26   27 1
    46   28   29 1
    47   28   30 1
    48   28   31 1
