@<TRIPOS>MOLECULE
ZINC43017312
   50    53     0     0     0
SMALL
USER_CHARGES

@<TRIPOS>ATOM
      1 C1         -0.0483    1.3727    0.0255 C.ar      1 <0>        -0.0889
      2 C2          1.1618    2.0497    0.0075 C.ar      1 <0>        -0.1159
      3 C3          2.3384    1.3254   -0.0147 C.ar      1 <0>         0.0833
      4 N1          2.3188    0.0067   -0.0194 N.ar      1 <0>        -0.3898
      5 C4          1.1872   -0.6700   -0.0027 C.ar      1 <0>        -0.4304
      6 C5         -0.0289   -0.0135    0.0204 C.ar      1 <0>        -0.0882
      7 S1          1.2259   -2.4316   -0.0106 S.o2      1 <0>         2.4981
      8 O1         -0.0107   -2.8187   -0.5939 O.2       1 <0>        -0.9286
      9 O2          2.4576   -2.7644   -0.6360 O.2       1 <0>        -0.9080
     10 C6          1.2662   -2.9048    1.7401 C.3       1 <0>        -0.5636
     11 C7          2.4429   -2.2079    2.4294 C.3       1 <0>        -0.1140
     12 C8          2.5574   -2.7326    3.8695 C.3       1 <0>         0.1631
     13 H1          3.2932   -2.1772    4.4511 H         1 <0>         0.1125
     14 C9          1.1494   -2.6796    4.5061 C.3       1 <0>        -0.1333
     15 C10         0.5080   -4.0384    4.1549 C.3       1 <0>        -0.1305
     16 C11         1.5888   -4.7848    3.3393 C.3       1 <0>         0.1397
     17 H2          1.5610   -5.8615    3.5073 H         1 <0>         0.1041
     18 C12         1.4274   -4.4235    1.8539 C.3       1 <0>        -0.1208
     19 N2          2.8822   -4.1772    3.7874 N.am      1 <0>        -0.6328
     20 C13         4.0538   -4.7850    4.0601 C.2       1 <0>         0.7320
     21 O3          5.0092   -4.1276    4.4251 O.2       1 <0>        -0.5626
     22 N3          4.1662   -6.1216    3.9283 N.am      1 <0>        -0.6851
     23 C14         5.4065   -6.7415    4.1173 C.ar      1 <0>         0.1975
     24 C15         5.7586   -7.8426    3.3479 C.ar      1 <0>        -0.1484
     25 C16         6.9836   -8.4518    3.5366 C.ar      1 <0>        -0.0484
     26 C17         7.8592   -7.9665    4.4905 C.ar      1 <0>        -0.2017
     27 C18         7.5115   -6.8705    5.2586 C.ar      1 <0>        -0.0494
     28 C19         6.2902   -6.2533    5.0708 C.ar      1 <0>        -0.1223
     29 C20         9.1951   -8.6337    4.6937 C.3       1 <0>         0.5100
     30 F1         10.1454   -8.0395    3.8564 F         1 <0>        -0.1763
     31 F2          9.5917   -8.4867    6.0272 F         1 <0>        -0.1773
     32 F3          9.0884   -9.9943    4.3862 F         1 <0>        -0.1778
     33 H3         -0.9835    1.9124    0.0475 H         1 <0>         0.1483
     34 H4          1.1843    3.1295    0.0105 H         1 <0>         0.1471
     35 H5          3.2849    1.8452   -0.0288 H         1 <0>         0.1706
     36 H6         -0.9524   -0.5733    0.0343 H         1 <0>         0.1548
     37 H7          0.3351   -2.6021    2.2192 H         1 <0>         0.1480
     38 H8          3.3636   -2.4244    1.8877 H         1 <0>         0.0954
     39 H9          2.2712   -1.1316    2.4455 H         1 <0>         0.0892
     40 H10         1.2256   -2.5638    5.5872 H         1 <0>         0.0788
     41 H11         0.5689   -1.8633    4.0761 H         1 <0>         0.0840
     42 H12         0.2686   -4.5913    5.0632 H         1 <0>         0.0802
     43 H13        -0.3880   -3.8908    3.5520 H         1 <0>         0.0874
     44 H14         0.5370   -4.9155    1.4627 H         1 <0>         0.0979
     45 H15         2.3018   -4.7414    1.2859 H         1 <0>         0.0919
     46 H16         3.3874   -6.6539    3.7023 H         1 <0>         0.4090
     47 H17         5.0750   -8.2223    2.6030 H         1 <0>         0.1383
     48 H18         7.2579   -9.3084    2.9387 H         1 <0>         0.1408
     49 H19         8.1973   -6.4940    6.0030 H         1 <0>         0.1396
     50 H20         6.0212   -5.3944    5.6677 H         1 <0>         0.1525
@<TRIPOS>BOND
     1    1    6 ar
     2    1    2 ar
     3    1   33 1
     4    2    3 ar
     5    2   34 1
     6    3    4 ar
     7    3   35 1
     8    4    5 ar
     9    5    6 ar
    10    5    7 1
    11    6   36 1
    12    7    8 2
    13    7    9 2
    14    7   10 1
    15   10   18 1
    16   10   11 1
    17   10   37 1
    18   11   12 1
    19   11   38 1
    20   11   39 1
    21   12   13 1
    22   12   19 1
    23   12   14 1
    24   14   15 1
    25   14   40 1
    26   14   41 1
    27   15   16 1
    28   15   42 1
    29   15   43 1
    30   16   17 1
    31   16   18 1
    32   16   19 1
    33   18   44 1
    34   18   45 1
    35   19   20 am
    36   20   21 2
    37   20   22 am
    38   22   23 1
    39   22   46 1
    40   23   28 ar
    41   23   24 ar
    42   24   25 ar
    43   24   47 1
    44   25   26 ar
    45   25   48 1
    46   26   27 ar
    47   26   29 1
    48   27   28 ar
    49   27   49 1
    50   28   50 1
    51   29   30 1
    52   29   31 1
    53   29   32 1
@<TRIPOS>MOLECULE
ZINC45259223
   45    48     0     0     0
SMALL
USER_CHARGES

@<TRIPOS>ATOM
      1 C1         -5.3452    0.2675    2.5398 C.ar      1 <0>        -0.0252
      2 C2         -6.2611    0.5269    3.5366 C.ar      1 <0>        -0.1598
      3 C3         -6.7350   -0.5054    4.3319 C.ar      1 <0>         0.1317
      4 C4         -6.2906   -1.8031    4.1297 C.ar      1 <0>        -0.1600
      5 C5         -5.3748   -2.0736    3.1357 C.ar      1 <0>        -0.0545
      6 C6         -4.8945   -1.0378    2.3316 C.ar      1 <0>        -0.1508
      7 C7         -3.9133   -1.3219    1.2644 C.2       1 <0>         0.5684
      8 O1         -3.4967   -0.4185    0.5656 O.2       1 <0>        -0.5221
      9 N1         -3.4800   -2.5825    1.0655 N.am      1 <0>        -0.7204
     10 C8         -2.5069   -2.8642    0.0072 C.3       1 <0>         0.1315
     11 C9         -2.0969   -4.3368    0.0702 C.3       1 <0>         0.1290
     12 C10        -3.3180   -5.2077   -0.0883 C.ar      1 <0>        -0.1932
     13 C11        -4.3750   -4.8004   -0.8697 C.ar      1 <0>        -0.0373
     14 C12        -5.4905   -5.6279   -1.0128 C.ar      1 <0>        -0.0462
     15 C13        -5.5283   -6.8635   -0.3647 C.ar      1 <0>        -0.0289
     16 C14        -4.4679   -7.2629    0.4209 C.ar      1 <0>        -0.1393
     17 C15        -3.3632   -6.4350    0.5659 C.ar      1 <0>         0.1957
     18 N2         -2.2915   -6.8079    1.3843 N.am      1 <0>        -0.6582
     19 C16        -1.3426   -5.9004    1.6893 C.2       1 <0>         0.6553
     20 O2         -0.3455   -6.2503    2.2893 O.2       1 <0>        -0.4683
     21 O3         -1.4893   -4.6104    1.3354 O.3       1 <0>        -0.3063
     22 C17        -6.6310   -5.1954   -1.8499 C.2       1 <0>         0.1205
     23 C18        -7.7828   -5.8960   -2.0738 C.2       1 <0>        -0.2448
     24 C19        -8.5909   -5.1321   -2.9162 C.2       1 <0>         0.0508
     25 N3         -7.9657   -4.0167   -3.1959 N.2       1 <0>        -0.2759
     26 N4         -6.7302   -4.0218   -2.5359 N.pl3     1 <0>        -0.4724
     27 H1         -6.0639   -3.3174   -2.5637 H         1 <0>         0.4376
     28 C20        -1.1014   -4.6393   -1.0516 C.3       1 <0>         0.4416
     29 F1          0.0801   -3.9230   -0.8323 F         1 <0>        -0.1580
     30 F2         -0.8197   -6.0096   -1.0682 F         1 <0>        -0.1679
     31 F3         -1.6544   -4.2619   -2.2800 F         1 <0>        -0.1609
     32 F4         -7.6327   -0.2457    5.3075 F         1 <0>        -0.1304
     33 H2         -4.9800    1.0715    1.9180 H         1 <0>         0.1497
     34 H3         -6.6100    1.5360    3.6988 H         1 <0>         0.1468
     35 H4         -6.6624   -2.6034    4.7524 H         1 <0>         0.1446
     36 H5         -5.0290   -3.0848    2.9793 H         1 <0>         0.1326
     37 H6         -3.8125   -3.3033    1.6231 H         1 <0>         0.4051
     38 H7         -2.9548   -2.6530   -0.9638 H         1 <0>         0.1108
     39 H8         -1.6272   -2.2358    0.1459 H         1 <0>         0.1108
     40 H9         -4.3419   -3.8439   -1.3702 H         1 <0>         0.1359
     41 H10        -6.3885   -7.5066   -0.4783 H         1 <0>         0.1500
     42 H11        -4.4967   -8.2188    0.9229 H         1 <0>         0.1509
     43 H12        -2.2319   -7.7123    1.7299 H         1 <0>         0.4390
     44 H13        -8.0244   -6.8682   -1.6704 H         1 <0>         0.1536
     45 H14        -9.5689   -5.4140   -3.2772 H         1 <0>         0.1887
@<TRIPOS>BOND
     1    1    6 ar
     2    1    2 ar
     3    1   33 1
     4    2    3 ar
     5    2   34 1
     6    3    4 ar
     7    3   32 1
     8    4    5 ar
     9    4   35 1
    10    5    6 ar
    11    5   36 1
    12    6    7 1
    13    7    8 2
    14    7    9 am
    15    9   10 1
    16    9   37 1
    17   10   11 1
    18   10   38 1
    19   10   39 1
    20   11   21 1
    21   11   12 1
    22   11   28 1
    23   12   17 ar
    24   12   13 ar
    25   13   14 ar
    26   13   40 1
    27   14   15 ar
    28   14   22 1
    29   15   16 ar
    30   15   41 1
    31   16   17 ar
    32   16   42 1
    33   17   18 1
    34   18   19 am
    35   18   43 1
    36   19   20 2
    37   19   21 1
    38   22   26 1
    39   22   23 2
    40   23   24 1
    41   23   44 1
    42   24   25 2
    43   24   45 1
    44   25   26 1
    45   26   27 1
    46   28   29 1
    47   28   30 1
    48   28   31 1
