@<TRIPOS>MOLECULE
ZINC48605116
   48    49     0     0     0
SMALL
USER_CHARGES

@<TRIPOS>ATOM
      1 C1         -0.0072    1.5190    0.0359 C.3       1 <0>        -0.1781
      2 C2          0.0081   -0.0130    0.0173 C.3       1 <0>         0.0623
      3 C3         -1.4146   -0.5412   -0.1353 C.3       1 <0>        -0.1422
      4 C4         -2.1852   -0.3816    1.1754 C.3       1 <0>         0.1384
      5 C5         -1.4527   -1.1741    2.2584 C.3       1 <0>        -0.1458
      6 C6         -0.0301   -0.6515    2.4289 C.3       1 <0>         0.0603
      7 N1          0.6989   -0.5483    1.1772 N.4       1 <0>        -0.4913
      8 C7          0.7250   -1.6545    3.3317 C.3       1 <0>        -0.1797
      9 C8         -0.0560    0.6891    3.1706 C.3       1 <0>        -0.1743
     10 N2         -3.5391   -0.9248    1.0102 N.am      1 <0>        -0.6999
     11 C9         -4.5443   -0.4778    1.7888 C.2       1 <0>         0.5207
     12 O1         -4.3302    0.3738    2.6265 O.2       1 <0>        -0.5024
     13 C10        -5.9215   -1.0304    1.6207 C.2       1 <0>         0.5071
     14 O2         -6.1356   -1.8822    0.7828 O.2       1 <0>        -0.4890
     15 N3         -6.9267   -0.5834    2.3993 N.am      1 <0>        -0.6373
     16 C11        -8.2329   -1.0287    2.1783 C.ar      1 <0>         0.1636
     17 C12        -9.3044   -0.1655    2.3717 C.ar      1 <0>        -0.1319
     18 C13       -10.5944   -0.6068    2.1525 C.ar      1 <0>        -0.0596
     19 C14       -10.8218   -1.9081    1.7408 C.ar      1 <0>        -0.0824
     20 C15        -9.7557   -2.7722    1.5469 C.ar      1 <0>         0.1325
     21 C16        -8.4615   -2.3330    1.7597 C.ar      1 <0>        -0.1454
     22 F1         -9.9803   -4.0423    1.1449 F         1 <0>        -0.1177
     23 Cl1       -12.4451   -2.4594    1.4675 Cl        1 <0>        -0.0358
     24 C17         0.7978   -0.4432   -1.2407 C.3       1 <0>        -0.1800
     25 H1          1.0167    1.8927    0.0323 H         1 <0>         0.0862
     26 H2         -0.5316    1.8878   -0.8456 H         1 <0>         0.1062
     27 H3         -0.5176    1.8664    0.9341 H         1 <0>         0.0828
     28 H4         -1.9264    0.0130   -0.9257 H         1 <0>         0.1194
     29 H5         -1.3837   -1.5980   -0.4107 H         1 <0>         0.0996
     30 H6         -2.2551    0.6667    1.4515 H         1 <0>         0.1124
     31 H7         -1.9921   -1.0783    3.2038 H         1 <0>         0.1156
     32 H8         -1.4225   -2.2293    1.9768 H         1 <0>         0.0956
     33 H9          1.0549   -1.4789    0.9364 H         1 <0>         0.4252
     34 H10         0.7329   -2.6358    2.8573 H         1 <0>         0.0826
     35 H11         1.7499   -1.3127    3.4766 H         1 <0>         0.0849
     36 H12         0.2245   -1.7219    4.2977 H         1 <0>         0.1074
     37 H13        -0.5102    0.5526    4.1520 H         1 <0>         0.1063
     38 H14         0.9627    1.0581    3.2899 H         1 <0>         0.0833
     39 H15        -0.6389    1.4102    2.5976 H         1 <0>         0.0826
     40 H16        -3.7102   -1.6055    0.3406 H         1 <0>         0.4206
     41 H17        -6.7436    0.0475    3.1130 H         1 <0>         0.4291
     42 H18        -9.1284    0.8503    2.6936 H         1 <0>         0.1479
     43 H19       -11.4269    0.0646    2.3029 H         1 <0>         0.1547
     44 H20        -7.6301   -3.0046    1.6043 H         1 <0>         0.1598
     45 H21         1.8124   -0.0489   -1.1852 H         1 <0>         0.0860
     46 H22         0.8332   -1.5314   -1.2930 H         1 <0>         0.0832
     47 H23         0.3043   -0.0525   -2.1306 H         1 <0>         0.1083
     48 H24         1.5381    0.0168    1.3401 H         1 <0>         0.4283
@<TRIPOS>BOND
     1    1    2 1
     2    1   25 1
     3    1   26 1
     4    1   27 1
     5    2    7 1
     6    2    3 1
     7    2   24 1
     8    3    4 1
     9    3   28 1
    10    3   29 1
    11    4    5 1
    12    4   10 1
    13    4   30 1
    14    5    6 1
    15    5   31 1
    16    5   32 1
    17    6    7 1
    18    6    8 1
    19    6    9 1
    20    7   33 1
    21    7   48 1
    22    8   34 1
    23    8   35 1
    24    8   36 1
    25    9   37 1
    26    9   38 1
    27    9   39 1
    28   10   11 am
    29   10   40 1
    30   11   12 2
    31   11   13 1
    32   13   14 2
    33   13   15 am
    34   15   16 1
    35   15   41 1
    36   16   21 ar
    37   16   17 ar
    38   17   18 ar
    39   17   42 1
    40   18   19 ar
    41   18   43 1
    42   19   20 ar
    43   19   23 1
    44   20   21 ar
    45   20   22 1
    46   21   44 1
    47   24   45 1
    48   24   46 1
    49   24   47 1
@<TRIPOS>MOLECULE
ZINC48773709
   39    40     0     0     0
SMALL
USER_CHARGES

@<TRIPOS>ATOM
      1 C1          0.0035    1.4691   -0.0106 C.3       1 <0>        -0.0474
      2 N1          0.0185    0.0002   -0.0124 N.4       1 <0>        -0.3872
      3 C2          0.6898   -0.4793   -1.2265 C.3       1 <0>        -0.0013
      4 C3          0.6368   -2.0078   -1.2734 C.3       1 <0>        -0.1583
      5 C4          1.3436   -2.5757   -0.0393 C.3       1 <0>         0.1342
      6 C5          0.6822   -2.0104    1.2210 C.3       1 <0>        -0.1641
      7 C6          0.7335   -0.4818    1.1754 C.3       1 <0>        -0.0024
      8 N2          1.2306   -4.0363   -0.0387 N.am      1 <0>        -0.7001
      9 C7          2.1461   -4.7829    0.6101 C.2       1 <0>         0.5208
     10 O1          3.0642   -4.2451    1.1939 O.2       1 <0>        -0.5017
     11 C8          2.0308   -6.2719    0.6106 C.2       1 <0>         0.5073
     12 O2          1.1126   -6.8097    0.0268 O.2       1 <0>        -0.4893
     13 N3          2.9464   -7.0184    1.2594 N.am      1 <0>        -0.6372
     14 C9          2.7864   -8.4044    1.3420 C.ar      1 <0>         0.1634
     15 C10         3.1833   -9.0836    2.4874 C.ar      1 <0>        -0.1320
     16 C11         3.0242  -10.4529    2.5678 C.ar      1 <0>        -0.0597
     17 C12         2.4703  -11.1502    1.5087 C.ar      1 <0>        -0.0825
     18 C13         2.0731  -10.4764    0.3645 C.ar      1 <0>         0.1327
     19 C14         2.2253   -9.1041    0.2818 C.ar      1 <0>        -0.1452
     20 F1          1.5326  -11.1595   -0.6682 F         1 <0>        -0.1176
     21 Cl1         2.2729  -12.8718    1.6132 Cl        1 <0>        -0.0358
     22 H1          1.0273    1.8430   -0.0255 H         1 <0>         0.1233
     23 H2         -0.5273    1.8281   -0.8924 H         1 <0>         0.1256
     24 H3         -0.5006    1.8262    0.8874 H         1 <0>         0.1255
     25 H4          0.1875   -0.0717   -2.1039 H         1 <0>         0.1393
     26 H5          1.7295   -0.1523   -1.2195 H         1 <0>         0.1339
     27 H6         -0.4027   -2.3359   -1.2807 H         1 <0>         0.0986
     28 H7          1.1372   -2.3619   -2.1746 H         1 <0>         0.1230
     29 H8          2.3955   -2.2904   -0.0581 H         1 <0>         0.1116
     30 H9         -0.3562   -2.3386    1.2655 H         1 <0>         0.0947
     31 H10         1.2152   -2.3664    2.1026 H         1 <0>         0.1189
     32 H11         1.7724   -0.1547    1.1312 H         1 <0>         0.1334
     33 H12         0.2636   -0.0760    2.0713 H         1 <0>         0.1369
     34 H13         0.4968   -4.4662   -0.5053 H         1 <0>         0.4210
     35 H14         3.7163   -6.5938    1.6691 H         1 <0>         0.4293
     36 H15         3.6164   -8.5407    3.3145 H         1 <0>         0.1478
     37 H16         3.3328  -10.9804    3.4583 H         1 <0>         0.1546
     38 H17         1.9119   -8.5780   -0.6078 H         1 <0>         0.1601
     39 H18        -0.9295   -0.3448    0.0039 H         1 <0>         0.4259
@<TRIPOS>BOND
     1    1    2 1
     2    1   22 1
     3    1   23 1
     4    1   24 1
     5    2    7 1
     6    2    3 1
     7    2   39 1
     8    3    4 1
     9    3   25 1
    10    3   26 1
    11    4    5 1
    12    4   27 1
    13    4   28 1
    14    5    6 1
    15    5    8 1
    16    5   29 1
    17    6    7 1
    18    6   30 1
    19    6   31 1
    20    7   32 1
    21    7   33 1
    22    8    9 am
    23    8   34 1
    24    9   10 2
    25    9   11 1
    26   11   12 2
    27   11   13 am
    28   13   14 1
    29   13   35 1
    30   14   19 ar
    31   14   15 ar
    32   15   16 ar
    33   15   36 1
    34   16   17 ar
    35   16   37 1
    36   17   18 ar
    37   17   21 1
    38   18   19 ar
    39   18   20 1
    40   19   38 1
@<TRIPOS>MOLECULE
ZINC66258612
   42    43     0     0     0
SMALL
USER_CHARGES

@<TRIPOS>ATOM
      1 C1         -0.0160    1.4679    0.0194 C.3       1 <0>        -0.0475
      2 N1          0.0007   -0.0010    0.0130 N.4       1 <0>        -0.3855
      3 C2          0.6702   -0.4759   -1.2038 C.3       1 <0>        -0.0057
      4 C3          0.6188   -2.0044   -1.2552 C.3       1 <0>        -0.1402
      5 C4          1.3285   -2.5753   -0.0242 C.3       1 <0>        -0.1149
      6 C5          0.6688   -2.0147    1.2390 C.3       1 <0>        -0.1485
      7 C6          0.7184   -0.4858    1.1981 C.3       1 <0>        -0.0065
      8 C7          1.2121   -4.1009   -0.0281 C.3       1 <0>         0.1214
      9 N2          1.9913   -4.6530    1.0829 N.am      1 <0>        -0.7055
     10 C8          2.0360   -5.9858    1.2778 C.2       1 <0>         0.5155
     11 O1          1.4308   -6.7286    0.5330 O.2       1 <0>        -0.5009
     12 C9          2.8303   -6.5486    2.4104 C.2       1 <0>         0.5091
     13 O2          3.4356   -5.8057    3.1554 O.2       1 <0>        -0.4950
     14 N3          2.8750   -7.8815    2.6053 N.am      1 <0>        -0.6384
     15 C10         3.6942   -8.4145    3.6044 C.ar      1 <0>         0.1654
     16 C11         4.3318   -9.6329    3.4049 C.ar      1 <0>        -0.1322
     17 C12         5.1413  -10.1580    4.3927 C.ar      1 <0>        -0.0595
     18 C13         5.3183   -9.4728    5.5817 C.ar      1 <0>        -0.0833
     19 C14         4.6840   -8.2572    5.7845 C.ar      1 <0>         0.1317
     20 C15         3.8768   -7.7245    4.7957 C.ar      1 <0>        -0.1457
     21 F1          4.8584   -7.5901    6.9463 F         1 <0>        -0.1187
     22 Cl1         6.3359  -10.1369    6.8215 Cl        1 <0>        -0.0371
     23 H1          1.0074    1.8429    0.0037 H         1 <0>         0.1221
     24 H2         -0.5488    1.8291   -0.8603 H         1 <0>         0.1248
     25 H3         -0.5188    1.8217    0.9194 H         1 <0>         0.1245
     26 H4          0.1659   -0.0662   -2.0789 H         1 <0>         0.1344
     27 H5          1.7096   -0.1478   -1.1977 H         1 <0>         0.1301
     28 H6         -0.4203   -2.3336   -1.2616 H         1 <0>         0.0945
     29 H7          1.1180   -2.3552   -2.1585 H         1 <0>         0.1183
     30 H8          2.3800   -2.2888   -0.0441 H         1 <0>         0.1006
     31 H9         -0.3692   -2.3441    1.2844 H         1 <0>         0.0943
     32 H10         1.2038   -2.3727    2.1186 H         1 <0>         0.1131
     33 H11         1.7568   -0.1575    1.1530 H         1 <0>         0.1303
     34 H12         0.2497   -0.0834    2.0961 H         1 <0>         0.1335
     35 H13         0.1661   -4.3857    0.0848 H         1 <0>         0.0830
     36 H14         1.5955   -4.4921   -0.9705 H         1 <0>         0.0870
     37 H15         2.4750   -4.0592    1.6782 H         1 <0>         0.4141
     38 H16         2.3386   -8.4708    2.0523 H         1 <0>         0.4299
     39 H17         4.1940  -10.1692    2.4776 H         1 <0>         0.1482
     40 H18         5.6367  -11.1051    4.2372 H         1 <0>         0.1544
     41 H19         3.3860   -6.7752    4.9514 H         1 <0>         0.1596
     42 H20        -0.9470   -0.3471    0.0300 H         1 <0>         0.4252
@<TRIPOS>BOND
     1    1    2 1
     2    1   23 1
     3    1   24 1
     4    1   25 1
     5    2    7 1
     6    2    3 1
     7    2   42 1
     8    3    4 1
     9    3   26 1
    10    3   27 1
    11    4    5 1
    12    4   28 1
    13    4   29 1
    14    5    6 1
    15    5    8 1
    16    5   30 1
    17    6    7 1
    18    6   31 1
    19    6   32 1
    20    7   33 1
    21    7   34 1
    22    8    9 1
    23    8   35 1
    24    8   36 1
    25    9   10 am
    26    9   37 1
    27   10   11 2
    28   10   12 1
    29   12   13 2
    30   12   14 am
    31   14   15 1
    32   14   38 1
    33   15   20 ar
    34   15   16 ar
    35   16   17 ar
    36   16   39 1
    37   17   18 ar
    38   17   40 1
    39   18   19 ar
    40   18   22 1
    41   19   20 ar
    42   19   21 1
    43   20   41 1
@<TRIPOS>MOLECULE
ZINC41891012
   43    45     0     0     0
SMALL
USER_CHARGES

@<TRIPOS>ATOM
      1 C1          0.0654    1.2482   -0.5863 C.ar      1 <0>        -0.1324
      2 C2          1.2525    1.9545   -0.5852 C.ar      1 <0>        -0.0596
      3 C3          2.3794    1.4158    0.0093 C.ar      1 <0>        -0.0831
      4 C4          2.3206    0.1656    0.6056 C.ar      1 <0>         0.1322
      5 C5          1.1347   -0.5453    0.6065 C.ar      1 <0>        -0.1457
      6 C6          0.0025   -0.0047    0.0101 C.ar      1 <0>         0.1650
      7 N1         -1.1980   -0.7203    0.0101 N.am      1 <0>        -0.6379
      8 C7         -1.1818   -2.0636   -0.0990 C.2       1 <0>         0.5092
      9 O1         -0.1240   -2.6586   -0.1129 O.2       1 <0>        -0.4929
     10 C8         -2.4654   -2.8199   -0.2028 C.2       1 <0>         0.5178
     11 O2         -3.5231   -2.2249   -0.1890 O.2       1 <0>        -0.5003
     12 N2         -2.4492   -4.1631   -0.3119 N.am      1 <0>        -0.7047
     13 C9         -3.7084   -4.9050   -0.4138 C.3       1 <0>         0.1284
     14 C10        -3.4109   -6.4016   -0.5262 C.3       1 <0>        -0.1242
     15 H1         -2.7798   -6.7351    0.2976 H         1 <0>         0.1185
     16 C11        -2.7623   -6.7380   -1.8947 C.3       1 <0>        -0.1412
     17 C12        -3.1558   -8.2142   -2.1124 C.3       1 <0>        -0.0107
     18 N3         -4.3489   -8.4747   -1.2862 N.4       1 <0>        -0.3618
     19 C13        -4.7217   -7.2247   -0.5893 C.3       1 <0>         0.0048
     20 C14        -5.4581   -8.9127   -2.1439 C.3       1 <0>        -0.0822
     21 C15        -6.2081  -10.1822   -1.7356 C.3       1 <0>        -0.1530
     22 C16        -5.2669  -10.2042   -2.9416 C.3       1 <0>        -0.1558
     23 F1          3.4226   -0.3585    1.1856 F         1 <0>        -0.1183
     24 Cl1         3.8696    2.3063    0.0082 Cl        1 <0>        -0.0368
     25 H2         -0.8147    1.6720   -1.0469 H         1 <0>         0.1480
     26 H3          1.3010    2.9285   -1.0493 H         1 <0>         0.1544
     27 H4          1.0886   -1.5196    1.0703 H         1 <0>         0.1601
     28 H5         -2.0428   -0.2503    0.0886 H         1 <0>         0.4298
     29 H6         -1.6039   -4.6387   -0.3230 H         1 <0>         0.4170
     30 H7         -4.3119   -4.7202    0.4749 H         1 <0>         0.0910
     31 H8         -4.2537   -4.5755   -1.2982 H         1 <0>         0.0875
     32 H9         -3.1762   -6.1086   -2.6825 H         1 <0>         0.1042
     33 H10        -1.6787   -6.6314   -1.8443 H         1 <0>         0.1164
     34 H11        -3.3882   -8.3849   -3.1636 H         1 <0>         0.1357
     35 H12        -2.3393   -8.8655   -1.8004 H         1 <0>         0.1331
     36 H13        -5.0816   -7.4428    0.4161 H         1 <0>         0.1415
     37 H14        -5.4809   -6.6863   -1.1566 H         1 <0>         0.1380
     38 H15        -6.0358   -8.1143   -2.6097 H         1 <0>         0.1756
     39 H16        -5.8784  -10.6924   -0.8306 H         1 <0>         0.1202
     40 H17        -7.2795  -10.2192   -1.9326 H         1 <0>         0.1340
     41 H18        -5.7191  -10.2556   -3.9321 H         1 <0>         0.1338
     42 H19        -4.3180  -10.7288   -2.8300 H         1 <0>         0.1197
     43 H20        -4.1421   -9.1922   -0.6077 H         1 <0>         0.4249
@<TRIPOS>BOND
     1    1    6 ar
     2    1    2 ar
     3    1   25 1
     4    2    3 ar
     5    2   26 1
     6    3    4 ar
     7    3   24 1
     8    4    5 ar
     9    4   23 1
    10    5    6 ar
    11    5   27 1
    12    6    7 1
    13    7    8 am
    14    7   28 1
    15    8    9 2
    16    8   10 1
    17   10   11 2
    18   10   12 am
    19   12   13 1
    20   12   29 1
    21   13   14 1
    22   13   30 1
    23   13   31 1
    24   14   15 1
    25   14   19 1
    26   14   16 1
    27   16   17 1
    28   16   32 1
    29   16   33 1
    30   17   18 1
    31   17   34 1
    32   17   35 1
    33   18   19 1
    34   18   20 1
    35   18   43 1
    36   19   36 1
    37   19   37 1
    38   20   22 1
    39   20   21 1
    40   20   38 1
    41   21   22 1
    42   21   39 1
    43   21   40 1
    44   22   41 1
    45   22   42 1
@<TRIPOS>MOLECULE
ZINC41891016
   43    45     0     0     0
SMALL
USER_CHARGES

@<TRIPOS>ATOM
      1 C1          0.0654    1.2482   -0.5863 C.ar      1 <0>        -0.1322
      2 C2          1.2525    1.9545   -0.5852 C.ar      1 <0>        -0.0595
      3 C3          2.3794    1.4158    0.0093 C.ar      1 <0>        -0.0830
      4 C4          2.3206    0.1656    0.6056 C.ar      1 <0>         0.1320
      5 C5          1.1347   -0.5453    0.6065 C.ar      1 <0>        -0.1457
      6 C6          0.0025   -0.0047    0.0101 C.ar      1 <0>         0.1650
      7 N1         -1.1980   -0.7203    0.0101 N.am      1 <0>        -0.6379
      8 C7         -1.1818   -2.0636   -0.0990 C.2       1 <0>         0.5091
      9 O1         -0.1240   -2.6586   -0.1129 O.2       1 <0>        -0.4928
     10 C8         -2.4654   -2.8199   -0.2028 C.2       1 <0>         0.5178
     11 O2         -3.5231   -2.2249   -0.1890 O.2       1 <0>        -0.5002
     12 N2         -2.4492   -4.1631   -0.3119 N.am      1 <0>        -0.7051
     13 C9         -3.7084   -4.9050   -0.4138 C.3       1 <0>         0.1279
     14 C10        -3.4109   -6.4016   -0.5262 C.3       1 <0>        -0.1257
     15 H1         -2.7256   -6.5963   -1.3511 H         1 <0>         0.1172
     16 C11        -2.8372   -6.9466    0.8019 C.3       1 <0>        -0.1470
     17 C12        -3.4899   -8.3293    0.9846 C.3       1 <0>        -0.0010
     18 N3         -4.3565   -8.5589   -0.1917 N.4       1 <0>        -0.3661
     19 C13        -4.7215   -7.2096   -0.6998 C.3       1 <0>         0.0065
     20 C14        -5.5638   -9.2959    0.2046 C.3       1 <0>        -0.0797
     21 C15        -5.7262  -10.7223   -0.3242 C.3       1 <0>        -0.1532
     22 C16        -6.5975   -9.5955   -0.8829 C.3       1 <0>        -0.1544
     23 F1          3.4226   -0.3585    1.1856 F         1 <0>        -0.1184
     24 Cl1         3.8696    2.3063    0.0082 Cl        1 <0>        -0.0368
     25 H2         -0.8147    1.6720   -1.0469 H         1 <0>         0.1481
     26 H3          1.3010    2.9285   -1.0493 H         1 <0>         0.1545
     27 H4          1.0886   -1.5196    1.0703 H         1 <0>         0.1599
     28 H5         -2.0428   -0.2503    0.0886 H         1 <0>         0.4297
     29 H6         -1.6039   -4.6387   -0.3230 H         1 <0>         0.4171
     30 H7         -4.3119   -4.7202    0.4749 H         1 <0>         0.0882
     31 H8         -4.2537   -4.5755   -1.2982 H         1 <0>         0.0905
     32 H9         -1.7539   -7.0456    0.7337 H         1 <0>         0.1103
     33 H10        -3.1065   -6.2890    1.6285 H         1 <0>         0.1092
     34 H11        -2.7202   -9.0995    1.0347 H         1 <0>         0.1343
     35 H12        -4.0892   -8.3397    1.8950 H         1 <0>         0.1330
     36 H13        -5.5221   -6.7776   -0.0994 H         1 <0>         0.1404
     37 H14        -5.0088   -7.2554   -1.7503 H         1 <0>         0.1402
     38 H15        -5.9351   -9.0853    1.2076 H         1 <0>         0.1757
     39 H16        -4.9373  -11.1140   -0.9662 H         1 <0>         0.1199
     40 H17        -6.2044  -11.4506    0.3309 H         1 <0>         0.1341
     41 H18        -7.6488   -9.5824   -0.5953 H         1 <0>         0.1340
     42 H19        -6.3817   -9.2458   -1.8924 H         1 <0>         0.1189
     43 H20        -3.8524   -9.0700   -0.9008 H         1 <0>         0.4250
@<TRIPOS>BOND
     1    1    6 ar
     2    1    2 ar
     3    1   25 1
     4    2    3 ar
     5    2   26 1
     6    3    4 ar
     7    3   24 1
     8    4    5 ar
     9    4   23 1
    10    5    6 ar
    11    5   27 1
    12    6    7 1
    13    7    8 am
    14    7   28 1
    15    8    9 2
    16    8   10 1
    17   10   11 2
    18   10   12 am
    19   12   13 1
    20   12   29 1
    21   13   14 1
    22   13   30 1
    23   13   31 1
    24   14   15 1
    25   14   19 1
    26   14   16 1
    27   16   17 1
    28   16   32 1
    29   16   33 1
    30   17   18 1
    31   17   34 1
    32   17   35 1
    33   18   19 1
    34   18   20 1
    35   18   43 1
    36   19   36 1
    37   19   37 1
    38   20   22 1
    39   20   21 1
    40   20   38 1
    41   21   22 1
    42   21   39 1
    43   21   40 1
    44   22   41 1
    45   22   42 1
@<TRIPOS>MOLECULE
ZINC01780082
   48    49     0     0     0
SMALL
USER_CHARGES
N'-(4-chlorophenyl)-N-(2,2,6,6-tetramethyl-4-piperidyl)-oxamide
@<TRIPOS>ATOM
      1 C1          3.7604   10.2382    2.3577 C.3       1 <0>        -0.1756
      2 C2          4.7210    9.8001    1.2457 C.3       1 <0>         0.0677
      3 C3          4.7064    8.2779    1.1295 C.3       1 <0>        -0.1381
      4 C4          3.4275    7.8089    0.4364 C.3       1 <0>         0.1381
      5 C5          3.3779    8.4260   -0.9610 C.3       1 <0>        -0.1417
      6 C6          3.3743    9.9499   -0.8687 C.3       1 <0>         0.0660
      7 C7          1.9897   10.4330   -0.4206 C.3       1 <0>        -0.1736
      8 C8          3.6128   10.5027   -2.2916 C.3       1 <0>        -0.1837
      9 N1          3.4504    6.3455    0.3182 N.am      1 <0>        -0.7009
     10 C9          2.2945    5.6589    0.2238 C.2       1 <0>         0.5195
     11 O1          1.2347    6.2501    0.2366 O.2       1 <0>        -0.5039
     12 C10         2.3177    4.1704    0.1036 C.2       1 <0>         0.5059
     13 O2          3.3776    3.5790    0.0909 O.2       1 <0>        -0.4915
     14 N2          1.1618    3.4838    0.0092 N.am      1 <0>        -0.6377
     15 C11         1.1772    2.0863    0.0078 C.ar      1 <0>         0.1347
     16 C12         2.1335    1.4001    0.7458 C.ar      1 <0>        -0.1055
     17 C13         2.1461    0.0193    0.7430 C.ar      1 <0>        -0.0891
     18 C14         1.2075   -0.6811    0.0054 C.ar      1 <0>        -0.0415
     19 C15         0.2536   -0.0002   -0.7307 C.ar      1 <0>        -0.0882
     20 C16         0.2360    1.3806   -0.7312 C.ar      1 <0>        -0.1223
     21 Cl1         1.2270   -2.4170    0.0033 Cl        1 <0>        -0.0575
     22 C17         6.1434   10.2198    1.6790 C.3       1 <0>        -0.1844
     23 H1          4.0757    9.7990    3.3041 H         1 <0>         0.1072
     24 H2          3.7715   11.3251    2.4400 H         1 <0>         0.0841
     25 H3          2.7513    9.9021    2.1194 H         1 <0>         0.0827
     26 H4          4.7604    7.8367    2.1274 H         1 <0>         0.1207
     27 H5          5.5733    7.9491    0.5518 H         1 <0>         0.0993
     28 H6          2.5539    8.1027    1.0125 H         1 <0>         0.1118
     29 H7          4.2489    8.0985   -1.5330 H         1 <0>         0.0950
     30 H8          2.4734    8.0906   -1.4734 H         1 <0>         0.1166
     31 H9          1.9579   11.5221   -0.4497 H         1 <0>         0.0832
     32 H10         1.2299   10.0293   -1.0898 H         1 <0>         0.1069
     33 H11         1.7971   10.0909    0.5963 H         1 <0>         0.0818
     34 H12         4.5912   10.1798   -2.6475 H         1 <0>         0.0815
     35 H13         2.8400   10.1264   -2.9618 H         1 <0>         0.1062
     36 H14         3.5756   11.5918   -2.2692 H         1 <0>         0.0842
     37 H15         4.2974    5.8729    0.3081 H         1 <0>         0.4203
     38 H16         0.3191    3.9596   -0.0578 H         1 <0>         0.4255
     39 H17         2.8637    1.9461    1.3248 H         1 <0>         0.1424
     40 H18         2.8893   -0.5147    1.3165 H         1 <0>         0.1418
     41 H19        -0.4774   -0.5492   -1.3056 H         1 <0>         0.1436
     42 H20        -0.5084    1.9115   -1.3061 H         1 <0>         0.1397
     43 H21         6.8637    9.8883    0.9312 H         1 <0>         0.0830
     44 H22         6.1895   11.3049    1.7720 H         1 <0>         0.0846
     45 H23         6.3804    9.7625    2.6396 H         1 <0>         0.1072
     46 N3          4.4529   10.5286   -0.0233 N.4       1 <0>        -0.5092
     47 H24         5.3192   10.5363   -0.5745 H         1 <0>         0.4300
     48 H25         4.1891   11.4923    0.2130 H         1 <0>         0.4331
@<TRIPOS>BOND
     1    1    2 1
     2    1   23 1
     3    1   24 1
     4    1   25 1
     5    2    3 1
     6    2   22 1
     7    2   46 1
     8    3    4 1
     9    3   26 1
    10    3   27 1
    11    4    5 1
    12    4    9 1
    13    4   28 1
    14    5    6 1
    15    5   29 1
    16    5   30 1
    17    6    7 1
    18    6    8 1
    19    6   46 1
    20    7   31 1
    21    7   32 1
    22    7   33 1
    23    8   34 1
    24    8   35 1
    25    8   36 1
    26    9   10 am
    27    9   37 1
    28   10   11 2
    29   10   12 1
    30   12   13 2
    31   12   14 am
    32   14   15 1
    33   14   38 1
    34   15   20 ar
    35   15   16 ar
    36   16   17 ar
    37   16   39 1
    38   17   18 ar
    39   17   40 1
    40   18   19 ar
    41   18   21 1
    42   19   20 ar
    43   19   41 1
    44   20   42 1
    45   22   43 1
    46   22   44 1
    47   22   45 1
    48   46   47 1
    49   46   48 1
