@<TRIPOS>MOLECULE
ZINC24044436
   76    80     0     0     0
SMALL
USER_CHARGES
1-[5-tert-butyl-2-(p-tolyl)pyrazol-3-yl]-3-[4-(2-morpholinoethoxy)-1-naphthyl]urea
@<TRIPOS>ATOM
      1 C1          3.3307    9.5387   -0.3298 C.3       1 <0>        -0.1193
      2 C2          2.0898    8.6848   -0.2813 C.ar      1 <0>        -0.0892
      3 C3          0.9612    9.0673   -0.9828 C.ar      1 <0>        -0.0934
      4 C4         -0.1775    8.2868   -0.9403 C.ar      1 <0>        -0.1062
      5 C5         -0.1884    7.1174   -0.1919 C.ar      1 <0>         0.1564
      6 C6          0.9444    6.7392    0.5163 C.ar      1 <0>        -0.1500
      7 C7          2.0821    7.5207    0.4649 C.ar      1 <0>        -0.0924
      8 N1         -1.3424    6.3233   -0.1469 N.pl3     1 <0>        -0.3448
      9 C8         -1.3788    4.9645   -0.0790 C.2       1 <0>         0.3309
     10 C9         -2.6878    4.5925   -0.0483 C.2       1 <0>        -0.2629
     11 C10        -3.4651    5.7529   -0.1047 C.2       1 <0>         0.1115
     12 N2         -2.6643    6.7861   -0.1672 N.2       1 <0>        -0.2779
     13 C11        -4.9712    5.8052   -0.0954 C.3       1 <0>         0.0134
     14 C12        -5.4824    5.5257    1.3193 C.3       1 <0>        -0.1388
     15 C13        -5.4360    7.1933   -0.5406 C.3       1 <0>        -0.1390
     16 C14        -5.5242    4.7499   -1.0553 C.3       1 <0>        -0.1399
     17 N3         -0.2771    4.1104   -0.0417 N.am      1 <0>        -0.6731
     18 C15        -0.4603    2.7771    0.0314 C.2       1 <0>         0.7165
     19 O1         -1.5862    2.3190    0.0649 O.2       1 <0>        -0.5445
     20 N4          0.6045    1.9516    0.0675 N.am      1 <0>        -0.6819
     21 C16         0.4162    0.5655    0.0407 C.ar      1 <0>         0.1254
     22 C17        -0.6813    0.0024    0.6542 C.ar      1 <0>        -0.0743
     23 C18        -0.8835   -1.3742    0.6299 C.ar      1 <0>        -0.2061
     24 C19         0.0048   -2.2051    0.0082 C.ar      1 <0>         0.1395
     25 C20         1.1426   -1.6672   -0.6254 C.ar      1 <0>        -0.0565
     26 C21         1.3517   -0.2661   -0.6096 C.ar      1 <0>        -0.0251
     27 C22         2.4862    0.2686   -1.2409 C.ar      1 <0>        -0.1232
     28 C23         3.3687   -0.5639   -1.8588 C.ar      1 <0>        -0.0971
     29 C24         3.1636   -1.9422   -1.8742 C.ar      1 <0>        -0.1313
     30 C25         2.0750   -2.4951   -1.2724 C.ar      1 <0>        -0.0739
     31 O2         -0.2080   -3.5475    0.0012 O.3       1 <0>        -0.2916
     32 C26        -1.3823   -4.0216    0.6634 C.3       1 <0>         0.0605
     33 C27        -1.4510   -5.5459    0.5508 C.3       1 <0>         0.0539
     34 N5         -0.3065   -6.1409    1.2538 N.3       1 <0>        -0.5287
     35 C28        -0.1978   -7.5776    0.9617 C.3       1 <0>         0.0167
     36 C29         1.0390   -8.1436    1.6645 C.3       1 <0>         0.0615
     37 O3          0.9456   -7.8818    3.0674 O.3       1 <0>        -0.3849
     38 C30         0.8389   -6.4921    3.3879 C.3       1 <0>         0.0625
     39 C31        -0.3999   -5.9094    2.7026 C.3       1 <0>         0.0120
     40 H1          3.1476   10.4156   -0.9682 H         1 <0>         0.0687
     41 H2          4.1639    8.9515   -0.7434 H         1 <0>         0.0732
     42 H3          3.5863    9.8722    0.6868 H         1 <0>         0.0734
     43 H4          0.9703    9.9770   -1.5648 H         1 <0>         0.1335
     44 H5         -1.0587    8.5861   -1.4884 H         1 <0>         0.1355
     45 H6          0.9374    5.8324    1.1029 H         1 <0>         0.1262
     46 H7          2.9651    7.2245    1.0118 H         1 <0>         0.1343
     47 H8         -3.0598    3.5802    0.0092 H         1 <0>         0.1784
     48 H9         -6.5817    5.5639    1.3261 H         1 <0>         0.0656
     49 H10        -5.0849    6.2845    2.0094 H         1 <0>         0.0565
     50 H11        -5.1481    4.5278    1.6395 H         1 <0>         0.0614
     51 H12        -6.5353    7.2315   -0.5338 H         1 <0>         0.0604
     52 H13        -5.0684    7.3943   -1.5577 H         1 <0>         0.0568
     53 H14        -5.0385    7.9519    0.1496 H         1 <0>         0.0614
     54 H15        -6.6235    4.7882   -1.0484 H         1 <0>         0.0647
     55 H16        -5.1900    3.7520   -0.7351 H         1 <0>         0.0637
     56 H17        -5.1566    4.9509   -2.0724 H         1 <0>         0.0570
     57 H18         0.7414    4.5248   -0.0719 H         1 <0>         0.4294
     58 H19         1.6215    2.3677    0.1180 H         1 <0>         0.4280
     59 H20        -1.3959    0.6376    1.1566 H         1 <0>         0.1450
     60 H21        -1.7537   -1.7925    1.1139 H         1 <0>         0.1296
     61 H22         2.6580    1.3348   -1.2361 H         1 <0>         0.1222
     62 H23         4.2405   -0.1501   -2.3437 H         1 <0>         0.1243
     63 H24         3.8790   -2.5810   -2.3706 H         1 <0>         0.1250
     64 H25         1.9286   -3.5650   -1.2926 H         1 <0>         0.1353
     65 H26        -1.3465   -3.7335    1.7244 H         1 <0>         0.0659
     66 H27        -2.2726   -3.5787    0.1931 H         1 <0>         0.0716
     67 H28        -2.3868   -5.9052    1.0039 H         1 <0>         0.0605
     68 H29        -1.4216   -5.8370   -0.5096 H         1 <0>         0.0912
     69 H30        -1.0977   -8.0949    1.3258 H         1 <0>         0.0437
     70 H31        -0.1044   -7.7249   -0.1244 H         1 <0>         0.0891
     71 H32         1.0925   -9.2291    1.4949 H         1 <0>         0.1001
     72 H33         1.9424   -7.6643    1.2595 H         1 <0>         0.0618
     73 H34         0.7475   -6.3731    4.4776 H         1 <0>         0.0994
     74 H35         1.7375   -5.9645    3.0355 H         1 <0>         0.0616
     75 H36        -0.4553   -4.8284    2.8983 H         1 <0>         0.0869
     76 H37        -1.3031   -6.3997    3.0948 H         1 <0>         0.0443
@<TRIPOS>BOND
     1    1    2 1
     2    1   40 1
     3    1   41 1
     4    1   42 1
     5    2    7 ar
     6    2    3 ar
     7    3    4 ar
     8    3   43 1
     9    4    5 ar
    10    4   44 1
    11    5    6 ar
    12    5    8 1
    13    6    7 ar
    14    6   45 1
    15    7   46 1
    16    8   12 1
    17    8    9 1
    18    9   10 2
    19    9   17 1
    20   10   11 1
    21   10   47 1
    22   11   12 2
    23   11   13 1
    24   13   14 1
    25   13   15 1
    26   13   16 1
    27   14   48 1
    28   14   49 1
    29   14   50 1
    30   15   51 1
    31   15   52 1
    32   15   53 1
    33   16   54 1
    34   16   55 1
    35   16   56 1
    36   17   18 am
    37   17   57 1
    38   18   19 2
    39   18   20 am
    40   20   21 1
    41   20   58 1
    42   21   26 ar
    43   21   22 ar
    44   22   23 ar
    45   22   59 1
    46   23   24 ar
    47   23   60 1
    48   24   25 ar
    49   24   31 1
    50   25   30 ar
    51   25   26 ar
    52   26   27 ar
    53   27   28 ar
    54   27   61 1
    55   28   29 ar
    56   28   62 1
    57   29   30 ar
    58   29   63 1
    59   30   64 1
    60   31   32 1
    61   32   33 1
    62   32   65 1
    63   32   66 1
    64   33   34 1
    65   33   67 1
    66   33   68 1
    67   34   39 1
    68   34   35 1
    69   35   36 1
    70   35   69 1
    71   35   70 1
    72   36   37 1
    73   36   71 1
    74   36   72 1
    75   37   38 1
    76   38   39 1
    77   38   73 1
    78   38   74 1
    79   39   75 1
    80   39   76 1
@<TRIPOS>MOLECULE
ZINC13493055
   37    40     0     0     0
SMALL
USER_CHARGES
5-(2,6-dichlorophenyl)-2-(2,4-difluorophenyl)sulfanyl-pyrimido[6,1-f]pyridazin-6-one
@<TRIPOS>ATOM
      1 C1          0.7819    4.3410    0.0524 C.ar      1 <0>        -0.0865
      2 C2         -0.4275    5.0027   -0.0644 C.ar      1 <0>        -0.1052
      3 C3         -1.6103    4.2903   -0.0692 C.ar      1 <0>        -0.0078
      4 C4         -1.5836    2.8981    0.0381 C.ar      1 <0>        -0.0051
      5 C5         -0.3594    2.2372    0.1611 C.ar      1 <0>        -0.0079
      6 C6          0.8156    2.9624    0.1649 C.ar      1 <0>        -0.1052
      7 Cl1        -0.3147    0.5075    0.3018 Cl        1 <0>        -0.0496
      8 C7         -2.8461    2.1276    0.0266 C.2       1 <0>        -0.1962
      9 C8         -3.3978    1.6608   -1.1750 C.2       1 <0>         0.1634
     10 C9         -2.7630    1.9018   -2.4066 C.2       1 <0>        -0.0494
     11 C10        -3.3310    1.4261   -3.5469 C.2       1 <0>        -0.1079
     12 C11        -4.5373    0.6985   -3.4809 C.2       1 <0>         0.1181
     13 N1         -5.1260    0.4712   -2.3297 N.2       1 <0>        -0.2574
     14 N2         -4.5673    0.9472   -1.1371 N.pl3     1 <0>        -0.3270
     15 C12        -5.1778    0.7109    0.0511 C.2       1 <0>         0.4228
     16 N3         -4.6823    1.1412    1.1775 N.2       1 <0>        -0.5427
     17 C13        -3.5381    1.8434    1.2263 C.2       1 <0>         0.5151
     18 O1         -3.0989    2.2338    2.2995 O.2       1 <0>        -0.4890
     19 S1         -5.2649    0.0865   -4.9643 S.3       1 <0>         0.1498
     20 C14        -6.6196   -0.8905   -4.4031 C.ar      1 <0>        -0.2138
     21 C15        -7.9169   -0.4067   -4.5085 C.ar      1 <0>         0.0058
     22 C16        -8.9776   -1.1741   -4.0680 C.ar      1 <0>        -0.1725
     23 C17        -8.7491   -2.4257   -3.5211 C.ar      1 <0>         0.1750
     24 C18        -7.4569   -2.9119   -3.4142 C.ar      1 <0>        -0.2011
     25 C19        -6.3919   -2.1502   -3.8590 C.ar      1 <0>         0.1941
     26 F1         -5.1316   -2.6265   -3.7599 F         1 <0>        -0.1130
     27 F2         -9.7887   -3.1735   -3.0908 F         1 <0>        -0.1191
     28 Cl2        -3.1267    5.1227   -0.2165 Cl        1 <0>        -0.0501
     29 H1          1.7040    4.9031    0.0556 H         1 <0>         0.1468
     30 H2         -0.4464    6.0789   -0.1525 H         1 <0>         0.1450
     31 H3          1.7632    2.4523    0.2554 H         1 <0>         0.1450
     32 H4         -1.8394    2.4601   -2.4465 H         1 <0>         0.1694
     33 H5         -2.8589    1.6049   -4.5017 H         1 <0>         0.1688
     34 H6         -6.1009    0.1504    0.0642 H         1 <0>         0.2171
     35 H7         -8.0965    0.5691   -4.9351 H         1 <0>         0.1572
     36 H8         -9.9865   -0.7976   -4.1504 H         1 <0>         0.1548
     37 H9         -7.2812   -3.8884   -2.9877 H         1 <0>         0.1586
@<TRIPOS>BOND
     1    1    6 ar
     2    1    2 ar
     3    1   29 1
     4    2    3 ar
     5    2   30 1
     6    3    4 ar
     7    3   28 1
     8    4    5 ar
     9    4    8 1
    10    5    6 ar
    11    5    7 1
    12    6   31 1
    13    8   17 1
    14    8    9 2
    15    9   14 1
    16    9   10 1
    17   10   11 2
    18   10   32 1
    19   11   12 1
    20   11   33 1
    21   12   13 2
    22   12   19 1
    23   13   14 1
    24   14   15 1
    25   15   16 2
    26   15   34 1
    27   16   17 1
    28   17   18 2
    29   19   20 1
    30   20   25 ar
    31   20   21 ar
    32   21   22 ar
    33   21   35 1
    34   22   23 ar
    35   22   36 1
    36   23   24 ar
    37   23   27 1
    38   24   25 ar
    39   24   37 1
    40   25   26 1
@<TRIPOS>MOLECULE
ZINC01493878
   48    50     0     0     0
SMALL
USER_CHARGES

@<TRIPOS>ATOM
      1 C1         -1.0955   -5.0083   -6.9234 C.3       1 <0>         0.0847
      2 N1         -1.5520   -4.3038   -5.7228 N.am      1 <0>        -0.7137
      3 C2         -1.8827   -5.0004   -4.6175 C.2       1 <0>         0.5696
      4 O1         -1.8023   -6.2129   -4.6168 O.2       1 <0>        -0.5284
      5 C3         -2.3445   -4.2878   -3.4031 C.ar      1 <0>         0.1129
      6 C4         -2.6788   -5.0128   -2.2640 C.ar      1 <0>        -0.1883
      7 C5         -3.1110   -4.3279   -1.1310 C.ar      1 <0>         0.1595
      8 C6         -3.1903   -2.9389   -1.1877 C.ar      1 <0>        -0.1766
      9 C7         -2.8404   -2.2885   -2.3571 C.ar      1 <0>         0.1349
     10 N2         -2.4302   -2.9626   -3.4105 N.ar      1 <0>        -0.4815
     11 O2         -3.4471   -4.9979    0.0005 O.3       1 <0>        -0.2437
     12 C8         -3.4462   -6.3570   -0.0383 C.ar      1 <0>         0.0568
     13 C9         -2.2447   -7.0505   -0.0178 C.ar      1 <0>        -0.1074
     14 C10        -2.2431   -8.4307   -0.0577 C.ar      1 <0>        -0.1009
     15 C11        -3.4442   -9.1246   -0.1179 C.ar      1 <0>         0.1671
     16 C12        -4.6464   -8.4301   -0.1379 C.ar      1 <0>        -0.1272
     17 C13        -4.6469   -7.0500   -0.0928 C.ar      1 <0>        -0.0940
     18 N3         -3.4432  -10.5252   -0.1588 N.am      1 <0>        -0.6776
     19 C14        -2.5108  -11.2187    0.5239 C.2       1 <0>         0.7077
     20 O3         -1.6217  -10.6297    1.1080 O.2       1 <0>        -0.5493
     21 N4         -2.5639  -12.5649    0.5593 N.am      1 <0>        -0.6795
     22 C15        -1.6655  -13.2800    1.3600 C.ar      1 <0>         0.1700
     23 C16        -1.2529  -12.7583    2.5792 C.ar      1 <0>        -0.0742
     24 C17        -0.3670  -13.4659    3.3674 C.ar      1 <0>        -0.0871
     25 C18         0.1097  -14.6941    2.9434 C.ar      1 <0>        -0.0077
     26 C19        -0.2993  -15.2159    1.7290 C.ar      1 <0>        -0.1564
     27 C20        -1.1898  -14.5147    0.9394 C.ar      1 <0>        -0.0879
     28 C21         0.2222  -16.5533    1.2702 C.3       1 <0>         0.5112
     29 F1         -0.3299  -16.8663    0.0234 F         1 <0>        -0.1743
     30 F2          1.6160  -16.4983    1.1626 F         1 <0>        -0.1671
     31 F3         -0.1354  -17.5367    2.1987 F         1 <0>        -0.1677
     32 Cl1         1.2234  -15.5812    3.9366 Cl        1 <0>        -0.0394
     33 H1         -0.8760   -4.2843   -7.7081 H         1 <0>         0.0803
     34 H2         -0.1948   -5.5764   -6.6909 H         1 <0>         0.0631
     35 H3         -1.8761   -5.6883   -7.2645 H         1 <0>         0.0629
     36 H4         -1.6162   -3.3359   -5.7233 H         1 <0>         0.4141
     37 H5         -2.6047   -6.0902   -2.2584 H         1 <0>         0.1546
     38 H6         -3.5217   -2.3755   -0.3280 H         1 <0>         0.1523
     39 H7         -2.9005   -1.2112   -2.4052 H         1 <0>         0.1747
     40 H8         -1.3104   -6.5106    0.0290 H         1 <0>         0.1364
     41 H9         -1.3078   -8.9704   -0.0424 H         1 <0>         0.1514
     42 H10        -5.5809   -8.9693   -0.1851 H         1 <0>         0.1386
     43 H11        -5.5820   -6.5098   -0.1039 H         1 <0>         0.1400
     44 H12        -4.1137  -10.9957   -0.6785 H         1 <0>         0.4131
     45 H13        -3.2246  -13.0383    0.0299 H         1 <0>         0.4146
     46 H14        -1.6244  -11.7997    2.9103 H         1 <0>         0.1546
     47 H15        -0.0456  -13.0604    4.3154 H         1 <0>         0.1524
     48 H16        -1.5123  -14.9245   -0.0064 H         1 <0>         0.1525
@<TRIPOS>BOND
     1    1    2 1
     2    1   33 1
     3    1   34 1
     4    1   35 1
     5    2    3 am
     6    2   36 1
     7    3    4 2
     8    3    5 1
     9    5   10 ar
    10    5    6 ar
    11    6    7 ar
    12    6   37 1
    13    7    8 ar
    14    7   11 1
    15    8    9 ar
    16    8   38 1
    17    9   10 ar
    18    9   39 1
    19   11   12 1
    20   12   17 ar
    21   12   13 ar
    22   13   14 ar
    23   13   40 1
    24   14   15 ar
    25   14   41 1
    26   15   16 ar
    27   15   18 1
    28   16   17 ar
    29   16   42 1
    30   17   43 1
    31   18   19 am
    32   18   44 1
    33   19   20 2
    34   19   21 am
    35   21   22 1
    36   21   45 1
    37   22   27 ar
    38   22   23 ar
    39   23   24 ar
    40   23   46 1
    41   24   25 ar
    42   24   47 1
    43   25   26 ar
    44   25   32 1
    45   26   27 ar
    46   26   28 1
    47   27   48 1
    48   28   29 1
    49   28   30 1
    50   28   31 1
@<TRIPOS>MOLECULE
ZINC21982951
   60    63     0     0     0
SMALL
USER_CHARGES

@<TRIPOS>ATOM
      1 C1         -2.0700    1.6928    0.2333 C.3       1 <0>        -0.1170
      2 C2         -1.6482    0.2604    0.0301 C.ar      1 <0>        -0.0813
      3 C3         -1.8479   -0.3525   -1.1919 C.ar      1 <0>        -0.1034
      4 C4         -1.4615   -1.6665   -1.3798 C.ar      1 <0>        -0.0990
      5 C5         -0.8738   -2.3725   -0.3459 C.ar      1 <0>        -0.1046
      6 C6         -0.6714   -1.7660    0.8791 C.ar      1 <0>        -0.0220
      7 C7         -1.0534   -0.4428    1.0688 C.ar      1 <0>         0.1347
      8 N1         -0.8441    0.1769    2.3055 N.am      1 <0>        -0.6659
      9 C8         -1.2819   -0.4110    3.4365 C.2       1 <0>         0.6018
     10 O1         -1.7689   -1.5261    3.3939 O.2       1 <0>        -0.4722
     11 C9         -1.1720    0.2905    4.7149 C.2       1 <0>        -0.2635
     12 C10        -1.5472   -0.1201    5.9866 C.2       1 <0>         0.1512
     13 N2         -1.3262    0.7270    6.9599 N.2       1 <0>        -0.5510
     14 C11        -0.7756    1.9070    6.7361 C.2       1 <0>         0.2513
     15 S1         -0.5107    1.9100    5.0742 S.3       1 <0>         0.2445
     16 N3         -0.4817    2.8997    7.6498 N.pl3     1 <0>        -0.5870
     17 C12        -0.6908    2.6801    9.0050 C.ar      1 <0>         0.4543
     18 C13        -1.0534    1.4192    9.4679 C.ar      1 <0>        -0.2926
     19 C14        -1.2512    1.2508   10.8352 C.ar      1 <0>         0.4935
     20 N4         -1.0875    2.2952   11.6453 N.ar      1 <0>        -0.5328
     21 C15        -0.7435    3.4737   11.1677 C.ar      1 <0>         0.4541
     22 N5         -0.5417    3.6719    9.8809 N.ar      1 <0>        -0.5672
     23 C16        -0.5694    4.6273   12.1217 C.3       1 <0>        -0.1251
     24 N6         -1.6138    0.0143   11.3464 N.pl3     1 <0>        -0.5370
     25 C17        -2.0559   -0.1253   12.7422 C.3       1 <0>         0.1090
     26 C18        -3.3866   -0.8852   12.7576 C.3       1 <0>         0.0383
     27 N7         -3.2335   -2.1493   12.0251 N.3       1 <0>        -0.5289
     28 C19        -2.9165   -1.9105   10.6107 C.3       1 <0>         0.0343
     29 C20        -1.5725   -1.1917   10.5056 C.3       1 <0>         0.1057
     30 C21        -4.4334   -2.9856   12.1619 C.3       1 <0>         0.0545
     31 C22        -4.1483   -4.3816   11.6043 C.3       1 <0>         0.0776
     32 O2         -3.1500   -5.0191   12.4038 O.3       1 <0>        -0.5606
     33 Cl1         0.0658   -2.6526    2.1768 Cl        1 <0>        -0.0453
     34 H1         -1.2464    2.3553   -0.0328 H         1 <0>         0.0773
     35 H2         -2.9308    1.9112   -0.3987 H         1 <0>         0.0785
     36 H3         -2.3379    1.8478    1.2784 H         1 <0>         0.0640
     37 H4         -2.3069    0.1956   -2.0014 H         1 <0>         0.1372
     38 H5         -1.6193   -2.1430   -2.3361 H         1 <0>         0.1391
     39 H6         -0.5731   -3.3989   -0.4959 H         1 <0>         0.1403
     40 H7         -0.3838    1.0296    2.3489 H         1 <0>         0.4083
     41 H8         -1.9972   -1.0858    6.1634 H         1 <0>         0.2027
     42 H9         -0.1293    3.7505    7.3451 H         1 <0>         0.4460
     43 H10        -1.1784    0.5927    8.7841 H         1 <0>         0.2218
     44 H11         0.4644    4.6619   12.4652 H         1 <0>         0.1245
     45 H12        -0.8146    5.5596   11.6130 H         1 <0>         0.1071
     46 H13        -1.2322    4.4948   12.9768 H         1 <0>         0.1273
     47 H14        -1.3096   -0.6823   13.3087 H         1 <0>         0.0989
     48 H15        -2.1929    0.8619   13.1834 H         1 <0>         0.1094
     49 H16        -3.6740   -1.0944   13.7880 H         1 <0>         0.1036
     50 H17        -4.1569   -0.2794   12.2806 H         1 <0>         0.0428
     51 H18        -2.8631   -2.8634   10.0841 H         1 <0>         0.1043
     52 H19        -3.6935   -1.2904   10.1636 H         1 <0>         0.0450
     53 H20        -1.3900   -0.9091    9.4688 H         1 <0>         0.1029
     54 H21        -0.7788   -1.8532   10.8529 H         1 <0>         0.1042
     55 H22        -4.7041   -3.0633   13.2149 H         1 <0>         0.0912
     56 H23        -5.2561   -2.5340   11.6075 H         1 <0>         0.0533
     57 H24        -5.0627   -4.9745   11.6240 H         1 <0>         0.0547
     58 H25        -3.7921   -4.2970   10.5776 H         1 <0>         0.0454
     59 H26        -2.9188   -5.9101   12.1076 H         1 <0>         0.3805
     60 H27        -0.2852    4.5531    9.5669 H         1 <0>         0.4414
@<TRIPOS>BOND
     1    1    2 1
     2    1   34 1
     3    1   35 1
     4    1   36 1
     5    2    7 ar
     6    2    3 ar
     7    3    4 ar
     8    3   37 1
     9    4    5 ar
    10    4   38 1
    11    5    6 ar
    12    5   39 1
    13    6    7 ar
    14    6   33 1
    15    7    8 1
    16    8    9 am
    17    8   40 1
    18    9   10 2
    19    9   11 1
    20   11   15 1
    21   11   12 2
    22   12   13 1
    23   12   41 1
    24   13   14 2
    25   14   15 1
    26   14   16 1
    27   16   17 1
    28   16   42 1
    29   17   22 ar
    30   17   18 ar
    31   18   19 ar
    32   18   43 1
    33   19   20 ar
    34   19   24 1
    35   20   21 ar
    36   21   22 ar
    37   21   23 1
    38   22   60 1
    39   23   44 1
    40   23   45 1
    41   23   46 1
    42   24   29 1
    43   24   25 1
    44   25   26 1
    45   25   47 1
    46   25   48 1
    47   26   27 1
    48   26   49 1
    49   26   50 1
    50   27   28 1
    51   27   30 1
    52   28   29 1
    53   28   51 1
    54   28   52 1
    55   29   53 1
    56   29   54 1
    57   30   31 1
    58   30   55 1
    59   30   56 1
    60   31   32 1
    61   31   57 1
    62   31   58 1
    63   32   59 1
@<TRIPOS>MOLECULE
ZINC21982951
   60    63     0     0     0
SMALL
USER_CHARGES

@<TRIPOS>ATOM
      1 C1          3.2739    6.6585    1.8418 C.3       1 <0>        -0.1168
      2 C2          2.5810    7.9910    1.9663 C.ar      1 <0>        -0.0823
      3 C3          2.8983    9.0189    1.0995 C.ar      1 <0>        -0.1038
      4 C4          2.2635   10.2419    1.2126 C.ar      1 <0>        -0.1008
      5 C5          1.3088   10.4411    2.1933 C.ar      1 <0>        -0.1049
      6 C6          0.9869    9.4175    3.0639 C.ar      1 <0>        -0.0226
      7 C7          1.6192    8.1849    2.9486 C.ar      1 <0>         0.1373
      8 N1          1.2913    7.1440    3.8238 N.am      1 <0>        -0.6678
      9 C8          1.3128    7.3511    5.1554 C.2       1 <0>         0.6036
     10 O1          1.5184    8.4680    5.5945 O.2       1 <0>        -0.4759
     11 C9          1.0891    6.2346    6.0728 C.2       1 <0>        -0.2694
     12 C10         1.0619    6.2190    7.4604 C.2       1 <0>         0.1522
     13 N2          0.8357    5.0596    8.0247 N.2       1 <0>        -0.5060
     14 C11         0.6446    3.9678    7.3056 C.2       1 <0>         0.2464
     15 S1          0.7674    4.5141    5.7185 S.3       1 <0>         0.2029
     16 N3          0.3973    2.6842    7.7505 N.pl3     1 <0>        -0.5650
     17 C12         0.2197    2.4414    9.1063 C.ar      1 <0>         0.4999
     18 C13        -0.1342    1.1736    9.5555 C.ar      1 <0>        -0.3181
     19 C14        -0.3003    0.9817   10.9244 C.ar      1 <0>         0.4940
     20 N4         -0.1157    2.0114   11.7481 N.ar      1 <0>        -0.5712
     21 C15         0.2193    3.1978   11.2829 C.ar      1 <0>         0.4509
     22 N5          0.3911    3.4178    9.9956 N.ar      1 <0>        -0.4879
     23 C16         0.4179    4.3344   12.2523 C.3       1 <0>        -0.1253
     24 N6         -0.6531   -0.2629   11.4224 N.pl3     1 <0>        -0.5744
     25 C17        -0.9639   -0.4449   12.8484 C.3       1 <0>         0.1013
     26 C18        -2.3114   -1.1652   12.9649 C.3       1 <0>         0.0387
     27 N7         -2.2712   -2.4031   12.1749 N.3       1 <0>        -0.5277
     28 C19        -2.0835   -2.1176   10.7462 C.3       1 <0>         0.0305
     29 C20        -0.7325   -1.4351   10.5377 C.3       1 <0>         0.1149
     30 C21        -3.4796   -3.2085   12.3965 C.3       1 <0>         0.0543
     31 C22        -3.2958   -4.5889   11.7629 C.3       1 <0>         0.0774
     32 O2         -2.2472   -5.2869   12.4378 O.3       1 <0>        -0.5615
     33 Cl1        -0.2110    9.6681    4.2952 Cl        1 <0>        -0.0453
     34 H1          2.7121    6.0191    1.1609 H         1 <0>         0.0767
     35 H2          4.2810    6.8077    1.4524 H         1 <0>         0.0779
     36 H3          3.3298    6.1850    2.8220 H         1 <0>         0.0648
     37 H4          3.6435    8.8670    0.3327 H         1 <0>         0.1365
     38 H5          2.5139   11.0437    0.5337 H         1 <0>         0.1383
     39 H6          0.8148   11.3976    2.2790 H         1 <0>         0.1396
     40 H7          1.0484    6.2731    3.4723 H         1 <0>         0.4083
     41 H8          1.2191    7.1147    8.0430 H         1 <0>         0.1979
     42 H9          0.3477    1.9521    7.1161 H         1 <0>         0.4525
     43 H10        -0.2767    0.3593    8.8606 H         1 <0>         0.1835
     44 H11         1.4596    4.3615   12.5720 H         1 <0>         0.1250
     45 H12         0.1626    5.2758   11.7656 H         1 <0>         0.1301
     46 H13        -0.2249    4.1881   13.1203 H         1 <0>         0.1049
     47 H14        -0.1857   -1.0458   13.3190 H         1 <0>         0.1119
     48 H15        -1.0251    0.5276   13.3369 H         1 <0>         0.0843
     49 H16        -2.5057   -1.4068   14.0099 H         1 <0>         0.1076
     50 H17        -3.1034   -0.5184   12.5874 H         1 <0>         0.0465
     51 H18        -2.1124   -3.0499   10.1822 H         1 <0>         0.1076
     52 H19        -2.8786   -1.4576   10.3996 H         1 <0>         0.0467
     53 H20        -0.6409   -1.1170    9.4992 H         1 <0>         0.1034
     54 H21         0.0684   -2.1330   10.7819 H         1 <0>         0.1075
     55 H22        -3.6507   -3.3200   13.4672 H         1 <0>         0.0925
     56 H23        -4.3362   -2.7111   11.9416 H         1 <0>         0.0553
     57 H24        -4.2233   -5.1548   11.8494 H         1 <0>         0.0565
     58 H25        -3.0370   -4.4741   10.7103 H         1 <0>         0.0456
     59 H26        -2.0752   -6.1719   12.0881 H         1 <0>         0.3821
     60 H27        -0.2297    1.8867   12.7033 H         1 <0>         0.4392
@<TRIPOS>BOND
     1    1    2 1
     2    1   34 1
     3    1   35 1
     4    1   36 1
     5    2    7 ar
     6    2    3 ar
     7    3    4 ar
     8    3   37 1
     9    4    5 ar
    10    4   38 1
    11    5    6 ar
    12    5   39 1
    13    6    7 ar
    14    6   33 1
    15    7    8 1
    16    8    9 am
    17    8   40 1
    18    9   10 2
    19    9   11 1
    20   11   15 1
    21   11   12 2
    22   12   13 1
    23   12   41 1
    24   13   14 2
    25   14   15 1
    26   14   16 1
    27   16   17 1
    28   16   42 1
    29   17   18 ar
    30   17   22 ar
    31   18   43 1
    32   18   19 ar
    33   19   24 1
    34   19   20 ar
    35   20   60 1
    36   20   21 ar
    37   21   23 1
    38   21   22 ar
    39   23   44 1
    40   23   45 1
    41   23   46 1
    42   24   29 1
    43   24   25 1
    44   25   26 1
    45   25   47 1
    46   25   48 1
    47   26   27 1
    48   26   49 1
    49   26   50 1
    50   27   28 1
    51   27   30 1
    52   28   29 1
    53   28   51 1
    54   28   52 1
    55   29   53 1
    56   29   54 1
    57   30   31 1
    58   30   55 1
    59   30   56 1
    60   31   32 1
    61   31   57 1
    62   31   58 1
    63   32   59 1
@<TRIPOS>MOLECULE
ZINC21982951
   59    62     0     0     0
SMALL
USER_CHARGES

@<TRIPOS>ATOM
      1 C1          3.4106    6.6420    1.8847 C.3       1 <0>        -0.1165
      2 C2          2.6976    7.9659    1.9845 C.ar      1 <0>        -0.0852
      3 C3          3.0204    8.9921    1.1176 C.ar      1 <0>        -0.1055
      4 C4          2.3672   10.2073    1.2080 C.ar      1 <0>        -0.1070
      5 C5          1.3885   10.4004    2.1660 C.ar      1 <0>        -0.1064
      6 C6          1.0609    9.3785    3.0365 C.ar      1 <0>        -0.0243
      7 C7          1.7118    8.1536    2.9438 C.ar      1 <0>         0.1460
      8 N1          1.3783    7.1144    3.8189 N.am      1 <0>        -0.6734
      9 C8          1.3676    7.3308    5.1492 C.2       1 <0>         0.6131
     10 O1          1.5489    8.4533    5.5848 O.2       1 <0>        -0.4899
     11 C9          1.1384    6.2176    6.0693 C.2       1 <0>        -0.3092
     12 C10         1.0807    6.2111    7.4561 C.2       1 <0>         0.1722
     13 N2          0.8573    5.0526    8.0233 N.2       1 <0>        -0.5180
     14 C11         0.6966    3.9535    7.3079 C.2       1 <0>         0.3121
     15 S1          0.8472    4.4907    5.7202 S.3       1 <0>         0.1340
     16 N3          0.4564    2.6698    7.7563 N.pl3     1 <0>        -0.5904
     17 C12         0.2490    2.4343    9.1091 C.ar      1 <0>         0.4412
     18 C13        -0.1036    1.1661    9.5586 C.ar      1 <0>        -0.3412
     19 C14        -0.3003    0.9817   10.9244 C.ar      1 <0>         0.4686
     20 N4         -0.1450    2.0186   11.7452 N.ar      1 <0>        -0.5923
     21 C15         0.1898    3.2050   11.2799 C.ar      1 <0>         0.3946
     22 N5          0.3901    3.4182    9.9956 N.ar      1 <0>        -0.5459
     23 C16         0.3546    4.3498   12.2460 C.3       1 <0>        -0.0834
     24 N6         -0.6531   -0.2629   11.4224 N.pl3     1 <0>        -0.5966
     25 C17        -1.0693   -0.4249   12.8237 C.3       1 <0>         0.1300
     26 C18        -2.3993   -1.1856   12.8517 C.3       1 <0>         0.0401
     27 N7         -2.2595   -2.4378   12.0965 N.3       1 <0>        -0.5276
     28 C19        -1.9688   -2.1765   10.6804 C.3       1 <0>         0.0363
     29 C20        -0.6270   -1.4554   10.5619 C.3       1 <0>         0.1269
     30 C21        -3.4565   -3.2768   12.2420 C.3       1 <0>         0.0537
     31 C22        -3.1814   -4.6636   11.6572 C.3       1 <0>         0.0792
     32 O2         -2.1684   -5.3132   12.4279 O.3       1 <0>        -0.5589
     33 Cl1        -0.1672    9.6214    4.2392 Cl        1 <0>        -0.0433
     34 H1          2.8725    5.9906    1.1961 H         1 <0>         0.0754
     35 H2          4.4240    6.8020    1.5166 H         1 <0>         0.0754
     36 H3          3.4510    6.1760    2.8692 H         1 <0>         0.0676
     37 H4          3.7844    8.8450    0.3685 H         1 <0>         0.1337
     38 H5          2.6220   11.0077    0.5292 H         1 <0>         0.1350
     39 H6          0.8801   11.3508    2.2339 H         1 <0>         0.1371
     40 H7          1.1547    6.2381    3.4683 H         1 <0>         0.4085
     41 H8          1.2132    7.1127    8.0357 H         1 <0>         0.1884
     42 H9          0.4325    1.9325    7.1264 H         1 <0>         0.4387
     43 H10        -0.2220    0.3459    8.8660 H         1 <0>         0.1413
     44 H11         1.3882    4.3890   12.5900 H         1 <0>         0.0870
     45 H12         0.1021    5.2855   11.7470 H         1 <0>         0.0890
     46 H13        -0.3072    4.2031   13.0995 H         1 <0>         0.0846
     47 H14        -0.3126   -0.9904   13.3674 H         1 <0>         0.0744
     48 H15        -1.1984    0.5551   13.2831 H         1 <0>         0.1008
     49 H16        -2.6676   -1.4113   13.8837 H         1 <0>         0.0903
     50 H17        -3.1785   -0.5727   12.3986 H         1 <0>         0.0372
     51 H18        -1.9249   -3.1208   10.1378 H         1 <0>         0.0905
     52 H19        -2.7540   -1.5497   10.2576 H         1 <0>         0.0380
     53 H20        -0.4638   -1.1563    9.5265 H         1 <0>         0.0877
     54 H21         0.1731   -2.1219   10.8840 H         1 <0>         0.0802
     55 H22        -3.7077   -3.3713   13.2985 H         1 <0>         0.0861
     56 H23        -4.2894   -2.8169   11.7102 H         1 <0>         0.0487
     57 H24        -4.0952   -5.2572   11.6843 H         1 <0>         0.0498
     58 H25        -2.8443   -4.5626   10.6256 H         1 <0>         0.0451
     59 H26        -1.9426   -6.1994   12.1134 H         1 <0>         0.3762
@<TRIPOS>BOND
     1    1    2 1
     2    1   34 1
     3    1   35 1
     4    1   36 1
     5    2    7 ar
     6    2    3 ar
     7    3    4 ar
     8    3   37 1
     9    4    5 ar
    10    4   38 1
    11    5    6 ar
    12    5   39 1
    13    6    7 ar
    14    6   33 1
    15    7    8 1
    16    8    9 am
    17    8   40 1
    18    9   10 2
    19    9   11 1
    20   11   15 1
    21   11   12 2
    22   12   13 1
    23   12   41 1
    24   13   14 2
    25   14   15 1
    26   14   16 1
    27   16   17 1
    28   16   42 1
    29   17   18 ar
    30   17   22 ar
    31   18   43 1
    32   18   19 ar
    33   19   24 1
    34   19   20 ar
    35   20   21 ar
    36   21   23 1
    37   21   22 ar
    38   23   44 1
    39   23   45 1
    40   23   46 1
    41   24   29 1
    42   24   25 1
    43   25   26 1
    44   25   47 1
    45   25   48 1
    46   26   27 1
    47   26   49 1
    48   26   50 1
    49   27   28 1
    50   27   30 1
    51   28   29 1
    52   28   51 1
    53   28   52 1
    54   29   53 1
    55   29   54 1
    56   30   31 1
    57   30   55 1
    58   30   56 1
    59   31   32 1
    60   31   57 1
    61   31   58 1
    62   32   59 1
@<TRIPOS>MOLECULE
ZINC21982951
   61    64     0     0     0
SMALL
USER_CHARGES

@<TRIPOS>ATOM
      1 C1          3.2770    6.6581    1.8427 C.3       1 <0>        -0.1166
      2 C2          2.5837    7.9904    1.9667 C.ar      1 <0>        -0.0814
      3 C3          2.9012    9.0183    1.0999 C.ar      1 <0>        -0.1028
      4 C4          2.2660   10.2411    1.2125 C.ar      1 <0>        -0.0975
      5 C5          1.3108   10.4402    2.1928 C.ar      1 <0>        -0.1039
      6 C6          0.9888    9.4167    3.0634 C.ar      1 <0>        -0.0218
      7 C7          1.6215    8.1842    2.9485 C.ar      1 <0>         0.1327
      8 N1          1.2933    7.1433    3.8237 N.am      1 <0>        -0.6648
      9 C8          1.3141    7.3507    5.1552 C.2       1 <0>         0.5983
     10 O1          1.5193    8.4677    5.5943 O.2       1 <0>        -0.4690
     11 C9          1.0903    6.2342    6.0727 C.2       1 <0>        -0.2500
     12 C10         1.0624    6.2188    7.4604 C.2       1 <0>         0.1439
     13 N2          0.8362    5.0594    8.0246 N.2       1 <0>        -0.4984
     14 C11         0.6458    3.9675    7.3056 C.2       1 <0>         0.2172
     15 S1          0.7692    4.5136    5.7185 S.3       1 <0>         0.2242
     16 N3          0.3986    2.6839    7.7506 N.pl3     1 <0>        -0.5513
     17 C12         0.2203    2.4413    9.1063 C.ar      1 <0>         0.5098
     18 C13        -0.1335    1.1734    9.5556 C.ar      1 <0>        -0.3097
     19 C14        -0.3003    0.9817   10.9244 C.ar      1 <0>         0.4927
     20 N4         -0.1163    2.0116   11.7481 N.ar      1 <0>        -0.5695
     21 C15         0.2187    3.1980   11.2828 C.ar      1 <0>         0.4589
     22 N5          0.3911    3.4178    9.9956 N.ar      1 <0>        -0.4762
     23 C16         0.4165    4.3348   12.2521 C.3       1 <0>        -0.1303
     24 N6         -0.6531   -0.2629   11.4224 N.pl3     1 <0>        -0.6123
     25 C17        -0.9643   -0.4465   12.8484 C.3       1 <0>         0.0782
     26 C18        -2.3027   -1.1838   12.9625 C.3       1 <0>        -0.0204
     27 N7         -2.2406   -2.4311   12.1903 N.4       1 <0>        -0.3852
     28 C19        -2.0770   -2.1279   10.7629 C.3       1 <0>        -0.0304
     29 C20        -0.7330   -1.4363   10.5388 C.3       1 <0>         0.0932
     30 C21        -3.4827   -3.1900   12.3886 C.3       1 <0>        -0.0061
     31 C22        -3.3702   -4.5448   11.6865 C.3       1 <0>         0.0434
     32 O2         -2.3479   -5.3224   12.3128 O.3       1 <0>        -0.5819
     33 Cl1        -0.2098    9.6671    4.2940 Cl        1 <0>        -0.0466
     34 H1          2.7157    6.0184    1.1617 H         1 <0>         0.0770
     35 H2          4.2843    6.8074    1.4538 H         1 <0>         0.0791
     36 H3          3.3325    6.1847    2.8230 H         1 <0>         0.0631
     37 H4          3.6468    8.8665    0.3335 H         1 <0>         0.1380
     38 H5          2.5166   11.0428    0.5336 H         1 <0>         0.1401
     39 H6          0.8165   11.3966    2.2780 H         1 <0>         0.1410
     40 H7          1.0508    6.2723    3.4722 H         1 <0>         0.4077
     41 H8          1.2191    7.1146    8.0429 H         1 <0>         0.2016
     42 H9          0.3494    1.9517    7.1163 H         1 <0>         0.4545
     43 H10        -0.2756    0.3590    8.8607 H         1 <0>         0.1860
     44 H11         1.4581    4.3621   12.5724 H         1 <0>         0.1309
     45 H12         0.1613    5.2760   11.7653 H         1 <0>         0.1358
     46 H13        -0.2267    4.1885   13.1199 H         1 <0>         0.1083
     47 H14        -0.1795   -1.0367   13.3215 H         1 <0>         0.1249
     48 H15        -1.0392    0.5259   13.3352 H         1 <0>         0.1232
     49 H16        -2.5028   -1.4138   14.0090 H         1 <0>         0.1602
     50 H17        -3.0999   -0.5526   12.5701 H         1 <0>         0.1410
     51 H18        -2.1110   -3.0537   10.1885 H         1 <0>         0.1585
     52 H19        -2.8811   -1.4682   10.4370 H         1 <0>         0.1418
     53 H20        -0.6550   -1.1179    9.4992 H         1 <0>         0.1416
     54 H21         0.0756   -2.1281   10.7747 H         1 <0>         0.1211
     55 H22        -3.6469   -3.3459   13.4548 H         1 <0>         0.1465
     56 H23        -4.3202   -2.6321   11.9697 H         1 <0>         0.1464
     57 H24        -4.3221   -5.0710   11.7578 H         1 <0>         0.1026
     58 H25        -3.1180   -4.3904   10.6374 H         1 <0>         0.0719
     59 H26        -2.2211   -6.1961   11.9183 H         1 <0>         0.4154
     60 H27        -0.2308    1.8869   12.7032 H         1 <0>         0.4393
     61 H28        -1.4578   -2.9831   12.5075 H         1 <0>         0.4359
@<TRIPOS>BOND
     1    1    2 1
     2    1   34 1
     3    1   35 1
     4    1   36 1
     5    2    7 ar
     6    2    3 ar
     7    3    4 ar
     8    3   37 1
     9    4    5 ar
    10    4   38 1
    11    5    6 ar
    12    5   39 1
    13    6    7 ar
    14    6   33 1
    15    7    8 1
    16    8    9 am
    17    8   40 1
    18    9   10 2
    19    9   11 1
    20   11   15 1
    21   11   12 2
    22   12   13 1
    23   12   41 1
    24   13   14 2
    25   14   15 1
    26   14   16 1
    27   16   17 1
    28   16   42 1
    29   17   18 ar
    30   17   22 ar
    31   18   43 1
    32   18   19 ar
    33   19   24 1
    34   19   20 ar
    35   20   60 1
    36   20   21 ar
    37   21   23 1
    38   21   22 ar
    39   23   44 1
    40   23   45 1
    41   23   46 1
    42   24   29 1
    43   24   25 1
    44   25   26 1
    45   25   47 1
    46   25   48 1
    47   26   27 1
    48   26   49 1
    49   26   50 1
    50   27   28 1
    51   27   30 1
    52   27   61 1
    53   28   29 1
    54   28   51 1
    55   28   52 1
    56   29   53 1
    57   29   54 1
    58   30   31 1
    59   30   55 1
    60   30   56 1
    61   31   32 1
    62   31   57 1
    63   31   58 1
    64   32   59 1
@<TRIPOS>MOLECULE
ZINC03814434
   62    69     0     0     0
SMALL
USER_CHARGES

@<TRIPOS>ATOM
      1 C1         -0.1295    1.5952   -0.2973 C.3       1 <0>        -0.1687
      2 C2         -0.0862    0.0696   -0.1900 C.3       1 <0>         0.3342
      3 C3          0.5692   -0.4501   -1.4637 C.3       1 <0>         0.0405
      4 H1          1.4796    0.1159   -1.6612 H         1 <0>         0.1372
      5 C4          0.9167   -1.9328   -1.2889 C.3       1 <0>        -0.0061
      6 H2          1.3963   -2.3075   -2.1932 H         1 <0>         0.1555
      7 C5          1.8785   -2.0596   -0.1021 C.3       1 <0>        -0.1827
      8 C6          1.2061   -1.5198    1.1541 C.3       1 <0>         0.2999
      9 H3          1.9797   -1.4243    1.9161 H         1 <0>         0.1550
     10 O1          0.6555   -0.2442    0.9666 O.3       1 <0>        -0.3234
     11 N1          0.2189   -2.4746    1.6600 N.pl3     1 <0>        -0.5366
     12 C7          0.4705   -3.5508    2.4739 C.ar      1 <0>         0.1469
     13 C8          1.6649   -4.0152    3.0240 C.ar      1 <0>        -0.1522
     14 C9          1.5948   -5.1456    3.8201 C.ar      1 <0>        -0.0582
     15 C10         0.4006   -5.7997    4.0696 C.ar      1 <0>        -0.1457
     16 C11        -0.7984   -5.3597    3.5358 C.ar      1 <0>        -0.0280
     17 C12        -0.7487   -4.2198    2.7307 C.ar      1 <0>        -0.1131
     18 C13        -1.7893   -3.4830    2.0197 C.ar      1 <0>         0.0276
     19 C14        -1.1442   -2.4197    1.3841 C.ar      1 <0>         0.0376
     20 C15        -1.8806   -1.5095    0.6175 C.ar      1 <0>         0.0894
     21 N2         -1.4718   -0.3951   -0.1095 N.pl3     1 <0>        -0.5183
     22 C16        -2.5611    0.1913   -0.7090 C.ar      1 <0>         0.1618
     23 C17        -2.6521    1.3277   -1.5118 C.ar      1 <0>        -0.1305
     24 C18        -3.9109    1.6745   -1.9733 C.ar      1 <0>        -0.0737
     25 C19        -5.0393    0.9368   -1.6616 C.ar      1 <0>        -0.1358
     26 C20        -4.9745   -0.1955   -0.8662 C.ar      1 <0>        -0.0503
     27 C21        -3.7147   -0.5596   -0.3919 C.ar      1 <0>        -0.1042
     28 C22        -3.2693   -1.6660    0.4845 C.ar      1 <0>        -0.0360
     29 C23        -3.9084   -2.7313    1.1102 C.ar      1 <0>        -0.0288
     30 C24        -3.1873   -3.6421    1.8754 C.ar      1 <0>        -0.1255
     31 C25        -4.1221   -4.6480    2.4030 C.2       1 <0>         0.5632
     32 O2         -3.8062   -5.5851    3.1110 O.2       1 <0>        -0.5106
     33 N3         -5.3744   -4.3851    1.9926 N.am      1 <0>        -0.7162
     34 C26        -5.3495   -3.1771    1.1601 C.3       1 <0>         0.1358
     35 N4         -0.3067   -2.7008   -1.0216 N.4       1 <0>        -0.5252
     36 C27         0.0145   -4.1336   -0.9773 C.3       1 <0>        -0.0497
     37 O3         -0.3340   -0.2979   -2.5607 O.3       1 <0>        -0.3614
     38 C28         0.3101   -0.0933   -3.8198 C.3       1 <0>         0.0162
     39 H4          0.8261    2.0094    0.0240 H         1 <0>         0.0984
     40 H5         -0.3202    1.8814   -1.3317 H         1 <0>         0.1036
     41 H6         -0.9255    1.9818    0.3392 H         1 <0>         0.0921
     42 H7          2.1370   -3.1081    0.0458 H         1 <0>         0.1233
     43 H8          2.7835   -1.4869   -0.3048 H         1 <0>         0.1455
     44 H9          2.6036   -3.5149    2.8368 H         1 <0>         0.1365
     45 H10         2.5026   -5.5304    4.2610 H         1 <0>         0.1359
     46 H11         0.4045   -6.6780    4.6980 H         1 <0>         0.1352
     47 H12        -1.7278   -5.8736    3.7323 H         1 <0>         0.1600
     48 H13        -1.7792    1.9122   -1.7624 H         1 <0>         0.1440
     49 H14        -4.0153    2.5500   -2.5970 H         1 <0>         0.1336
     50 H15        -5.9967    1.2527   -2.0488 H         1 <0>         0.1332
     51 H16        -5.8575   -0.7687   -0.6249 H         1 <0>         0.1415
     52 H17        -6.1628   -4.9065    2.2103 H         1 <0>         0.4348
     53 H18        -5.9671   -2.3994    1.6094 H         1 <0>         0.1115
     54 H19        -5.7060   -3.4063    0.1559 H         1 <0>         0.1103
     55 H20        -0.6958   -2.4158   -0.1353 H         1 <0>         0.4186
     56 H21         0.4349   -4.4415   -1.9347 H         1 <0>         0.1256
     57 H22         0.7403   -4.3189   -0.1854 H         1 <0>         0.1191
     58 H23        -0.8932   -4.7035   -0.7789 H         1 <0>         0.1256
     59 H24         0.9168    0.8112   -3.7748 H         1 <0>         0.0633
     60 H25         0.9482   -0.9479   -4.0446 H         1 <0>         0.0514
     61 H26        -0.4433    0.0130   -4.6003 H         1 <0>         0.1100
     62 H27        -0.9785   -2.5293   -1.7546 H         1 <0>         0.4274
@<TRIPOS>BOND
     1    1    2 1
     2    1   39 1
     3    1   40 1
     4    1   41 1
     5    2   10 1
     6    2   21 1
     7    2    3 1
     8    3    4 1
     9    3    5 1
    10    3   37 1
    11    5    6 1
    12    5    7 1
    13    5   35 1
    14    7    8 1
    15    7   42 1
    16    7   43 1
    17    8    9 1
    18    8   10 1
    19    8   11 1
    20   11   19 1
    21   11   12 1
    22   12   17 ar
    23   12   13 ar
    24   13   14 ar
    25   13   44 1
    26   14   15 ar
    27   14   45 1
    28   15   16 ar
    29   15   46 1
    30   16   17 ar
    31   16   47 1
    32   17   18 1
    33   18   30 ar
    34   18   19 ar
    35   19   20 ar
    36   20   28 ar
    37   20   21 1
    38   21   22 1
    39   22   27 ar
    40   22   23 ar
    41   23   24 ar
    42   23   48 1
    43   24   25 ar
    44   24   49 1
    45   25   26 ar
    46   25   50 1
    47   26   27 ar
    48   26   51 1
    49   27   28 1
    50   28   29 ar
    51   29   34 1
    52   29   30 ar
    53   30   31 1
    54   31   32 2
    55   31   33 am
    56   33   34 1
    57   33   52 1
    58   34   53 1
    59   34   54 1
    60   35   36 1
    61   35   55 1
    62   35   62 1
    63   36   56 1
    64   36   57 1
    65   36   58 1
    66   37   38 1
    67   38   59 1
    68   38   60 1
    69   38   61 1
@<TRIPOS>MOLECULE
ZINC72105034
   70    73     0     0     0
SMALL
USER_CHARGES

@<TRIPOS>ATOM
      1 C1         -3.0465   -3.1127   14.8741 C.3       1 <0>        -0.1892
      2 C2         -3.2466   -2.2549   13.6230 C.3       1 <0>        -0.0108
      3 N1         -4.1264   -2.9600   12.6814 N.4       1 <0>        -0.3829
      4 C3         -3.4647   -4.1874   12.2214 C.3       1 <0>        -0.0274
      5 C4         -4.4254   -4.9810   11.3297 C.3       1 <0>         0.1010
      6 N2         -4.8919   -4.1005   10.2474 N.pl3     1 <0>        -0.6456
      7 C5         -5.4217   -2.7770   10.6103 C.3       1 <0>         0.1015
      8 C6         -4.4140   -2.0875   11.5359 C.3       1 <0>        -0.0220
      9 C7         -4.8337   -4.5106    8.9106 C.ar      1 <0>         0.1766
     10 C8         -4.2262   -5.7148    8.5795 C.ar      1 <0>        -0.1629
     11 C9         -4.1692   -6.1195    7.2606 C.ar      1 <0>        -0.0646
     12 C10        -4.7193   -5.3226    6.2653 C.ar      1 <0>         0.1310
     13 C11        -5.3268   -4.1185    6.5964 C.ar      1 <0>        -0.1041
     14 C12        -5.3885   -3.7162    7.9158 C.ar      1 <0>        -0.1629
     15 N3         -4.6611   -5.7330    4.9274 N.pl3     1 <0>        -0.6533
     16 C13        -4.7431   -7.0808    4.6114 C.ar      1 <0>         0.4484
     17 C14        -4.5642   -7.5111    3.2990 C.ar      1 <0>        -0.3232
     18 C15        -4.6563   -8.8727    3.0342 C.ar      1 <0>         0.4562
     19 N4         -4.9104   -9.7105    4.0371 N.ar      1 <0>        -0.5358
     20 C16        -5.0737   -9.2649    5.2660 C.ar      1 <0>         0.3663
     21 N5         -4.9887   -7.9832    5.5591 N.ar      1 <0>        -0.5884
     22 N6         -4.4859   -9.3527    1.7400 N.am      1 <0>        -0.5513
     23 C17        -4.0993   -8.4367    0.6640 C.3       1 <0>         0.0633
     24 C18        -4.6764  -10.6605    1.4758 C.2       1 <0>         0.6965
     25 O1         -4.9972  -11.4206    2.3688 O.2       1 <0>        -0.4771
     26 N7         -4.5113  -11.1256    0.2217 N.am      1 <0>        -0.6806
     27 C19        -4.5933  -12.5005   -0.0317 C.ar      1 <0>         0.2488
     28 C20        -3.5635  -13.1459   -0.7035 C.ar      1 <0>        -0.1156
     29 C21        -3.6457  -14.5077   -0.9540 C.ar      1 <0>         0.1985
     30 C22        -4.7561  -15.2246   -0.5342 C.ar      1 <0>        -0.2856
     31 C23        -5.7851  -14.5810    0.1368 C.ar      1 <0>         0.1981
     32 C24        -5.7020  -13.2205    0.3937 C.ar      1 <0>        -0.0913
     33 Cl1        -6.9867  -12.4166    1.2405 Cl        1 <0>        -0.0174
     34 O2         -6.8731  -15.2849    0.5478 O.3       1 <0>        -0.2934
     35 C25        -6.8895  -16.6834    0.2548 C.3       1 <0>         0.0217
     36 O3         -2.6377  -15.1397   -1.6116 O.3       1 <0>        -0.2949
     37 C26        -2.7887  -16.5430   -1.8355 C.3       1 <0>         0.0219
     38 Cl2        -2.1738  -12.2486   -1.2302 Cl        1 <0>        -0.0383
     39 H1         -2.3937   -2.5895   15.5727 H         1 <0>         0.1068
     40 H2         -4.0114   -3.2967   15.3466 H         1 <0>         0.0809
     41 H3         -2.5919   -4.0630   14.5941 H         1 <0>         0.0805
     42 H4         -3.7012   -1.3046   13.9030 H         1 <0>         0.1310
     43 H5         -2.2817   -2.0709   13.1505 H         1 <0>         0.1281
     44 H6         -2.5717   -3.9277   11.6528 H         1 <0>         0.1321
     45 H7         -3.1838   -4.7935   13.0827 H         1 <0>         0.1410
     46 H8         -3.9058   -5.8399   10.9049 H         1 <0>         0.1268
     47 H9         -5.2773   -5.3195   11.9194 H         1 <0>         0.0863
     48 H10        -5.5608   -2.1788    9.7098 H         1 <0>         0.1256
     49 H11        -6.3742   -2.8930   11.1273 H         1 <0>         0.0858
     50 H12        -4.8326   -1.1462   11.8921 H         1 <0>         0.1394
     51 H13        -3.4923   -1.8913   10.9881 H         1 <0>         0.1318
     52 H14        -3.7980   -6.3344    9.3535 H         1 <0>         0.1245
     53 H15        -3.6964   -7.0558    7.0031 H         1 <0>         0.1406
     54 H16        -5.7546   -3.4987    5.8223 H         1 <0>         0.1287
     55 H17        -5.8648   -2.7819    8.1738 H         1 <0>         0.1249
     56 H18        -4.5634   -5.0745    4.2219 H         1 <0>         0.4207
     57 H19        -4.3595   -6.8053    2.5076 H         1 <0>         0.1461
     58 H20        -5.2787   -9.9712    6.0569 H         1 <0>         0.2006
     59 H21        -3.0123   -8.3941    0.5961 H         1 <0>         0.0784
     60 H22        -4.5087   -8.7932   -0.2812 H         1 <0>         0.0834
     61 H23        -4.4893   -7.4413    0.8765 H         1 <0>         0.0916
     62 H24        -4.3356  -10.5081   -0.5055 H         1 <0>         0.4126
     63 H25        -4.8197  -16.2847   -0.7302 H         1 <0>         0.1546
     64 H26        -7.8108  -17.1238    0.6364 H         1 <0>         0.1096
     65 H27        -6.8368  -16.8293   -0.8241 H         1 <0>         0.0610
     66 H28        -6.0336  -17.1640    0.7287 H         1 <0>         0.0609
     67 H29        -3.6841  -16.7217   -2.4308 H         1 <0>         0.0613
     68 H30        -1.9165  -16.9218   -2.3683 H         1 <0>         0.1099
     69 H31        -2.8806  -17.0558   -0.8781 H         1 <0>         0.0610
     70 H32        -4.9899   -3.1998   13.1451 H         1 <0>         0.4221
@<TRIPOS>BOND
     1    1    2 1
     2    1   39 1
     3    1   40 1
     4    1   41 1
     5    2    3 1
     6    2   42 1
     7    2   43 1
     8    3    8 1
     9    3    4 1
    10    3   70 1
    11    4    5 1
    12    4   44 1
    13    4   45 1
    14    5    6 1
    15    5   46 1
    16    5   47 1
    17    6    7 1
    18    6    9 1
    19    7    8 1
    20    7   48 1
    21    7   49 1
    22    8   50 1
    23    8   51 1
    24    9   14 ar
    25    9   10 ar
    26   10   11 ar
    27   10   52 1
    28   11   12 ar
    29   11   53 1
    30   12   13 ar
    31   12   15 1
    32   13   14 ar
    33   13   54 1
    34   14   55 1
    35   15   16 1
    36   15   56 1
    37   16   21 ar
    38   16   17 ar
    39   17   18 ar
    40   17   57 1
    41   18   19 ar
    42   18   22 1
    43   19   20 ar
    44   20   21 ar
    45   20   58 1
    46   22   23 1
    47   22   24 am
    48   23   59 1
    49   23   60 1
    50   23   61 1
    51   24   25 2
    52   24   26 am
    53   26   27 1
    54   26   62 1
    55   27   32 ar
    56   27   28 ar
    57   28   29 ar
    58   28   38 1
    59   29   30 ar
    60   29   36 1
    61   30   31 ar
    62   30   63 1
    63   31   32 ar
    64   31   34 1
    65   32   33 1
    66   34   35 1
    67   35   64 1
    68   35   65 1
    69   35   66 1
    70   36   37 1
    71   37   67 1
    72   37   68 1
    73   37   69 1
@<TRIPOS>MOLECULE
ZINC72105034
   69    72     0     0     0
SMALL
USER_CHARGES

@<TRIPOS>ATOM
      1 C1         -3.4378   -3.9375   14.6684 C.3       1 <0>        -0.1502
      2 C2         -3.5006   -3.0159   13.4488 C.3       1 <0>         0.0503
      3 N1         -4.3406   -3.6313   12.4127 N.3       1 <0>        -0.5378
      4 C3         -3.7251   -4.8621   11.8984 C.3       1 <0>         0.0363
      5 C4         -4.7086   -5.5666   10.9578 C.3       1 <0>         0.1266
      6 N2         -5.1378   -4.6085    9.9278 N.pl3     1 <0>        -0.6321
      7 C5         -5.6391   -3.2963   10.3636 C.3       1 <0>         0.1276
      8 C6         -4.6190   -2.6811   11.3275 C.3       1 <0>         0.0396
      9 C7         -5.0714   -4.9369    8.5689 C.ar      1 <0>         0.2080
     10 C8         -4.4894   -6.1336    8.1714 C.ar      1 <0>        -0.1806
     11 C9         -4.4244   -6.4578    6.8309 C.ar      1 <0>        -0.0579
     12 C10        -4.9408   -5.5873    5.8801 C.ar      1 <0>         0.0956
     13 C11        -5.5227   -4.3907    6.2776 C.ar      1 <0>        -0.0967
     14 C12        -5.5926   -4.0689    7.6185 C.ar      1 <0>        -0.1814
     15 N3         -4.8743   -5.9160    4.5202 N.pl3     1 <0>        -0.6480
     16 C13        -4.9857   -7.2392    4.1204 C.ar      1 <0>         0.4532
     17 C14        -4.7996   -7.5924    2.7862 C.ar      1 <0>        -0.3285
     18 C15        -4.9221   -8.9324    2.4366 C.ar      1 <0>         0.4515
     19 N4         -5.2108   -9.8235    3.3827 N.ar      1 <0>        -0.5423
     20 C16        -5.3796   -9.4503    4.6347 C.ar      1 <0>         0.3655
     21 N5         -5.2667   -8.1917    5.0075 N.ar      1 <0>        -0.5828
     22 N6         -4.7461   -9.3361    1.1173 N.am      1 <0>        -0.5515
     23 C17        -4.3221   -8.3659    0.1048 C.3       1 <0>         0.0649
     24 C18        -4.9656  -10.6198    0.7705 C.2       1 <0>         0.6963
     25 O1         -5.3174  -11.4249    1.6108 O.2       1 <0>        -0.4774
     26 N7         -4.7950  -11.0110   -0.5080 N.am      1 <0>        -0.6824
     27 C19        -4.9079  -12.3651   -0.8468 C.ar      1 <0>         0.2515
     28 C20        -3.8855  -12.9943   -1.5448 C.ar      1 <0>        -0.1156
     29 C21        -3.9983  -14.3355   -1.8800 C.ar      1 <0>         0.1969
     30 C22        -5.1319  -15.0480   -1.5188 C.ar      1 <0>        -0.2867
     31 C23        -6.1535  -14.4206   -0.8218 C.ar      1 <0>         0.1972
     32 C24        -6.0399  -13.0811   -0.4802 C.ar      1 <0>        -0.0912
     33 Cl1        -7.3156  -12.2980    0.3991 Cl        1 <0>        -0.0151
     34 O2         -7.2642  -15.1202   -0.4683 O.3       1 <0>        -0.2933
     35 C25        -7.3116  -16.4972   -0.8473 C.3       1 <0>         0.0224
     36 O3         -2.9975  -14.9516   -2.5633 O.3       1 <0>        -0.2955
     37 C26        -3.1804  -16.3341   -2.8753 C.3       1 <0>         0.0225
     38 Cl2        -2.4668  -12.1023   -1.9981 Cl        1 <0>        -0.0388
     39 H1         -2.8146   -3.4808   15.4373 H         1 <0>         0.0601
     40 H2         -4.4435   -4.0912   15.0599 H         1 <0>         0.0642
     41 H3         -3.0108   -4.8971   14.3771 H         1 <0>         0.0548
     42 H4         -3.9276   -2.0563   13.7401 H         1 <0>         0.0754
     43 H5         -2.4950   -2.8622   13.0574 H         1 <0>         0.0324
     44 H6         -2.8150   -4.6131   11.3528 H         1 <0>         0.0373
     45 H7         -3.4816   -5.5223   12.7308 H         1 <0>         0.0881
     46 H8         -4.2176   -6.4171   10.4850 H         1 <0>         0.0867
     47 H9         -5.5752   -5.9086   11.5236 H         1 <0>         0.0692
     48 H10        -5.7633   -2.6458    9.4978 H         1 <0>         0.0853
     49 H11        -6.5952   -3.4200   10.8723 H         1 <0>         0.0688
     50 H12        -5.0237   -1.7596   11.7460 H         1 <0>         0.0847
     51 H13        -3.6964   -2.4625   10.7899 H         1 <0>         0.0375
     52 H14        -4.0875   -6.8104    8.9108 H         1 <0>         0.1239
     53 H15        -3.9715   -7.3882    6.5217 H         1 <0>         0.1333
     54 H16        -5.9244   -3.7138    5.5381 H         1 <0>         0.1213
     55 H17        -6.0491   -3.1403    7.9278 H         1 <0>         0.1240
     56 H18        -4.7504   -5.2181    3.8580 H         1 <0>         0.4169
     57 H19        -4.5666   -6.8448    2.0425 H         1 <0>         0.1434
     58 H20        -5.6130  -10.1984    5.3779 H         1 <0>         0.1992
     59 H21        -3.2335   -8.3472    0.0528 H         1 <0>         0.0766
     60 H22        -4.7274   -8.6529   -0.8655 H         1 <0>         0.0808
     61 H23        -4.6901   -7.3757    0.3737 H         1 <0>         0.0918
     62 H24        -4.5941  -10.3546   -1.1933 H         1 <0>         0.4120
     63 H25        -5.2193  -16.0921   -1.7808 H         1 <0>         0.1535
     64 H26        -7.2478  -16.5777   -1.9325 H         1 <0>         0.0599
     65 H27        -6.4745  -17.0279   -0.3938 H         1 <0>         0.0605
     66 H28        -8.2486  -16.9363   -0.5049 H         1 <0>         0.1088
     67 H29        -3.2981  -16.9023   -1.9526 H         1 <0>         0.0606
     68 H30        -4.0718  -16.4527   -3.4913 H         1 <0>         0.0604
     69 H31        -2.3108  -16.7017   -3.4200 H         1 <0>         0.1087
@<TRIPOS>BOND
     1    1    2 1
     2    1   39 1
     3    1   40 1
     4    1   41 1
     5    2    3 1
     6    2   42 1
     7    2   43 1
     8    3    8 1
     9    3    4 1
    10    4    5 1
    11    4   44 1
    12    4   45 1
    13    5    6 1
    14    5   46 1
    15    5   47 1
    16    6    7 1
    17    6    9 1
    18    7    8 1
    19    7   48 1
    20    7   49 1
    21    8   50 1
    22    8   51 1
    23    9   14 ar
    24    9   10 ar
    25   10   11 ar
    26   10   52 1
    27   11   12 ar
    28   11   53 1
    29   12   13 ar
    30   12   15 1
    31   13   14 ar
    32   13   54 1
    33   14   55 1
    34   15   16 1
    35   15   56 1
    36   16   21 ar
    37   16   17 ar
    38   17   18 ar
    39   17   57 1
    40   18   19 ar
    41   18   22 1
    42   19   20 ar
    43   20   21 ar
    44   20   58 1
    45   22   23 1
    46   22   24 am
    47   23   59 1
    48   23   60 1
    49   23   61 1
    50   24   25 2
    51   24   26 am
    52   26   27 1
    53   26   62 1
    54   27   32 ar
    55   27   28 ar
    56   28   29 ar
    57   28   38 1
    58   29   30 ar
    59   29   36 1
    60   30   31 ar
    61   30   63 1
    62   31   32 ar
    63   31   34 1
    64   32   33 1
    65   34   35 1
    66   35   64 1
    67   35   65 1
    68   35   66 1
    69   36   37 1
    70   37   67 1
    71   37   68 1
    72   37   69 1
@<TRIPOS>MOLECULE
ZINC03834198
   55    58     0     0     0
SMALL
USER_CHARGES

@<TRIPOS>ATOM
      1 C1          2.2102    1.3214   -1.5438 C.3       1 <0>        -0.0473
      2 N1          2.0302   -0.1310   -1.4177 N.4       1 <0>        -0.3861
      3 C2          2.8485   -0.8135   -2.4272 C.3       1 <0>        -0.0039
      4 C3          2.6029   -2.3220   -2.3537 C.3       1 <0>        -0.1426
      5 C4          2.9828   -2.8281   -0.9591 C.3       1 <0>        -0.0980
      6 C5          2.1768   -2.0570    0.0901 C.3       1 <0>        -0.1436
      7 C6          2.4382   -0.5583   -0.0740 C.3       1 <0>        -0.0065
      8 C7          2.6653   -4.3210   -0.8526 C.3       1 <0>         0.0553
      9 O1          3.1265   -4.8175    0.4056 O.3       1 <0>        -0.2959
     10 C8          2.9210   -6.1358    0.6612 C.ar      1 <0>         0.1621
     11 C9          2.2972   -6.9233   -0.2811 C.ar      1 <0>        -0.1791
     12 C10         2.0867   -8.2816   -0.0149 C.ar      1 <0>         0.2018
     13 C11         2.5192   -8.8246    1.2204 C.ar      1 <0>        -0.1784
     14 C12         3.1508   -8.0026    2.1612 C.ar      1 <0>        -0.1424
     15 C13         3.3512   -6.6812    1.8787 C.ar      1 <0>         0.1099
     16 O2          3.9702   -5.8850    2.7909 O.3       1 <0>        -0.3030
     17 C14         4.3854   -6.4992    4.0125 C.3       1 <0>         0.0198
     18 C15         2.2930  -10.2009    1.4605 C.ar      1 <0>         0.4667
     19 N2          1.6881  -10.9114    0.5174 N.ar      1 <0>        -0.5768
     20 C16         1.3012  -10.3606   -0.6222 C.ar      1 <0>         0.3478
     21 N3          1.4842   -9.0917   -0.8996 N.ar      1 <0>        -0.5414
     22 N4          2.6915  -10.7885    2.6441 N.pl3     1 <0>        -0.6296
     23 C17         2.5831  -12.1741    2.8088 C.ar      1 <0>         0.1376
     24 C18         2.4560  -12.9987    1.6992 C.ar      1 <0>        -0.1039
     25 C19         2.3491  -14.3660    1.8644 C.ar      1 <0>        -0.0732
     26 C20         2.3685  -14.9152    3.1341 C.ar      1 <0>        -0.0857
     27 C21         2.4949  -14.0974    4.2430 C.ar      1 <0>        -0.1007
     28 C22         2.6081  -12.7284    4.0841 C.ar      1 <0>         0.0686
     29 F1          2.7372  -11.9301    5.1664 F         1 <0>        -0.1332
     30 Br1         2.2212  -16.7875    3.3546 Br        1 <0>        -0.0295
     31 H1          3.2589    1.5727   -1.3848 H         1 <0>         0.1219
     32 H2          1.9075    1.6398   -2.5414 H         1 <0>         0.1242
     33 H3          1.5979    1.8295   -0.7989 H         1 <0>         0.1242
     34 H4          2.5792   -0.4499   -3.4189 H         1 <0>         0.1343
     35 H5          3.9024   -0.6078   -2.2397 H         1 <0>         0.1306
     36 H6          1.5493   -2.5288   -2.5414 H         1 <0>         0.0934
     37 H7          3.2127   -2.8271   -3.1028 H         1 <0>         0.1176
     38 H8          4.0478   -2.6678   -0.7908 H         1 <0>         0.1030
     39 H9          1.1143   -2.2583   -0.0469 H         1 <0>         0.0893
     40 H10         2.4820   -2.3726    1.0878 H         1 <0>         0.1210
     41 H11         3.5008   -0.3580    0.0634 H         1 <0>         0.1299
     42 H12         1.8660   -0.0063    0.6716 H         1 <0>         0.1325
     43 H13         1.5883   -4.4698   -0.9292 H         1 <0>         0.0742
     44 H14         3.1645   -4.8571   -1.6597 H         1 <0>         0.0787
     45 H15         1.9724   -6.4960   -1.2182 H         1 <0>         0.1540
     46 H16         3.4818   -8.4122    3.1042 H         1 <0>         0.1414
     47 H17         4.8638   -5.7549    4.6491 H         1 <0>         0.1093
     48 H18         3.5165   -6.9116    4.5254 H         1 <0>         0.0597
     49 H19         5.0925   -7.2996    3.7947 H         1 <0>         0.0600
     50 H20         0.8133  -10.9840   -1.3569 H         1 <0>         0.2036
     51 H21         3.0467  -10.2411    3.3618 H         1 <0>         0.4241
     52 H22         2.4404  -12.5714    0.7074 H         1 <0>         0.1818
     53 H23         2.2499  -15.0072    1.0010 H         1 <0>         0.1463
     54 H24         2.5094  -14.5289    5.2329 H         1 <0>         0.1515
     55 H25         1.0589   -0.3624   -1.5626 H         1 <0>         0.4246
@<TRIPOS>BOND
     1    1    2 1
     2    1   31 1
     3    1   32 1
     4    1   33 1
     5    2    7 1
     6    2    3 1
     7    2   55 1
     8    3    4 1
     9    3   34 1
    10    3   35 1
    11    4    5 1
    12    4   36 1
    13    4   37 1
    14    5    6 1
    15    5    8 1
    16    5   38 1
    17    6    7 1
    18    6   39 1
    19    6   40 1
    20    7   41 1
    21    7   42 1
    22    8    9 1
    23    8   43 1
    24    8   44 1
    25    9   10 1
    26   10   15 ar
    27   10   11 ar
    28   11   12 ar
    29   11   45 1
    30   12   21 ar
    31   12   13 ar
    32   13   14 ar
    33   13   18 ar
    34   14   15 ar
    35   14   46 1
    36   15   16 1
    37   16   17 1
    38   17   47 1
    39   17   48 1
    40   17   49 1
    41   18   19 ar
    42   18   22 1
    43   19   20 ar
    44   20   21 ar
    45   20   50 1
    46   22   23 1
    47   22   51 1
    48   23   28 ar
    49   23   24 ar
    50   24   25 ar
    51   24   52 1
    52   25   26 ar
    53   25   53 1
    54   26   27 ar
    55   26   30 1
    56   27   28 ar
    57   27   54 1
    58   28   29 1
@<TRIPOS>MOLECULE
ZINC18825334
   48    52     0     0     0
SMALL
USER_CHARGES
4-[[9-chloro-7-(2,6-difluorophenyl)-5H-pyrimido[5,4-d][2]benzazepin-2-yl]amino]benzoic acid
@<TRIPOS>ATOM
      1 C1          2.2776    0.3903   -0.5698 C.ar      1 <0>        -0.0509
      2 C2          1.1421    1.1799   -0.5633 C.ar      1 <0>        -0.1622
      3 C3         -0.1043    0.6031   -0.4066 C.ar      1 <0>         0.1578
      4 C4         -0.2153   -0.7818   -0.2549 C.ar      1 <0>        -0.1229
      5 C5          0.9369   -1.5728   -0.2630 C.ar      1 <0>         0.1499
      6 C6          2.1761   -0.9809   -0.4208 C.ar      1 <0>        -0.1633
      7 F1          0.8397   -2.9124   -0.1175 F         1 <0>        -0.1231
      8 C7         -1.5453   -1.4071   -0.0861 C.2       1 <0>         0.2536
      9 N1         -2.1650   -1.7678   -1.1512 N.2       1 <0>        -0.4634
     10 C8         -3.4819   -2.3942   -1.1195 C.3       1 <0>         0.0964
     11 C9         -4.4898   -1.4068   -0.6038 C.ar      1 <0>        -0.2574
     12 C10        -5.5098   -0.9746   -1.4374 C.ar      1 <0>         0.2162
     13 N2         -6.3794   -0.0861   -0.9844 N.ar      1 <0>        -0.5366
     14 C11        -6.2835    0.3896    0.2490 C.ar      1 <0>         0.5701
     15 N3         -5.3286   -0.0031    1.0745 N.ar      1 <0>        -0.5552
     16 C12        -4.4183   -0.9022    0.6848 C.ar      1 <0>         0.2552
     17 C13        -3.3769   -1.3202    1.6484 C.ar      1 <0>        -0.0142
     18 C14        -2.0497   -1.5581    1.2881 C.ar      1 <0>        -0.0587
     19 C15        -1.1358   -1.9616    2.2712 C.ar      1 <0>        -0.0846
     20 C16        -1.5377   -2.1181    3.5805 C.ar      1 <0>        -0.0213
     21 C17        -2.8549   -1.8776    3.9370 C.ar      1 <0>        -0.0981
     22 C18        -3.7670   -1.4826    2.9833 C.ar      1 <0>        -0.0636
     23 Cl1        -0.3917   -2.6181    4.7848 Cl        1 <0>        -0.0577
     24 N4         -7.2095    1.3241    0.6851 N.pl3     1 <0>        -0.6261
     25 C19        -8.1519    1.8366   -0.2021 C.ar      1 <0>         0.1418
     26 C20        -9.4292    2.1564    0.2498 C.ar      1 <0>        -0.1598
     27 C21       -10.3616    2.6678   -0.6235 C.ar      1 <0>        -0.0590
     28 C22       -10.0281    2.8564   -1.9684 C.ar      1 <0>        -0.1232
     29 C23        -8.7457    2.5290   -2.4200 C.ar      1 <0>        -0.0681
     30 C24        -7.8166    2.0227   -1.5403 C.ar      1 <0>        -0.1261
     31 C25       -11.0259    3.3995   -2.9077 C.2       1 <0>         0.4893
     32 O1        -10.7345    3.5633   -4.0760 O.co2     1 <0>        -0.6323
     33 F2         -1.2128    1.3755   -0.4056 F         1 <0>        -0.1209
     34 H1          3.2486    0.8468   -0.6927 H         1 <0>         0.1483
     35 H2          1.2295    2.2500   -0.6806 H         1 <0>         0.1486
     36 H3          3.0673   -1.5909   -0.4273 H         1 <0>         0.1485
     37 H4         -3.4574   -3.2644   -0.4636 H         1 <0>         0.0791
     38 H5         -3.7607   -2.7058   -2.1261 H         1 <0>         0.1121
     39 H6         -5.5938   -1.3585   -2.4434 H         1 <0>         0.1778
     40 H7         -0.1076   -2.1514    2.0006 H         1 <0>         0.1393
     41 H8         -3.1667   -1.9996    4.9638 H         1 <0>         0.1452
     42 H9         -4.7921   -1.2962    3.2678 H         1 <0>         0.1468
     43 H10        -7.2009    1.6210    1.6085 H         1 <0>         0.4210
     44 H11        -9.6873    2.0066    1.2877 H         1 <0>         0.1185
     45 H12       -11.3510    2.9199   -0.2713 H         1 <0>         0.1349
     46 H13        -8.4848    2.6738   -3.4580 H         1 <0>         0.1294
     47 H14        -6.8261    1.7696   -1.8885 H         1 <0>         0.1253
     48 O2        -12.2611    3.7145   -2.4709 O.co2     1 <0>        -0.7564
@<TRIPOS>BOND
     1    1    6 ar
     2    1    2 ar
     3    1   34 1
     4    2    3 ar
     5    2   35 1
     6    3    4 ar
     7    3   33 1
     8    4    5 ar
     9    4    8 1
    10    5    6 ar
    11    5    7 1
    12    6   36 1
    13    8   18 1
    14    8    9 2
    15    9   10 1
    16   10   11 1
    17   10   37 1
    18   10   38 1
    19   11   16 ar
    20   11   12 ar
    21   12   13 ar
    22   12   39 1
    23   13   14 ar
    24   14   15 ar
    25   14   24 1
    26   15   16 ar
    27   16   17 1
    28   17   22 ar
    29   17   18 ar
    30   18   19 ar
    31   19   20 ar
    32   19   40 1
    33   20   21 ar
    34   20   23 1
    35   21   22 ar
    36   21   41 1
    37   22   42 1
    38   24   25 1
    39   24   43 1
    40   25   30 ar
    41   25   26 ar
    42   26   27 ar
    43   26   44 1
    44   27   28 ar
    45   27   45 1
    46   28   29 ar
    47   28   31 1
    48   29   30 ar
    49   29   46 1
    50   30   47 1
    51   31   32 2
    52   31   48 1
@<TRIPOS>MOLECULE
ZINC27439698
   59    62     0     0     0
SMALL
USER_CHARGES

@<TRIPOS>ATOM
      1 C1         -0.2063    1.0844    0.8125 C.2       1 <0>        -0.0780
      2 C2         -0.0916   -0.1284    0.2785 C.2       1 <0>        -0.2217
      3 C3          1.1892   -0.8472    0.3546 C.2       1 <0>         0.5464
      4 O1          2.1435   -0.3327    0.9059 O.2       1 <0>        -0.5301
      5 N1          1.3054   -2.0761   -0.1864 N.am      1 <0>        -0.6549
      6 C4          2.5517   -2.7129   -0.2160 C.ar      1 <0>         0.1200
      7 C5          3.7048   -1.9595   -0.1827 C.ar      1 <0>        -0.0579
      8 C6          4.9490   -2.5997   -0.2120 C.ar      1 <0>        -0.1974
      9 C7          5.0154   -4.0138   -0.2753 C.ar      1 <0>         0.2129
     10 C8          3.8313   -4.7603   -0.3083 C.ar      1 <0>        -0.1947
     11 C9          2.6164   -4.1137   -0.2734 C.ar      1 <0>         0.1622
     12 O2          1.4681   -4.8389   -0.3002 O.3       1 <0>        -0.3093
     13 C10         1.5999   -6.2606   -0.3586 C.3       1 <0>         0.0588
     14 C11         0.2106   -6.9010   -0.3813 C.3       1 <0>        -0.1156
     15 C12         0.3517   -8.4232   -0.4438 C.3       1 <0>         0.0578
     16 N2         -0.9822   -9.0382   -0.4657 N.3       1 <0>        -0.5360
     17 C13        -1.6880   -8.8108    0.8038 C.3       1 <0>         0.0125
     18 C14        -3.0921   -9.4148    0.7161 C.3       1 <0>         0.0626
     19 O3         -2.9885  -10.8047    0.3955 O.3       1 <0>        -0.3850
     20 C15        -2.3071  -11.0626   -0.8351 C.3       1 <0>         0.0628
     21 C16        -0.8951  -10.4753   -0.7631 C.3       1 <0>         0.0171
     22 N3          6.2221   -4.6015   -0.3018 N.ar      1 <0>        -0.5452
     23 C17         7.3156   -3.8777   -0.2694 C.ar      1 <0>         0.3493
     24 N4          7.3023   -2.5556   -0.2097 N.ar      1 <0>        -0.5859
     25 C18         6.1642   -1.8746   -0.1796 C.ar      1 <0>         0.4714
     26 N5          6.1650   -0.4957   -0.1182 N.pl3     1 <0>        -0.6328
     27 C19         7.3694    0.2084   -0.2227 C.ar      1 <0>         0.1581
     28 C20         7.5013    1.4536    0.3785 C.ar      1 <0>        -0.1169
     29 C21         8.6911    2.1472    0.2750 C.ar      1 <0>        -0.1176
     30 C22         9.7524    1.6027   -0.4280 C.ar      1 <0>         0.0901
     31 C23         9.6235    0.3609   -1.0292 C.ar      1 <0>        -0.0524
     32 C24         8.4363   -0.3392   -0.9225 C.ar      1 <0>        -0.0856
     33 Cl1        10.9555   -0.3188   -1.9109 Cl        1 <0>        -0.0424
     34 F1         10.9152    2.2833   -0.5284 F         1 <0>        -0.1264
     35 H1          0.6411    1.5413    1.3020 H         1 <0>         0.1166
     36 H2         -1.1456    1.6141    0.7527 H         1 <0>         0.1209
     37 H3         -0.9390   -0.5853   -0.2110 H         1 <0>         0.1323
     38 H4          0.5255   -2.5194   -0.5554 H         1 <0>         0.4201
     39 H5          3.6489   -0.8820   -0.1348 H         1 <0>         0.1596
     40 H6          3.8708   -5.8385   -0.3565 H         1 <0>         0.1517
     41 H7          2.1429   -6.5383   -1.2620 H         1 <0>         0.0720
     42 H8          2.1473   -6.6110    0.5165 H         1 <0>         0.0691
     43 H9         -0.3323   -6.6233    0.5221 H         1 <0>         0.0760
     44 H10        -0.3367   -6.5506   -1.2564 H         1 <0>         0.0860
     45 H11         0.8947   -8.7010   -1.3473 H         1 <0>         0.0821
     46 H12         0.8990   -8.7736    0.4312 H         1 <0>         0.0409
     47 H13        -1.1377   -9.2854    1.6162 H         1 <0>         0.0448
     48 H14        -1.7636   -7.7398    0.9914 H         1 <0>         0.0895
     49 H15        -3.5986   -9.2990    1.6743 H         1 <0>         0.0993
     50 H16        -3.6604   -8.9035   -0.0609 H         1 <0>         0.0609
     51 H17        -2.2459  -12.1385   -0.9988 H         1 <0>         0.1001
     52 H18        -2.8525  -10.5991   -1.6572 H         1 <0>         0.0612
     53 H19        -0.3918  -10.6192   -1.7193 H         1 <0>         0.0886
     54 H20        -0.3321  -10.9764    0.0243 H         1 <0>         0.0452
     55 H21         8.2696   -4.3834   -0.2921 H         1 <0>         0.1993
     56 H22         5.3306   -0.0149   -0.0027 H         1 <0>         0.4275
     57 H23         6.6738    1.8794    0.9265 H         1 <0>         0.1431
     58 H24         8.7936    3.1154    0.7424 H         1 <0>         0.1506
     59 H25         8.3373   -1.3092   -1.3869 H         1 <0>         0.1663
@<TRIPOS>BOND
     1    1    2 2
     2    1   35 1
     3    1   36 1
     4    2    3 1
     5    2   37 1
     6    3    4 2
     7    3    5 am
     8    5    6 1
     9    5   38 1
    10    6   11 ar
    11    6    7 ar
    12    7    8 ar
    13    7   39 1
    14    8   25 ar
    15    8    9 ar
    16    9   10 ar
    17    9   22 ar
    18   10   11 ar
    19   10   40 1
    20   11   12 1
    21   12   13 1
    22   13   14 1
    23   13   41 1
    24   13   42 1
    25   14   15 1
    26   14   43 1
    27   14   44 1
    28   15   16 1
    29   15   45 1
    30   15   46 1
    31   16   21 1
    32   16   17 1
    33   17   18 1
    34   17   47 1
    35   17   48 1
    36   18   19 1
    37   18   49 1
    38   18   50 1
    39   19   20 1
    40   20   21 1
    41   20   51 1
    42   20   52 1
    43   21   53 1
    44   21   54 1
    45   22   23 ar
    46   23   24 ar
    47   23   55 1
    48   24   25 ar
    49   25   26 1
    50   26   27 1
    51   26   56 1
    52   27   32 ar
    53   27   28 ar
    54   28   29 ar
    55   28   57 1
    56   29   30 ar
    57   29   58 1
    58   30   31 ar
    59   30   34 1
    60   31   32 ar
    61   31   33 1
    62   32   59 1
@<TRIPOS>MOLECULE
ZINC21288966
   49    52     0     0     0
SMALL
USER_CHARGES
2-(2-chlorophenyl)-5,7-dihydroxy-8-[(3S,4R)-3-hydroxy-1-methyl-4-piperidyl]chromen-4-one
@<TRIPOS>ATOM
      1 C1          6.0895   -0.0238    5.9621 C.3       1 <0>        -0.0460
      2 N1          6.1756    1.0472    4.9603 N.4       1 <0>        -0.3934
      3 C2          5.9739    0.5180    3.6055 C.3       1 <0>        -0.0028
      4 C3          6.2126    1.6289    2.5802 C.3       1 <0>        -0.1464
      5 C4          5.2418    2.7821    2.8491 C.3       1 <0>        -0.0180
      6 H1          4.2050    2.4431    2.7074 H         1 <0>         0.1039
      7 C5          5.4391    3.2830    4.2825 C.3       1 <0>         0.1015
      8 H2          4.7709    4.1271    4.5084 H         1 <0>         0.0941
      9 C6          5.2218    2.1236    5.2574 C.3       1 <0>        -0.0361
     10 O1          6.7669    3.7898    4.4323 O.3       1 <0>        -0.5639
     11 C7          5.5132    3.9050    1.8814 C.ar      1 <0>        -0.2158
     12 C8          6.8017    4.3949    1.7322 C.ar      1 <0>         0.2946
     13 C9          7.0678    5.4304    0.8434 C.ar      1 <0>        -0.3049
     14 C10         6.0448    5.9841    0.0956 C.ar      1 <0>         0.3111
     15 C11         4.7411    5.4942    0.2412 C.ar      1 <0>        -0.3649
     16 C12         4.4748    4.4470    1.1407 C.ar      1 <0>         0.2362
     17 O2          3.2147    3.9814    1.2730 O.3       1 <0>        -0.2171
     18 C13         2.1871    4.4838    0.5705 C.2       1 <0>         0.1982
     19 C14         2.3394    5.4926   -0.3277 C.2       1 <0>        -0.2780
     20 C15         3.6225    6.0546   -0.5353 C.2       1 <0>         0.4382
     21 O3          3.7953    6.9641   -1.3304 O.2       1 <0>        -0.4786
     22 C16         0.8407    3.9147    0.7769 C.ar      1 <0>        -0.0680
     23 C17         0.6478    2.5322    0.7263 C.ar      1 <0>        -0.0708
     24 C18        -0.6124    2.0073    0.9205 C.ar      1 <0>        -0.1159
     25 C19        -1.6867    2.8467    1.1599 C.ar      1 <0>        -0.0780
     26 C20        -1.5036    4.2164    1.2169 C.ar      1 <0>        -0.1066
     27 C21        -0.2472    4.7566    1.0243 C.ar      1 <0>        -0.0057
     28 Cl1        -0.0199    6.4765    1.0889 Cl        1 <0>        -0.0424
     29 O4          6.3024    6.9947   -0.7728 O.3       1 <0>        -0.4999
     30 O5          7.8133    3.8585    2.4614 O.3       1 <0>        -0.4665
     31 H3          6.8128   -0.8151    5.7159 H         1 <0>         0.1242
     32 H4          5.0728   -0.4438    5.9634 H         1 <0>         0.1169
     33 H5          6.3184    0.3856    6.9571 H         1 <0>         0.1225
     34 H6          6.6809   -0.3050    3.4243 H         1 <0>         0.1308
     35 H7          4.9438    0.1448    3.5072 H         1 <0>         0.1211
     36 H8          7.2477    1.9910    2.6662 H         1 <0>         0.1216
     37 H9          6.0450    1.2349    1.5669 H         1 <0>         0.1057
     38 H10         4.1951    1.7434    5.1512 H         1 <0>         0.1298
     39 H11         5.3771    2.4772    6.2874 H         1 <0>         0.1312
     40 H12         7.0946    4.1958    5.4007 H         1 <0>         0.4106
     41 H13         8.0758    5.8030    0.7365 H         1 <0>         0.1471
     42 H14         1.4871    5.8659   -0.8759 H         1 <0>         0.1670
     43 H15         1.4839    1.8757    0.5352 H         1 <0>         0.1384
     44 H16        -0.7625    0.9385    0.8812 H         1 <0>         0.1407
     45 H17        -2.6721    2.4298    1.3071 H         1 <0>         0.1438
     46 H18        -2.3456    4.8651    1.4082 H         1 <0>         0.1476
     47 H19         5.4855    7.4321   -1.3656 H         1 <0>         0.4556
     48 H20         8.8375    4.2431    2.3473 H         1 <0>         0.4397
     49 H21         7.1882    1.4744    5.0059 H         1 <0>         0.4481
@<TRIPOS>BOND
     1    1    2 1
     2    1   31 1
     3    1   32 1
     4    1   33 1
     5    2    9 1
     6    2    3 1
     7    2   49 1
     8    3    4 1
     9    3   34 1
    10    3   35 1
    11    4    5 1
    12    4   36 1
    13    4   37 1
    14    5    6 1
    15    5    7 1
    16    5   11 1
    17    7    8 1
    18    7    9 1
    19    7   10 1
    20    9   38 1
    21    9   39 1
    22   10   40 1
    23   11   16 ar
    24   11   12 ar
    25   12   13 ar
    26   12   30 1
    27   13   14 ar
    28   13   41 1
    29   14   15 ar
    30   14   29 1
    31   15   20 1
    32   15   16 ar
    33   16   17 1
    34   17   18 1
    35   18   19 2
    36   18   22 1
    37   19   20 1
    38   19   42 1
    39   20   21 2
    40   22   27 ar
    41   22   23 ar
    42   23   24 ar
    43   23   43 1
    44   24   25 ar
    45   24   44 1
    46   25   26 ar
    47   25   45 1
    48   26   27 ar
    49   26   46 1
    50   27   28 1
    51   29   47 1
    52   30   48 1
@<TRIPOS>MOLECULE
ZINC03964325
   57    59     0     0     0
SMALL
USER_CHARGES

@<TRIPOS>ATOM
      1 C1          0.1489    2.0884    0.1150 C.3       1 <0>        -0.1876
      2 C2          0.1348    0.5603    0.1888 C.3       1 <0>        -0.0191
      3 N1         -1.2520    0.0881    0.2979 N.4       1 <0>        -0.3822
      4 C3         -1.9779    0.4111   -0.9377 C.3       1 <0>        -0.0142
      5 C4         -3.4549    0.0484   -0.7712 C.3       1 <0>        -0.1895
      6 C5         -1.2593   -1.3663    0.5041 C.3       1 <0>        -0.0265
      7 C6         -0.6131   -1.6936    1.8518 C.3       1 <0>         0.0952
      8 N2         -0.6203   -3.1440    2.0575 N.am      1 <0>        -0.7289
      9 C7         -0.0988   -3.6675    3.1846 C.2       1 <0>         0.6111
     10 O1          0.3779   -2.9358    4.0309 O.2       1 <0>        -0.5184
     11 C8         -0.1061   -5.1270    3.3915 C.2       1 <0>        -0.2420
     12 C9          0.9071   -6.0320    3.0089 C.2       1 <0>        -0.0577
     13 C10         0.4868   -7.2892    3.3960 C.2       1 <0>        -0.0075
     14 N3         -0.7476   -7.1595    3.9982 N.pl3     1 <0>        -0.4910
     15 H1         -1.2731   -7.8879    4.3645 H         1 <0>         0.4270
     16 C11        -1.1044   -5.8642    4.0022 C.2       1 <0>         0.1158
     17 C12        -2.3825   -5.3072    4.5743 C.3       1 <0>        -0.0999
     18 C13         1.1957   -8.4957    3.2079 C.2       1 <0>         0.0729
     19 C14         0.5100   -9.6674    2.9570 C.2       1 <0>        -0.1889
     20 C15         1.0648  -11.0377    2.8871 C.ar      1 <0>        -0.0736
     21 C16         2.3472  -11.5557    3.0375 C.ar      1 <0>        -0.1000
     22 C17         2.5553  -12.9162    2.9116 C.ar      1 <0>         0.0861
     23 C18         1.4888  -13.7593    2.6366 C.ar      1 <0>        -0.1139
     24 C19         0.2139  -13.2531    2.4856 C.ar      1 <0>        -0.1021
     25 C20        -0.0144  -11.8871    2.6092 C.ar      1 <0>         0.1282
     26 N4         -1.1765  -11.1301    2.5069 N.am      1 <0>        -0.6466
     27 C21        -0.9294   -9.8245    2.7079 C.2       1 <0>         0.5595
     28 O2         -1.7538   -8.9280    2.6842 O.2       1 <0>        -0.5156
     29 F1          3.7984  -13.4252    3.0561 F         1 <0>        -0.1318
     30 C22         2.1990   -5.6919    2.3116 C.3       1 <0>        -0.0931
     31 H2          1.1793    2.4435    0.1331 H         1 <0>         0.1076
     32 H3         -0.3308    2.4121   -0.8087 H         1 <0>         0.0811
     33 H4         -0.3916    2.4984    0.9682 H         1 <0>         0.0809
     34 H5          0.5888    0.1488   -0.7126 H         1 <0>         0.1317
     35 H6          0.6996    0.2334    1.0619 H         1 <0>         0.1337
     36 H7         -1.8867    1.4775   -1.1444 H         1 <0>         0.1351
     37 H8         -1.5554   -0.1571   -1.7664 H         1 <0>         0.1307
     38 H9         -3.5537   -1.0316   -0.6617 H         1 <0>         0.0802
     39 H10        -3.8523    0.5414    0.1160 H         1 <0>         0.0808
     40 H11        -4.0109    0.3769   -1.6492 H         1 <0>         0.1074
     41 H12        -2.2871   -1.7292    0.4963 H         1 <0>         0.1397
     42 H13        -0.6973   -1.8494   -0.2952 H         1 <0>         0.1376
     43 H14         0.4147   -1.3306    1.8596 H         1 <0>         0.0893
     44 H15        -1.1751   -1.2105    2.6511 H         1 <0>         0.0890
     45 H16        -1.0005   -3.7277    1.3824 H         1 <0>         0.4099
     46 H17        -3.1529   -5.3000    3.8032 H         1 <0>         0.0840
     47 H18        -2.7087   -5.9289    5.4080 H         1 <0>         0.0782
     48 H19        -2.2103   -4.2898    4.9254 H         1 <0>         0.0840
     49 H20         2.2744   -8.5020    3.2604 H         1 <0>         0.1589
     50 H21         3.1765  -10.8977    3.2512 H         1 <0>         0.1436
     51 H22         1.6578  -14.8215    2.5394 H         1 <0>         0.1485
     52 H23        -0.6084  -13.9196    2.2712 H         1 <0>         0.1415
     53 H24        -2.0541  -11.4980    2.3189 H         1 <0>         0.4217
     54 H25         2.9686   -5.4822    3.0545 H         1 <0>         0.0785
     55 H26         2.5107   -6.5337    1.6932 H         1 <0>         0.0726
     56 H27         2.0522   -4.8138    1.6827 H         1 <0>         0.0634
     57 H28        -1.7009    0.5410    1.0799 H         1 <0>         0.4247
@<TRIPOS>BOND
     1    1    2 1
     2    1   31 1
     3    1   32 1
     4    1   33 1
     5    2    3 1
     6    2   34 1
     7    2   35 1
     8    3    4 1
     9    3    6 1
    10    3   57 1
    11    4    5 1
    12    4   36 1
    13    4   37 1
    14    5   38 1
    15    5   39 1
    16    5   40 1
    17    6    7 1
    18    6   41 1
    19    6   42 1
    20    7    8 1
    21    7   43 1
    22    7   44 1
    23    8    9 am
    24    8   45 1
    25    9   10 2
    26    9   11 1
    27   11   16 2
    28   11   12 1
    29   12   13 2
    30   12   30 1
    31   13   14 1
    32   13   18 1
    33   14   15 1
    34   14   16 1
    35   16   17 1
    36   17   46 1
    37   17   47 1
    38   17   48 1
    39   18   19 2
    40   18   49 1
    41   19   27 1
    42   19   20 1
    43   20   25 ar
    44   20   21 ar
    45   21   22 ar
    46   21   50 1
    47   22   23 ar
    48   22   29 1
    49   23   24 ar
    50   23   51 1
    51   24   25 ar
    52   24   52 1
    53   25   26 1
    54   26   27 am
    55   26   53 1
    56   27   28 2
    57   30   54 1
    58   30   55 1
    59   30   56 1
@<TRIPOS>MOLECULE
ZINC45245466
   50    54     0     0     0
SMALL
USER_CHARGES

@<TRIPOS>ATOM
      1 C1         -2.3574    0.0007    0.8882 C.3       1 <0>        -0.1217
      2 C2         -1.1212   -0.7251    0.4234 C.ar      1 <0>        -0.0521
      3 C3         -1.1583   -1.4839   -0.7289 C.ar      1 <0>        -0.1040
      4 C4         -0.0267   -2.1517   -1.1584 C.ar      1 <0>        -0.1207
      5 C5          1.1545   -2.0633   -0.4337 C.ar      1 <0>         0.1012
      6 C6          1.2023   -1.3043    0.7233 C.ar      1 <0>        -0.1068
      7 C7          0.0629   -0.6256    1.1546 C.ar      1 <0>        -0.0246
      8 C8          0.1080    0.1924    2.3868 C.2       1 <0>         0.1254
      9 C9         -0.0342    1.5273    2.4554 C.2       1 <0>         0.0099
     10 N1          0.0702    1.9067    3.7782 N.pl3     1 <0>        -0.3501
     11 C10         0.0472    2.9829    4.6531 C.2       1 <0>        -0.1880
     12 C11        -0.1250    4.3687    4.5029 C.2       1 <0>         0.6017
     13 O1         -0.3026    4.8507    3.3976 O.2       1 <0>        -0.5205
     14 N2         -0.0924    5.1608    5.5943 N.am      1 <0>        -0.6526
     15 H1         -0.2111    6.1181    5.4929 H         1 <0>         0.4395
     16 C12         0.1016    4.6447    6.8201 C.2       1 <0>         0.7152
     17 O2          0.1245    5.3902    7.7804 O.2       1 <0>        -0.5341
     18 N3          0.2708    3.3227    7.0113 N.am      1 <0>        -0.5085
     19 C13         0.2483    2.4566    5.9283 C.2       1 <0>         0.3796
     20 N4          0.3818    1.1387    5.8030 N.2       1 <0>        -0.4990
     21 C14         0.2786    0.7920    4.5286 C.2       1 <0>         0.4575
     22 N5          0.2987   -0.2844    3.6779 N.pl3     1 <0>        -0.3931
     23 C15         0.4819   -1.6248    4.0453 C.ar      1 <0>         0.0796
     24 C16         1.7599   -2.1613    4.1047 C.ar      1 <0>        -0.0542
     25 C17         1.9379   -3.4829    4.4670 C.ar      1 <0>        -0.1456
     26 C18         0.8448   -4.2735    4.7706 C.ar      1 <0>        -0.0536
     27 C19        -0.4318   -3.7461    4.7132 C.ar      1 <0>        -0.2027
     28 C20        -0.6185   -2.4201    4.3573 C.ar      1 <0>         0.1579
     29 O3         -1.8729   -1.8981    4.3067 O.3       1 <0>        -0.3068
     30 C21        -2.9533   -2.7722    4.6395 C.3       1 <0>         0.0247
     31 C22         0.4797    2.7991    8.3635 C.3       1 <0>         0.0851
     32 O4          2.2639   -2.7225   -0.8599 O.3       1 <0>        -0.4954
     33 H2         -2.3348    1.0275    0.5230 H         1 <0>         0.0781
     34 H3         -3.2423   -0.5036    0.5000 H         1 <0>         0.0724
     35 H4         -2.3893    0.0032    1.9777 H         1 <0>         0.0709
     36 H5         -2.0743   -1.5566   -1.2964 H         1 <0>         0.1357
     37 H6         -0.0615   -2.7443   -2.0606 H         1 <0>         0.1348
     38 H7          2.1203   -1.2348    1.2879 H         1 <0>         0.1309
     39 H8         -0.2014    2.1895    1.6187 H         1 <0>         0.1991
     40 H9          2.6154   -1.5463    3.8674 H         1 <0>         0.1362
     41 H10         2.9333   -3.8994    4.5129 H         1 <0>         0.1383
     42 H11         0.9887   -5.3060    5.0529 H         1 <0>         0.1366
     43 H12        -1.2834   -4.3664    4.9506 H         1 <0>         0.1403
     44 H13        -2.9604   -3.6188    3.9529 H         1 <0>         0.0602
     45 H14        -2.8272   -3.1333    5.6602 H         1 <0>         0.0606
     46 H15        -3.8962   -2.2314    4.5593 H         1 <0>         0.1043
     47 H16         0.4670    3.6223    9.0778 H         1 <0>         0.1049
     48 H17        -0.3154    2.0943    8.6071 H         1 <0>         0.0799
     49 H18         1.4429    2.2911    8.4117 H         1 <0>         0.0803
     50 H19         2.8228   -2.2066   -1.4571 H         1 <0>         0.3933
@<TRIPOS>BOND
     1    1    2 1
     2    1   33 1
     3    1   34 1
     4    1   35 1
     5    2    7 ar
     6    2    3 ar
     7    3    4 ar
     8    3   36 1
     9    4    5 ar
    10    4   37 1
    11    5    6 ar
    12    5   32 1
    13    6    7 ar
    14    6   38 1
    15    7    8 1
    16    8   22 1
    17    8    9 2
    18    9   10 1
    19    9   39 1
    20   10   21 1
    21   10   11 1
    22   11   19 2
    23   11   12 1
    24   12   13 2
    25   12   14 am
    26   14   15 1
    27   14   16 am
    28   16   17 2
    29   16   18 am
    30   18   19 1
    31   18   31 1
    32   19   20 1
    33   20   21 2
    34   21   22 1
    35   22   23 1
    36   23   28 ar
    37   23   24 ar
    38   24   25 ar
    39   24   40 1
    40   25   26 ar
    41   25   41 1
    42   26   27 ar
    43   26   42 1
    44   27   28 ar
    45   27   43 1
    46   28   29 1
    47   29   30 1
    48   30   44 1
    49   30   45 1
    50   30   46 1
    51   31   47 1
    52   31   48 1
    53   31   49 1
    54   32   50 1
@<TRIPOS>MOLECULE
ZINC03820040
   62    66     0     0     0
SMALL
USER_CHARGES
N-[4-[4-(4-methylpiperazin-1-yl)-6-[(5-methyl-2H-pyrazol-3-yl)amino]pyrimidin-2-yl]sulfanylphenyl]cyclopropanecarboxamide
@<TRIPOS>ATOM
      1 C1          1.8035   -7.6837    0.5070 C.3       1 <0>        -0.0779
      2 C2          2.3685   -6.3674    0.0389 C.2       1 <0>         0.0949
      3 C3          1.9325   -5.1020    0.4407 C.2       1 <0>        -0.2905
      4 C4          2.6904   -4.1743   -0.2066 C.2       1 <0>         0.3252
      5 N1          3.5799   -4.8447   -0.9836 N.pl3     1 <0>        -0.4853
      6 H1          4.2729   -4.4328   -1.5753 H         1 <0>         0.4473
      7 N2          3.3537   -6.2159   -0.8085 N.2       1 <0>        -0.2711
      8 N3          2.5778   -2.7905   -0.0888 N.pl3     1 <0>        -0.6296
      9 C5          1.3376   -2.2123    0.1391 C.ar      1 <0>         0.4706
     10 C6          0.1755   -2.9717    0.0343 C.ar      1 <0>        -0.2983
     11 C7         -1.0466   -2.3490    0.2714 C.ar      1 <0>         0.3791
     12 N4         -1.0643   -1.0564    0.5886 N.ar      1 <0>        -0.5664
     13 C8          0.0620   -0.3646    0.6795 C.ar      1 <0>         0.3511
     14 N5          1.2425   -0.9231    0.4557 N.ar      1 <0>        -0.5606
     15 S1         -0.0125    1.3444    1.1018 S.3       1 <0>         0.1303
     16 C9          1.7078    1.7032    1.2298 C.ar      1 <0>        -0.1638
     17 C10         2.3806    1.4637    2.4214 C.ar      1 <0>        -0.0284
     18 C11         3.7293    1.7409    2.5200 C.ar      1 <0>        -0.1315
     19 C12         4.4114    2.2681    1.4313 C.ar      1 <0>         0.1902
     20 C13         3.7379    2.5125    0.2417 C.ar      1 <0>        -0.1573
     21 C14         2.3903    2.2311    0.1410 C.ar      1 <0>        -0.0288
     22 N6          5.7793    2.5539    1.5333 N.am      1 <0>        -0.6744
     23 C15         6.5739    1.7808    2.2997 C.2       1 <0>         0.5466
     24 O1          6.1269    0.7811    2.8213 O.2       1 <0>        -0.5140
     25 C16         8.0178    2.1584    2.5086 C.3       1 <0>        -0.2022
     26 C17         9.0818    1.2604    1.8742 C.3       1 <0>        -0.1494
     27 C18         8.8679    1.2402    3.3890 C.3       1 <0>        -0.1425
     28 N7         -2.2296   -3.0657    0.1789 N.pl3     1 <0>        -0.4710
     29 C19        -2.3617   -3.6957   -1.1422 C.3       1 <0>         0.0277
     30 C20        -3.6379   -4.5399   -1.1765 C.3       1 <0>         0.0040
     31 C21        -4.6643   -3.0537    0.4349 C.3       1 <0>        -0.0004
     32 C22        -3.3881   -2.2095    0.4692 C.3       1 <0>         0.0347
     33 C23        -6.0501   -4.4431   -0.9842 C.3       1 <0>        -0.0407
     34 H2          2.3381   -8.0122    1.3982 H         1 <0>         0.0831
     35 H3          0.7460   -7.5623    0.7417 H         1 <0>         0.0784
     36 H4          1.9177   -8.4287   -0.2805 H         1 <0>         0.0774
     37 H5          1.1347   -4.8964    1.1389 H         1 <0>         0.1550
     38 H6          3.3667   -2.2314   -0.1662 H         1 <0>         0.4241
     39 H7          0.2211   -4.0192   -0.2246 H         1 <0>         0.1631
     40 H8          1.8494    1.0573    3.2693 H         1 <0>         0.1319
     41 H9          4.2533    1.5509    3.4451 H         1 <0>         0.1405
     42 H10         4.2686    2.9225   -0.6049 H         1 <0>         0.1339
     43 H11         1.8666    2.4209   -0.7843 H         1 <0>         0.1341
     44 H12         6.1543    3.3081    1.0523 H         1 <0>         0.4168
     45 H13         8.2224    3.2282    2.5520 H         1 <0>         0.1306
     46 H14         8.7374    0.3965    1.3057 H         1 <0>         0.0995
     47 H15         9.9866    1.7393    1.5000 H         1 <0>         0.1100
     48 H16         9.6320    1.7059    4.0114 H         1 <0>         0.1092
     49 H17         8.3827    0.3633    3.8175 H         1 <0>         0.1093
     50 H18        -2.4158   -2.9234   -1.9095 H         1 <0>         0.0737
     51 H19        -1.4982   -4.3342   -1.3286 H         1 <0>         0.1318
     52 H20        -3.5722   -5.3290   -0.4274 H         1 <0>         0.1439
     53 H21        -3.7533   -4.9852   -2.1646 H         1 <0>         0.1412
     54 H22        -4.6102   -3.8259    1.2022 H         1 <0>         0.1407
     55 H23        -5.5278   -2.4152    0.6217 H         1 <0>         0.1407
     56 H24        -3.2729   -1.7645    1.4575 H         1 <0>         0.1357
     57 H25        -3.4537   -1.4201   -0.2796 H         1 <0>         0.0793
     58 H26        -6.8948   -3.7714   -0.8313 H         1 <0>         0.1238
     59 H27        -6.1225   -4.8989   -1.9717 H         1 <0>         0.1230
     60 H28        -6.0632   -5.2226   -0.2224 H         1 <0>         0.1251
     61 N8         -4.7966   -3.6630   -0.9051 N.4       1 <0>        -0.4014
     62 H29        -4.8229   -2.9169   -1.6099 H         1 <0>         0.4281
@<TRIPOS>BOND
     1    1    2 1
     2    1   34 1
     3    1   35 1
     4    1   36 1
     5    2    7 2
     6    2    3 1
     7    3    4 2
     8    3   37 1
     9    4    5 1
    10    4    8 1
    11    5    6 1
    12    5    7 1
    13    8    9 1
    14    8   38 1
    15    9   14 ar
    16    9   10 ar
    17   10   11 ar
    18   10   39 1
    19   11   12 ar
    20   11   28 1
    21   12   13 ar
    22   13   14 ar
    23   13   15 1
    24   15   16 1
    25   16   21 ar
    26   16   17 ar
    27   17   18 ar
    28   17   40 1
    29   18   19 ar
    30   18   41 1
    31   19   20 ar
    32   19   22 1
    33   20   21 ar
    34   20   42 1
    35   21   43 1
    36   22   23 am
    37   22   44 1
    38   23   24 2
    39   23   25 1
    40   25   27 1
    41   25   26 1
    42   25   45 1
    43   26   27 1
    44   26   46 1
    45   26   47 1
    46   27   48 1
    47   27   49 1
    48   28   32 1
    49   28   29 1
    50   29   30 1
    51   29   50 1
    52   29   51 1
    53   30   52 1
    54   30   53 1
    55   30   61 1
    56   31   32 1
    57   31   54 1
    58   31   55 1
    59   31   61 1
    60   32   56 1
    61   32   57 1
    62   33   58 1
    63   33   59 1
    64   33   60 1
    65   33   61 1
    66   61   62 1
@<TRIPOS>MOLECULE
ZINC23247639
   69    72     0     0     0
SMALL
USER_CHARGES
1-[4-[(4-ethylpiperazin-1-yl)methyl]-3-(trifluoromethyl)phenyl]-3-[4-(6-methylaminopyrimidin-4-yl)oxyphenyl]urea
@<TRIPOS>ATOM
      1 C1          8.9417    3.3719    8.2172 C.3       1 <0>        -0.1901
      2 C2         10.1498    2.9102    7.3997 C.3       1 <0>        -0.0070
      3 N1          9.9972    3.3533    6.0075 N.4       1 <0>        -0.4011
      4 C3         11.2367    3.1387    5.2477 C.3       1 <0>         0.0016
      5 C4         11.0629    3.6845    3.8284 C.3       1 <0>         0.0271
      6 N2          9.9288    3.0094    3.1822 N.3       1 <0>        -0.5300
      7 C5          8.6893    3.2240    3.9420 C.3       1 <0>         0.0232
      8 C6          8.8631    2.6781    5.3612 C.3       1 <0>        -0.0016
      9 C7          9.7762    3.4524    1.7899 C.3       1 <0>         0.0786
     10 C8          8.7879    2.5601    1.0842 C.ar      1 <0>        -0.0666
     11 C9          7.5022    3.0092    0.8434 C.ar      1 <0>        -0.0932
     12 C10         6.5958    2.1959    0.1923 C.ar      1 <0>        -0.0888
     13 C11         6.9731    0.9214   -0.2106 C.ar      1 <0>         0.1880
     14 C12         8.2646    0.4735    0.0326 C.ar      1 <0>        -0.1043
     15 C13         9.1683    1.2940    0.6793 C.ar      1 <0>        -0.1369
     16 C14        10.5702    0.8086    0.9441 C.3       1 <0>         0.5111
     17 F1         10.7250   -0.4786    0.4184 F         1 <0>        -0.1776
     18 F2         11.4860    1.6739    0.3362 F         1 <0>        -0.1774
     19 F3         10.8008    0.7797    2.3237 F         1 <0>        -0.1628
     20 N3          6.0552    0.0926   -0.8655 N.am      1 <0>        -0.6979
     21 C15         4.7513    0.1311   -0.5266 C.2       1 <0>         0.7117
     22 O1          4.3858    0.8194    0.4067 O.2       1 <0>        -0.5623
     23 N4          3.8526   -0.5934   -1.2222 N.am      1 <0>        -0.6900
     24 C16         2.4863   -0.4790   -0.9335 C.ar      1 <0>         0.1635
     25 C17         1.5516   -0.5518   -1.9576 C.ar      1 <0>        -0.1265
     26 C18         0.2052   -0.4394   -1.6724 C.ar      1 <0>        -0.0923
     27 C19        -0.2137   -0.2543   -0.3628 C.ar      1 <0>         0.0841
     28 C20         0.7198   -0.1815    0.6609 C.ar      1 <0>        -0.0957
     29 C21         2.0665   -0.2932    0.3769 C.ar      1 <0>        -0.1058
     30 O2         -1.5393   -0.1385   -0.0833 O.3       1 <0>        -0.2424
     31 C22        -2.3129   -1.2454   -0.1983 C.ar      1 <0>         0.3836
     32 C23        -3.6894   -1.1637   -0.0277 C.ar      1 <0>        -0.3134
     33 C24        -4.4409   -2.3284   -0.1601 C.ar      1 <0>         0.4631
     34 N5         -3.8165   -3.4721   -0.4341 N.ar      1 <0>        -0.5936
     35 C25        -2.5082   -3.5081   -0.5840 C.ar      1 <0>         0.3760
     36 N6         -1.7644   -2.4263   -0.4707 N.ar      1 <0>        -0.6039
     37 N7         -5.8178   -2.2988   -0.0034 N.pl3     1 <0>        -0.7218
     38 C26        -6.4937   -1.0344    0.2979 C.3       1 <0>         0.0891
     39 H1          9.0560    3.0401    9.2597 H         1 <0>         0.1066
     40 H2          8.0243    2.9380    7.7928 H         1 <0>         0.0798
     41 H3          8.8763    4.4695    8.1868 H         1 <0>         0.0803
     42 H4         11.0672    3.3441    7.8241 H         1 <0>         0.1306
     43 H5         10.2153    1.8126    7.4301 H         1 <0>         0.1269
     44 H6         12.0665    3.6630    5.7442 H         1 <0>         0.1361
     45 H7         11.4577    2.0621    5.2031 H         1 <0>         0.1357
     46 H8         10.8699    4.7665    3.8728 H         1 <0>         0.0625
     47 H9         11.9796    3.4990    3.2494 H         1 <0>         0.1239
     48 H10         8.4684    4.3007    3.9867 H         1 <0>         0.0621
     49 H11         7.8594    2.6998    3.4455 H         1 <0>         0.1239
     50 H12         9.0569    1.5962    5.3178 H         1 <0>         0.1351
     51 H13         7.9470    2.8635    5.9412 H         1 <0>         0.1359
     52 H14         9.4106    4.4897    1.7732 H         1 <0>         0.0663
     53 H15        10.7489    3.3982    1.2791 H         1 <0>         0.1073
     54 H16         7.2082    3.9988    1.1607 H         1 <0>         0.1358
     55 H17         5.5933    2.5489    0.0003 H         1 <0>         0.1466
     56 H18         8.5625   -0.5152   -0.2838 H         1 <0>         0.1447
     57 H19         6.3979   -0.5903   -1.6569 H         1 <0>         0.4387
     58 H20         4.1917   -1.2745   -2.0166 H         1 <0>         0.4355
     59 H21         1.8775   -0.6959   -2.9771 H         1 <0>         0.1334
     60 H22        -0.5220   -0.4960   -2.4689 H         1 <0>         0.1303
     61 H23         0.3932   -0.0371    1.6801 H         1 <0>         0.1327
     62 H24         2.7931   -0.2369    1.1740 H         1 <0>         0.1442
     63 H25        -4.1646   -0.2205    0.1982 H         1 <0>         0.1466
     64 H26        -2.0315   -4.4515   -0.8058 H         1 <0>         0.2000
     65 H27        -6.4030   -3.2246   -0.1053 H         1 <0>         0.4376
     66 H28        -7.5762   -1.2091    0.3856 H         1 <0>         0.0864
     67 H29        -6.3028   -0.3146   -0.5117 H         1 <0>         0.0603
     68 H30        -6.1096   -0.6302    1.2461 H         1 <0>         0.0599
     69 H31         9.7882    4.4332    6.0188 H         1 <0>         0.4364
@<TRIPOS>BOND
     1    1    2 1
     2    1   39 1
     3    1   40 1
     4    1   41 1
     5    2    3 1
     6    2   42 1
     7    2   43 1
     8    3    8 1
     9    3    4 1
    10    3   69 1
    11    4    5 1
    12    4   44 1
    13    4   45 1
    14    5    6 1
    15    5   46 1
    16    5   47 1
    17    6    7 1
    18    6    9 1
    19    7    8 1
    20    7   48 1
    21    7   49 1
    22    8   50 1
    23    8   51 1
    24    9   10 1
    25    9   52 1
    26    9   53 1
    27   10   15 ar
    28   10   11 ar
    29   11   12 ar
    30   11   54 1
    31   12   13 ar
    32   12   55 1
    33   13   14 ar
    34   13   20 1
    35   14   15 ar
    36   14   56 1
    37   15   16 1
    38   16   17 1
    39   16   18 1
    40   16   19 1
    41   20   21 am
    42   20   57 1
    43   21   22 2
    44   21   23 am
    45   23   24 1
    46   23   58 1
    47   24   29 ar
    48   24   25 ar
    49   25   26 ar
    50   25   59 1
    51   26   27 ar
    52   26   60 1
    53   27   28 ar
    54   27   30 1
    55   28   29 ar
    56   28   61 1
    57   29   62 1
    58   30   31 1
    59   31   36 ar
    60   31   32 ar
    61   32   33 ar
    62   32   63 1
    63   33   34 ar
    64   33   37 1
    65   34   35 ar
    66   35   36 ar
    67   35   64 1
    68   37   38 1
    69   37   65 1
    70   38   66 1
    71   38   67 1
    72   38   68 1
@<TRIPOS>MOLECULE
ZINC23247639
   69    72     0     0     0
SMALL
USER_CHARGES
1-[4-[(4-ethylpiperazin-1-yl)methyl]-3-(trifluoromethyl)phenyl]-3-[4-(6-methylaminopyrimidin-4-yl)oxyphenyl]urea
@<TRIPOS>ATOM
      1 C1          8.9417    3.3719    8.2172 C.3       1 <0>        -0.1569
      2 C2         10.1498    2.9102    7.3997 C.3       1 <0>         0.0486
      3 N1          9.9972    3.3533    6.0075 N.3       1 <0>        -0.5379
      4 C3         11.2367    3.1387    5.2477 C.3       1 <0>         0.0250
      5 C4         11.0629    3.6845    3.8284 C.3       1 <0>         0.0004
      6 N2          9.9288    3.0094    3.1822 N.4       1 <0>        -0.4202
      7 C5          8.6893    3.2240    3.9420 C.3       1 <0>        -0.0009
      8 C6          8.8631    2.6781    5.3612 C.3       1 <0>         0.0222
      9 C7          9.7762    3.4524    1.7899 C.3       1 <0>         0.0266
     10 C8          8.7879    2.5601    1.0842 C.ar      1 <0>        -0.1272
     11 C9          7.5022    3.0092    0.8434 C.ar      1 <0>        -0.0630
     12 C10         6.5958    2.1959    0.1923 C.ar      1 <0>        -0.0846
     13 C11         6.9731    0.9214   -0.2106 C.ar      1 <0>         0.2154
     14 C12         8.2646    0.4735    0.0326 C.ar      1 <0>        -0.0955
     15 C13         9.1683    1.2940    0.6793 C.ar      1 <0>        -0.1507
     16 C14        10.5702    0.8086    0.9441 C.3       1 <0>         0.5109
     17 F1         10.7250   -0.4786    0.4184 F         1 <0>        -0.1491
     18 F2         11.4860    1.6739    0.3362 F         1 <0>        -0.1584
     19 F3         10.8008    0.7797    2.3237 F         1 <0>        -0.1724
     20 N3          6.0552    0.0926   -0.8655 N.am      1 <0>        -0.6988
     21 C15         4.7513    0.1311   -0.5266 C.2       1 <0>         0.7114
     22 O1          4.3858    0.8194    0.4067 O.2       1 <0>        -0.5584
     23 N4          3.8526   -0.5934   -1.2222 N.am      1 <0>        -0.6858
     24 C16         2.4863   -0.4790   -0.9335 C.ar      1 <0>         0.1577
     25 C17         1.5516   -0.5518   -1.9576 C.ar      1 <0>        -0.1240
     26 C18         0.2052   -0.4394   -1.6724 C.ar      1 <0>        -0.0926
     27 C19        -0.2137   -0.2543   -0.3628 C.ar      1 <0>         0.0883
     28 C20         0.7198   -0.1815    0.6609 C.ar      1 <0>        -0.0957
     29 C21         2.0665   -0.2932    0.3769 C.ar      1 <0>        -0.1046
     30 O2         -1.5393   -0.1385   -0.0833 O.3       1 <0>        -0.2426
     31 C22        -2.3129   -1.2454   -0.1983 C.ar      1 <0>         0.3832
     32 C23        -3.6894   -1.1637   -0.0277 C.ar      1 <0>        -0.3126
     33 C24        -4.4409   -2.3284   -0.1601 C.ar      1 <0>         0.4635
     34 N5         -3.8165   -3.4721   -0.4341 N.ar      1 <0>        -0.5931
     35 C25        -2.5082   -3.5081   -0.5840 C.ar      1 <0>         0.3762
     36 N6         -1.7644   -2.4263   -0.4707 N.ar      1 <0>        -0.6049
     37 N7         -5.8178   -2.2988   -0.0034 N.pl3     1 <0>        -0.7212
     38 C26        -6.4937   -1.0344    0.2979 C.3       1 <0>         0.0887
     39 H1          9.0560    3.0401    9.2597 H         1 <0>         0.0714
     40 H2          8.0243    2.9380    7.7928 H         1 <0>         0.0562
     41 H3          8.8763    4.4695    8.1868 H         1 <0>         0.0696
     42 H4         11.0672    3.3441    7.8241 H         1 <0>         0.0895
     43 H5         10.2153    1.8126    7.4301 H         1 <0>         0.0455
     44 H6         12.0665    3.6630    5.7442 H         1 <0>         0.1253
     45 H7         11.4577    2.0621    5.2031 H         1 <0>         0.0582
     46 H8         10.8699    4.7665    3.8728 H         1 <0>         0.1369
     47 H9         11.9796    3.4990    3.2494 H         1 <0>         0.1329
     48 H10         8.4684    4.3007    3.9867 H         1 <0>         0.1355
     49 H11         7.8594    2.6998    3.4455 H         1 <0>         0.1312
     50 H12         9.0569    1.5962    5.3178 H         1 <0>         0.0572
     51 H13         7.9470    2.8635    5.9412 H         1 <0>         0.1266
     52 H14         9.4106    4.4897    1.7732 H         1 <0>         0.1472
     53 H15        10.7489    3.3982    1.2791 H         1 <0>         0.1420
     54 H16         7.2082    3.9988    1.1607 H         1 <0>         0.1512
     55 H17         5.5933    2.5489    0.0003 H         1 <0>         0.1583
     56 H18         8.5625   -0.5152   -0.2838 H         1 <0>         0.1556
     57 H19         6.3979   -0.5903   -1.6569 H         1 <0>         0.4440
     58 H20         4.1917   -1.2745   -2.0166 H         1 <0>         0.4371
     59 H21         1.8775   -0.6959   -2.9771 H         1 <0>         0.1338
     60 H22        -0.5220   -0.4960   -2.4689 H         1 <0>         0.1313
     61 H23         0.3932   -0.0371    1.6801 H         1 <0>         0.1341
     62 H24         2.7931   -0.2369    1.1740 H         1 <0>         0.1440
     63 H25        -4.1646   -0.2205    0.1982 H         1 <0>         0.1470
     64 H26        -2.0315   -4.4515   -0.8058 H         1 <0>         0.2001
     65 H27        -6.4030   -3.2246   -0.1053 H         1 <0>         0.4380
     66 H28        -7.5762   -1.2091    0.3856 H         1 <0>         0.0868
     67 H29        -6.3028   -0.3146   -0.5117 H         1 <0>         0.0604
     68 H30        -6.1096   -0.6302    1.2461 H         1 <0>         0.0603
     69 H31        10.1379    1.9295    3.1711 H         1 <0>         0.4253
@<TRIPOS>BOND
     1    1    2 1
     2    1   39 1
     3    1   40 1
     4    1   41 1
     5    2    3 1
     6    2   42 1
     7    2   43 1
     8    3    8 1
     9    3    4 1
    10    4    5 1
    11    4   44 1
    12    4   45 1
    13    5    6 1
    14    5   46 1
    15    5   47 1
    16    6    7 1
    17    6    9 1
    18    6   69 1
    19    7    8 1
    20    7   48 1
    21    7   49 1
    22    8   50 1
    23    8   51 1
    24    9   10 1
    25    9   52 1
    26    9   53 1
    27   10   15 ar
    28   10   11 ar
    29   11   12 ar
    30   11   54 1
    31   12   13 ar
    32   12   55 1
    33   13   14 ar
    34   13   20 1
    35   14   15 ar
    36   14   56 1
    37   15   16 1
    38   16   17 1
    39   16   18 1
    40   16   19 1
    41   20   21 am
    42   20   57 1
    43   21   22 2
    44   21   23 am
    45   23   24 1
    46   23   58 1
    47   24   29 ar
    48   24   25 ar
    49   25   26 ar
    50   25   59 1
    51   26   27 ar
    52   26   60 1
    53   27   28 ar
    54   27   30 1
    55   28   29 ar
    56   28   61 1
    57   29   62 1
    58   30   31 1
    59   31   36 ar
    60   31   32 ar
    61   32   33 ar
    62   32   63 1
    63   33   34 ar
    64   33   37 1
    65   34   35 ar
    66   35   36 ar
    67   35   64 1
    68   37   38 1
    69   37   65 1
    70   38   66 1
    71   38   67 1
    72   38   68 1
@<TRIPOS>MOLECULE
ZINC23247639
   68    71     0     0     0
SMALL
USER_CHARGES
1-[4-[(4-ethylpiperazin-1-yl)methyl]-3-(trifluoromethyl)phenyl]-3-[4-(6-methylaminopyrimidin-4-yl)oxyphenyl]urea
@<TRIPOS>ATOM
      1 C1          8.9417    3.3719    8.2172 C.3       1 <0>        -0.1510
      2 C2         10.1498    2.9102    7.3997 C.3       1 <0>         0.0499
      3 N1          9.9972    3.3533    6.0075 N.3       1 <0>        -0.5402
      4 C3         11.2367    3.1387    5.2477 C.3       1 <0>         0.0569
      5 C4         11.0629    3.6845    3.8284 C.3       1 <0>         0.0590
      6 N2          9.9288    3.0094    3.1822 N.3       1 <0>        -0.5268
      7 C5          8.6893    3.2240    3.9420 C.3       1 <0>         0.0561
      8 C6          8.8631    2.6781    5.3612 C.3       1 <0>         0.0550
      9 C7          9.7762    3.4524    1.7899 C.3       1 <0>         0.0729
     10 C8          8.7879    2.5601    1.0842 C.ar      1 <0>        -0.0447
     11 C9          7.5022    3.0092    0.8434 C.ar      1 <0>        -0.0942
     12 C10         6.5958    2.1959    0.1923 C.ar      1 <0>        -0.0884
     13 C11         6.9731    0.9214   -0.2106 C.ar      1 <0>         0.1720
     14 C12         8.2646    0.4735    0.0326 C.ar      1 <0>        -0.1038
     15 C13         9.1683    1.2940    0.6793 C.ar      1 <0>        -0.1404
     16 C14        10.5702    0.8086    0.9441 C.3       1 <0>         0.5095
     17 F1         10.7250   -0.4786    0.4184 F         1 <0>        -0.1841
     18 F2         11.4860    1.6739    0.3362 F         1 <0>        -0.1795
     19 F3         10.8008    0.7797    2.3237 F         1 <0>        -0.1519
     20 N3          6.0552    0.0926   -0.8655 N.am      1 <0>        -0.6948
     21 C15         4.7513    0.1311   -0.5266 C.2       1 <0>         0.7096
     22 O1          4.3858    0.8194    0.4067 O.2       1 <0>        -0.5587
     23 N4          3.8526   -0.5934   -1.2222 N.am      1 <0>        -0.6930
     24 C16         2.4863   -0.4790   -0.9335 C.ar      1 <0>         0.1697
     25 C17         1.5516   -0.5518   -1.9576 C.ar      1 <0>        -0.1297
     26 C18         0.2052   -0.4394   -1.6724 C.ar      1 <0>        -0.0930
     27 C19        -0.2137   -0.2543   -0.3628 C.ar      1 <0>         0.0783
     28 C20         0.7198   -0.1815    0.6609 C.ar      1 <0>        -0.0936
     29 C21         2.0665   -0.2932    0.3769 C.ar      1 <0>        -0.1059
     30 O2         -1.5393   -0.1385   -0.0833 O.3       1 <0>        -0.2412
     31 C22        -2.3129   -1.2454   -0.1983 C.ar      1 <0>         0.3851
     32 C23        -3.6894   -1.1637   -0.0277 C.ar      1 <0>        -0.3141
     33 C24        -4.4409   -2.3284   -0.1601 C.ar      1 <0>         0.4620
     34 N5         -3.8165   -3.4721   -0.4341 N.ar      1 <0>        -0.5954
     35 C25        -2.5082   -3.5081   -0.5840 C.ar      1 <0>         0.3753
     36 N6         -1.7644   -2.4263   -0.4707 N.ar      1 <0>        -0.6017
     37 N7         -5.8178   -2.2988   -0.0034 N.pl3     1 <0>        -0.7231
     38 C26        -6.4937   -1.0344    0.2979 C.3       1 <0>         0.0898
     39 H1          9.0560    3.0401    9.2597 H         1 <0>         0.0595
     40 H2          8.0243    2.9380    7.7928 H         1 <0>         0.0547
     41 H3          8.8763    4.4695    8.1868 H         1 <0>         0.0631
     42 H4         11.0672    3.3441    7.8241 H         1 <0>         0.0746
     43 H5         10.2153    1.8126    7.4301 H         1 <0>         0.0335
     44 H6         12.0665    3.6630    5.7442 H         1 <0>         0.0800
     45 H7         11.4577    2.0621    5.2031 H         1 <0>         0.0441
     46 H8         10.8699    4.7665    3.8728 H         1 <0>         0.0445
     47 H9         11.9796    3.4990    3.2494 H         1 <0>         0.0809
     48 H10         8.4684    4.3007    3.9867 H         1 <0>         0.0435
     49 H11         7.8594    2.6998    3.4455 H         1 <0>         0.0808
     50 H12         9.0569    1.5962    5.3178 H         1 <0>         0.0425
     51 H13         7.9470    2.8635    5.9412 H         1 <0>         0.0819
     52 H14         9.4106    4.4897    1.7732 H         1 <0>         0.0550
     53 H15        10.7489    3.3982    1.2791 H         1 <0>         0.0962
     54 H16         7.2082    3.9988    1.1607 H         1 <0>         0.1355
     55 H17         5.5933    2.5489    0.0003 H         1 <0>         0.1427
     56 H18         8.5625   -0.5152   -0.2838 H         1 <0>         0.1409
     57 H19         6.3979   -0.5903   -1.6569 H         1 <0>         0.4343
     58 H20         4.1917   -1.2745   -2.0166 H         1 <0>         0.4332
     59 H21         1.8775   -0.6959   -2.9771 H         1 <0>         0.1323
     60 H22        -0.5220   -0.4960   -2.4689 H         1 <0>         0.1282
     61 H23         0.3932   -0.0371    1.6801 H         1 <0>         0.1328
     62 H24         2.7931   -0.2369    1.1740 H         1 <0>         0.1466
     63 H25        -4.1646   -0.2205    0.1982 H         1 <0>         0.1463
     64 H26        -2.0315   -4.4515   -0.8058 H         1 <0>         0.1996
     65 H27        -6.4030   -3.2246   -0.1053 H         1 <0>         0.4362
     66 H28        -7.5762   -1.2091    0.3856 H         1 <0>         0.0851
     67 H29        -6.3028   -0.3146   -0.5117 H         1 <0>         0.0598
     68 H30        -6.1096   -0.6302    1.2461 H         1 <0>         0.0599
@<TRIPOS>BOND
     1    1    2 1
     2    1   39 1
     3    1   40 1
     4    1   41 1
     5    2    3 1
     6    2   42 1
     7    2   43 1
     8    3    8 1
     9    3    4 1
    10    4    5 1
    11    4   44 1
    12    4   45 1
    13    5    6 1
    14    5   46 1
    15    5   47 1
    16    6    7 1
    17    6    9 1
    18    7    8 1
    19    7   48 1
    20    7   49 1
    21    8   50 1
    22    8   51 1
    23    9   10 1
    24    9   52 1
    25    9   53 1
    26   10   15 ar
    27   10   11 ar
    28   11   12 ar
    29   11   54 1
    30   12   13 ar
    31   12   55 1
    32   13   14 ar
    33   13   20 1
    34   14   15 ar
    35   14   56 1
    36   15   16 1
    37   16   17 1
    38   16   18 1
    39   16   19 1
    40   20   21 am
    41   20   57 1
    42   21   22 2
    43   21   23 am
    44   23   24 1
    45   23   58 1
    46   24   29 ar
    47   24   25 ar
    48   25   26 ar
    49   25   59 1
    50   26   27 ar
    51   26   60 1
    52   27   28 ar
    53   27   30 1
    54   28   29 ar
    55   28   61 1
    56   29   62 1
    57   30   31 1
    58   31   36 ar
    59   31   32 ar
    60   32   33 ar
    61   32   63 1
    62   33   34 ar
    63   33   37 1
    64   34   35 ar
    65   35   36 ar
    66   35   64 1
    67   37   38 1
    68   37   65 1
    69   38   66 1
    70   38   67 1
    71   38   68 1
@<TRIPOS>MOLECULE
ZINC00602803
   57    59     0     0     0
SMALL
USER_CHARGES

@<TRIPOS>ATOM
      1 C1         -1.3402   -4.8618    1.2145 C.3       1 <0>        -0.1534
      2 C2         -0.8181   -3.6495    0.4408 C.3       1 <0>         0.0511
      3 O1         -0.7742   -2.5142    1.3074 O.3       1 <0>        -0.3148
      4 C3         -0.3304   -1.3470    0.7727 C.ar      1 <0>         0.1525
      5 C4          0.0498   -1.3049   -0.5488 C.ar      1 <0>        -0.1831
      6 C5          0.5092   -0.1023   -1.1071 C.ar      1 <0>         0.1876
      7 C6          0.5748    1.0570   -0.2965 C.ar      1 <0>        -0.1304
      8 C7          0.1883    0.9932    1.0499 C.ar      1 <0>        -0.0592
      9 C8         -0.2650   -0.1967    1.5740 C.ar      1 <0>         0.1185
     10 N1         -0.6575   -0.2608    2.9161 N.am      1 <0>        -0.6449
     11 C9         -0.1566    0.6173    3.8075 C.2       1 <0>         0.5328
     12 O2          0.7152    1.3957    3.4703 O.2       1 <0>        -0.5071
     13 C10        -0.6641    0.6344    5.1877 C.2       1 <0>        -0.1271
     14 C11        -0.1697    1.5011    6.0673 C.2       1 <0>        -0.1492
     15 C12        -0.6897    1.5186    7.4817 C.3       1 <0>         0.0302
     16 C13         1.3312    2.5206    8.3617 C.3       1 <0>        -0.0486
     17 C14        -0.0528    1.1357    9.7861 C.3       1 <0>        -0.0433
     18 C15         1.0386    2.2666   -0.8642 C.ar      1 <0>         0.2844
     19 C16         1.4144    2.2536   -2.2161 C.ar      1 <0>        -0.1029
     20 C17         1.3165    1.0573   -2.9447 C.ar      1 <0>         0.2010
     21 N2          0.8834   -0.0478   -2.3940 N.ar      1 <0>        -0.4743
     22 C18         1.8922    3.4476   -2.8459 C.1       1 <0>         0.2469
     23 N3          2.2712    4.3948   -3.3456 N.1       1 <0>        -0.3851
     24 N4          1.1194    3.4219   -0.1130 N.pl3     1 <0>        -0.6979
     25 C19         2.3677    3.9814    0.1773 C.ar      1 <0>         0.1846
     26 C20         3.4715    3.1592    0.3659 C.ar      1 <0>        -0.1231
     27 C21         4.7048    3.7137    0.6463 C.ar      1 <0>        -0.1069
     28 C22         4.8398    5.0877    0.7520 C.ar      1 <0>         0.0844
     29 C23         3.7394    5.9099    0.5700 C.ar      1 <0>        -0.0407
     30 C24         2.5044    5.3592    0.2831 C.ar      1 <0>        -0.1222
     31 Cl1         3.9119    7.6322    0.7020 Cl        1 <0>        -0.0373
     32 F1          6.0462    5.6274    1.0324 F         1 <0>        -0.1244
     33 H1         -2.3423   -4.6506    1.5877 H         1 <0>         0.0676
     34 H2         -1.3737   -5.7279    0.5535 H         1 <0>         0.0859
     35 H3         -0.6765   -5.0706    2.0536 H         1 <0>         0.0665
     36 H4         -1.4818   -3.4407   -0.3983 H         1 <0>         0.0727
     37 H5          0.1840   -3.8607    0.0676 H         1 <0>         0.0719
     38 H6         -0.0049   -2.1965   -1.1558 H         1 <0>         0.1557
     39 H7          0.2375    1.8756    1.6707 H         1 <0>         0.1646
     40 H8         -1.2900   -0.9373    3.2047 H         1 <0>         0.4221
     41 H9         -1.4381   -0.0567    5.4870 H         1 <0>         0.1454
     42 H10         0.6043    2.1922    5.7680 H         1 <0>         0.1533
     43 H11        -1.1915    2.4672    7.6726 H         1 <0>         0.1468
     44 H12        -1.3959    0.6999    7.6193 H         1 <0>         0.1366
     45 H13         0.7789    3.4221    8.6269 H         1 <0>         0.1257
     46 H14         2.1523    2.3777    9.0642 H         1 <0>         0.1250
     47 H15         1.7302    2.6227    7.3524 H         1 <0>         0.1232
     48 H16        -0.6601    0.2309    9.8124 H         1 <0>         0.1226
     49 H17         0.7976    1.0222   10.4584 H         1 <0>         0.1252
     50 H18        -0.6553    1.9870   10.1029 H         1 <0>         0.1250
     51 H19         1.6056    1.0492   -3.9853 H         1 <0>         0.1765
     52 H20         0.3102    3.8456    0.2136 H         1 <0>         0.4201
     53 H21         3.3660    2.0871    0.2888 H         1 <0>         0.1375
     54 H22         5.5639    3.0747    0.7881 H         1 <0>         0.1500
     55 H23         1.6466    6.0000    0.1416 H         1 <0>         0.1457
     56 N5          0.4465    1.3376    8.4096 N.4       1 <0>        -0.3970
     57 H24         0.9816    0.5092    8.1241 H         1 <0>         0.4334
@<TRIPOS>BOND
     1    1    2 1
     2    1   33 1
     3    1   34 1
     4    1   35 1
     5    2    3 1
     6    2   36 1
     7    2   37 1
     8    3    4 1
     9    4    9 ar
    10    4    5 ar
    11    5    6 ar
    12    5   38 1
    13    6   21 ar
    14    6    7 ar
    15    7    8 ar
    16    7   18 ar
    17    8    9 ar
    18    8   39 1
    19    9   10 1
    20   10   11 am
    21   10   40 1
    22   11   12 2
    23   11   13 1
    24   13   14 2
    25   13   41 1
    26   14   15 1
    27   14   42 1
    28   15   43 1
    29   15   44 1
    30   15   56 1
    31   16   45 1
    32   16   46 1
    33   16   47 1
    34   16   56 1
    35   17   48 1
    36   17   49 1
    37   17   50 1
    38   17   56 1
    39   18   19 ar
    40   18   24 1
    41   19   20 ar
    42   19   22 1
    43   20   21 ar
    44   20   51 1
    45   22   23 3
    46   24   25 1
    47   24   52 1
    48   25   30 ar
    49   25   26 ar
    50   26   27 ar
    51   26   53 1
    52   27   28 ar
    53   27   54 1
    54   28   29 ar
    55   28   32 1
    56   29   30 ar
    57   29   31 1
    58   30   55 1
    59   56   57 1
@<TRIPOS>MOLECULE
ZINC19632614
   55    58     0     0     0
SMALL
USER_CHARGES

@<TRIPOS>ATOM
      1 C1         -0.7374    1.4118    0.5253 C.3       1 <0>         0.0199
      2 O1         -0.7263   -0.0171    0.5247 O.3       1 <0>        -0.2961
      3 C2          0.0734   -0.6280    1.4373 C.ar      1 <0>         0.1647
      4 C3          0.8188    0.1348    2.3090 C.ar      1 <0>        -0.1833
      5 C4          1.6420   -0.4976    3.2485 C.ar      1 <0>         0.2017
      6 C5          1.6952   -1.9130    3.2874 C.ar      1 <0>        -0.1805
      7 C6          0.9277   -2.6653    2.3903 C.ar      1 <0>        -0.1504
      8 C7          0.1268   -2.0280    1.4855 C.ar      1 <0>         0.1167
      9 O2         -0.6229   -2.7597    0.6185 O.3       1 <0>        -0.2957
     10 C8         -0.5255   -4.1819    0.7171 C.3       1 <0>         0.0569
     11 C9         -1.4334   -4.8292   -0.3307 C.3       1 <0>        -0.1162
     12 C10        -1.3291   -6.3519   -0.2252 C.3       1 <0>         0.0590
     13 N1         -2.2008   -6.9733   -1.2311 N.3       1 <0>        -0.5361
     14 C11        -3.6165   -6.7053   -0.9393 C.3       1 <0>         0.0126
     15 C12        -4.4841   -7.3184   -2.0416 C.3       1 <0>         0.0623
     16 O3         -4.2065   -8.7181   -2.1368 O.3       1 <0>        -0.3850
     17 C13        -2.8368   -9.0154   -2.4209 C.3       1 <0>         0.0626
     18 C14        -1.9524   -8.4195   -1.3224 C.3       1 <0>         0.0175
     19 C15         2.5361   -2.5234    4.2482 C.ar      1 <0>         0.4639
     20 N2          3.2308   -1.7396    5.0625 N.ar      1 <0>        -0.5813
     21 C16         3.1493   -0.4206    4.9892 C.ar      1 <0>         0.3427
     22 N3          2.3876    0.1999    4.1200 N.ar      1 <0>        -0.5394
     23 N4          2.6306   -3.8977    4.3362 N.pl3     1 <0>        -0.6396
     24 C17         3.3713   -4.4833    5.3684 C.ar      1 <0>         0.1586
     25 C18         3.4039   -3.8902    6.6240 C.ar      1 <0>        -0.0764
     26 C19         4.1353   -4.4698    7.6421 C.ar      1 <0>        -0.1191
     27 C20         4.8362   -5.6416    7.4124 C.ar      1 <0>         0.0961
     28 C21         4.8054   -6.2354    6.1608 C.ar      1 <0>        -0.0542
     29 C22         4.0703   -5.6613    5.1406 C.ar      1 <0>        -0.1133
     30 Cl1         5.6852   -7.7046    5.8756 Cl        1 <0>        -0.0422
     31 F1          5.5513   -6.2065    8.4097 F         1 <0>        -0.1250
     32 H1          0.2683    1.7831    0.3285 H         1 <0>         0.0625
     33 H2         -1.4151    1.7702   -0.2495 H         1 <0>         0.1078
     34 H3         -1.0740    1.7722    1.4974 H         1 <0>         0.0624
     35 H4          0.7687    1.2128    2.2678 H         1 <0>         0.1567
     36 H5          0.9651   -3.7443    2.4164 H         1 <0>         0.1382
     37 H6          0.5060   -4.4884    0.5431 H         1 <0>         0.0655
     38 H7         -0.8359   -4.4993    1.7126 H         1 <0>         0.0633
     39 H8         -2.4649   -4.5227   -0.1568 H         1 <0>         0.0772
     40 H9         -1.1230   -4.5118   -1.3262 H         1 <0>         0.0870
     41 H10        -0.2976   -6.6584   -0.3991 H         1 <0>         0.0806
     42 H11        -1.6394   -6.6693    0.7704 H         1 <0>         0.0394
     43 H12        -3.8805   -7.1489    0.0207 H         1 <0>         0.0445
     44 H13        -3.7829   -5.6288   -0.9016 H         1 <0>         0.0906
     45 H14        -5.5369   -7.1717   -1.8001 H         1 <0>         0.0996
     46 H15        -4.2579   -6.8370   -2.9930 H         1 <0>         0.0614
     47 H16        -2.6980  -10.0960   -2.4536 H         1 <0>         0.0999
     48 H17        -2.5626   -8.5833   -3.3833 H         1 <0>         0.0613
     49 H18        -0.9041   -8.5942   -1.5643 H         1 <0>         0.0880
     50 H19        -2.1898   -8.8905   -0.3685 H         1 <0>         0.0446
     51 H20         3.7361    0.1714    5.6759 H         1 <0>         0.1991
     52 H21         2.1833   -4.4574    3.6823 H         1 <0>         0.4215
     53 H22         2.8578   -2.9760    6.8040 H         1 <0>         0.1516
     54 H23         4.1608   -4.0084    8.6183 H         1 <0>         0.1509
     55 H24         4.0430   -6.1262    4.1662 H         1 <0>         0.1452
@<TRIPOS>BOND
     1    1    2 1
     2    1   32 1
     3    1   33 1
     4    1   34 1
     5    2    3 1
     6    3    8 ar
     7    3    4 ar
     8    4    5 ar
     9    4   35 1
    10    5   22 ar
    11    5    6 ar
    12    6    7 ar
    13    6   19 ar
    14    7    8 ar
    15    7   36 1
    16    8    9 1
    17    9   10 1
    18   10   11 1
    19   10   37 1
    20   10   38 1
    21   11   12 1
    22   11   39 1
    23   11   40 1
    24   12   13 1
    25   12   41 1
    26   12   42 1
    27   13   18 1
    28   13   14 1
    29   14   15 1
    30   14   43 1
    31   14   44 1
    32   15   16 1
    33   15   45 1
    34   15   46 1
    35   16   17 1
    36   17   18 1
    37   17   47 1
    38   17   48 1
    39   18   49 1
    40   18   50 1
    41   19   20 ar
    42   19   23 1
    43   20   21 ar
    44   21   22 ar
    45   21   51 1
    46   23   24 1
    47   23   52 1
    48   24   29 ar
    49   24   25 ar
    50   25   26 ar
    51   25   53 1
    52   26   27 ar
    53   26   54 1
    54   27   28 ar
    55   27   31 1
    56   28   29 ar
    57   28   30 1
    58   29   55 1
@<TRIPOS>MOLECULE
ZINC19632614
   57    60     0     0     0
SMALL
USER_CHARGES

@<TRIPOS>ATOM
      1 C1          0.4957    0.6763   -1.2292 C.3       1 <0>         0.0097
      2 O1          0.3708   -0.6717   -0.7717 O.3       1 <0>        -0.2780
      3 C2         -0.8861   -1.1806   -0.6878 C.ar      1 <0>         0.2175
      4 C3         -1.9704   -0.3964   -1.0449 C.ar      1 <0>        -0.2163
      5 C4         -3.2517   -0.9159   -0.9595 C.ar      1 <0>         0.2109
      6 C5         -3.4429   -2.2355   -0.5110 C.ar      1 <0>        -0.1696
      7 C6         -2.3484   -3.0191   -0.1533 C.ar      1 <0>        -0.1343
      8 C7         -1.0748   -2.4922   -0.2475 C.ar      1 <0>         0.1172
      9 O2         -0.0002   -3.2528    0.0951 O.3       1 <0>        -0.2792
     10 C8         -0.2516   -4.6209    0.4223 C.3       1 <0>         0.0522
     11 C9          1.0783   -5.3474    0.6333 C.3       1 <0>        -0.1519
     12 C10         0.8148   -6.8369    0.8638 C.3       1 <0>        -0.0151
     13 N1          2.0946   -7.5463    0.9928 N.4       1 <0>        -0.3820
     14 C11         2.8253   -7.4743   -0.2800 C.3       1 <0>        -0.0514
     15 C12         4.1584   -8.2140   -0.1429 C.3       1 <0>         0.0361
     16 O3          3.9086   -9.5683    0.2435 O.3       1 <0>        -0.3530
     17 C13         3.1775   -9.6905    1.4668 C.3       1 <0>         0.0362
     18 C14         1.8426   -8.9535    1.3327 C.3       1 <0>        -0.0460
     19 C15        -4.8247   -2.7457   -0.4360 C.cat     1 <0>         0.5319
     20 N2         -5.0725   -3.9771   -0.0222 N.pl3     1 <0>        -0.5604
     21 C16        -4.2014   -4.6012    0.8249 C.ar      1 <0>         0.0974
     22 C17        -3.7272   -3.9360    1.9592 C.ar      1 <0>        -0.0816
     23 C18        -2.8483   -4.5713    2.8111 C.ar      1 <0>        -0.1175
     24 C19        -2.4343   -5.8665    2.5448 C.ar      1 <0>         0.1198
     25 C20        -2.9002   -6.5323    1.4212 C.ar      1 <0>        -0.0716
     26 C21        -3.7851   -5.9094    0.5642 C.ar      1 <0>        -0.0825
     27 Cl1        -2.3754   -8.1547    1.0956 Cl        1 <0>        -0.0183
     28 F1         -1.5728   -6.4831    3.3830 F         1 <0>        -0.1112
     29 N3         -5.8317   -1.9199   -0.8014 N.2       1 <0>        -0.5495
     30 C22        -5.6076   -0.7054   -1.2106 C.2       1 <0>         0.4712
     31 N4         -4.3672   -0.1695   -1.3053 N.pl3     1 <0>        -0.5812
     32 H1         -4.2589    0.7427   -1.6168 H         1 <0>         0.4503
     33 H2          1.5487    0.9571   -1.2491 H         1 <0>         0.1245
     34 H3          0.0784    0.7596   -2.2327 H         1 <0>         0.0727
     35 H4         -0.0447    1.3405   -0.5547 H         1 <0>         0.0731
     36 H5         -1.8176    0.6161   -1.3882 H         1 <0>         0.1754
     37 H6         -2.4939   -4.0322    0.1915 H         1 <0>         0.1665
     38 H7         -0.8431   -4.6731    1.3364 H         1 <0>         0.0710
     39 H8         -0.7992   -5.0947   -0.3924 H         1 <0>         0.0775
     40 H9          1.7051   -5.2217   -0.2495 H         1 <0>         0.1094
     41 H10         1.5867   -4.9297    1.5023 H         1 <0>         0.1099
     42 H11         0.2340   -6.9660    1.7771 H         1 <0>         0.1336
     43 H12         0.2581   -7.2423    0.0189 H         1 <0>         0.1350
     44 H13         2.2311   -7.9385   -1.0671 H         1 <0>         0.1411
     45 H14         3.0128   -6.4308   -0.5330 H         1 <0>         0.1444
     46 H15         4.6829   -8.1989   -1.0982 H         1 <0>         0.1447
     47 H16         4.7692   -7.7256    0.6163 H         1 <0>         0.0840
     48 H17         2.9923  -10.7439    1.6765 H         1 <0>         0.1456
     49 H18         3.7548   -9.2526    2.2811 H         1 <0>         0.0847
     50 H19         1.3007   -9.0081    2.2769 H         1 <0>         0.1448
     51 H20         1.2488   -9.4172    0.5450 H         1 <0>         0.1398
     52 H21        -4.0484   -2.9261    2.1679 H         1 <0>         0.1559
     53 H22        -2.4815   -4.0580    3.6876 H         1 <0>         0.1719
     54 H23        -4.1514   -6.4303   -0.3081 H         1 <0>         0.1696
     55 H24        -6.4530   -0.0939   -1.4891 H         1 <0>         0.2492
     56 H25        -5.8728   -4.4370   -0.3202 H         1 <0>         0.4487
     57 H26         2.6450   -7.1175    1.7216 H         1 <0>         0.4269
@<TRIPOS>BOND
     1    1    2 1
     2    1   33 1
     3    1   34 1
     4    1   35 1
     5    2    3 1
     6    3    8 ar
     7    3    4 ar
     8    4    5 ar
     9    4   36 1
    10    5   31 1
    11    5    6 ar
    12    6    7 ar
    13    6   19 1
    14    7    8 ar
    15    7   37 1
    16    8    9 1
    17    9   10 1
    18   10   11 1
    19   10   38 1
    20   10   39 1
    21   11   12 1
    22   11   40 1
    23   11   41 1
    24   12   13 1
    25   12   42 1
    26   12   43 1
    27   13   18 1
    28   13   14 1
    29   13   57 1
    30   14   15 1
    31   14   44 1
    32   14   45 1
    33   15   16 1
    34   15   46 1
    35   15   47 1
    36   16   17 1
    37   17   18 1
    38   17   48 1
    39   17   49 1
    40   18   50 1
    41   18   51 1
    42   19   20 2
    43   19   29 1
    44   20   21 1
    45   20   56 1
    46   21   26 ar
    47   21   22 ar
    48   22   23 ar
    49   22   52 1
    50   23   24 ar
    51   23   53 1
    52   24   25 ar
    53   24   28 1
    54   25   26 ar
    55   25   27 1
    56   26   54 1
    57   29   30 2
    58   30   31 1
    59   30   55 1
    60   31   32 1
