@<TRIPOS>MOLECULE
ZINC01530981
   48    49     0     0     0
SMALL
USER_CHARGES

@<TRIPOS>ATOM
      1 C1         -0.0187    1.5258    0.0104 C.3       1 <0>        -0.1445
      2 C2          0.0021   -0.0041    0.0020 C.3       1 <0>         0.0322
      3 C3          0.7421   -0.5109    1.2415 C.3       1 <0>        -0.1424
      4 C4         -1.4333   -0.5336    0.0129 C.3       1 <0>        -0.1433
      5 C5          0.6911   -0.4788   -1.2091 C.1       1 <0>        -0.0728
      6 C6          1.2406   -0.8574   -2.1750 C.1       1 <0>        -0.2151
      7 C7          1.9108   -1.3192   -3.3531 C.2       1 <0>         0.0530
      8 C8          2.0479   -2.6226   -3.5717 C.2       1 <0>        -0.2263
      9 C9          2.7533   -3.1086   -4.8116 C.3       1 <0>         0.0348
     10 N1          3.8503   -4.0082   -4.4301 N.4       1 <0>        -0.3855
     11 C10         4.8621   -3.2547   -3.6775 C.3       1 <0>        -0.0509
     12 C11         4.4614   -4.5755   -5.6395 C.3       1 <0>         0.0439
     13 C12         5.5039   -5.5904   -5.2468 C.ar      1 <0>        -0.1602
     14 C13         6.8222   -5.2513   -5.2444 C.ar      1 <0>        -0.0593
     15 C14         7.8002   -6.1760   -4.8843 C.ar      1 <0>        -0.1326
     16 C15         7.4658   -7.4457   -4.5250 C.ar      1 <0>        -0.0582
     17 C16         6.1151   -7.8326   -4.5154 C.ar      1 <0>        -0.0585
     18 C17         5.1197   -6.8899   -4.8757 C.ar      1 <0>        -0.0303
     19 C18         3.7682   -7.2754   -4.8605 C.ar      1 <0>        -0.1518
     20 C19         3.4336   -8.5429   -4.4955 C.ar      1 <0>        -0.0783
     21 C20         4.4119   -9.4679   -4.1349 C.ar      1 <0>        -0.1164
     22 C21         5.7313   -9.1345   -4.1507 C.ar      1 <0>        -0.0847
     23 H1          1.0039    1.9031    0.0027 H         1 <0>         0.0617
     24 H2         -0.5459    1.8868   -0.8726 H         1 <0>         0.0624
     25 H3         -0.5289    1.8773    0.9072 H         1 <0>         0.0744
     26 H4          0.2319   -0.1594    2.1383 H         1 <0>         0.0749
     27 H5          0.7568   -1.6008    1.2356 H         1 <0>         0.0599
     28 H6          1.7647   -0.1336    1.2338 H         1 <0>         0.0611
     29 H7         -1.9605   -0.1726   -0.8702 H         1 <0>         0.0622
     30 H8         -1.4185   -1.6235    0.0069 H         1 <0>         0.0604
     31 H9         -1.9435   -0.1821    0.9097 H         1 <0>         0.0750
     32 H10         2.3049   -0.6081   -4.0640 H         1 <0>         0.1420
     33 H11         1.6539   -3.3338   -2.8608 H         1 <0>         0.1367
     34 H12         2.0468   -3.6454   -5.4448 H         1 <0>         0.1391
     35 H13         3.1560   -2.2560   -5.3583 H         1 <0>         0.1343
     36 H14         4.4086   -2.8337   -2.7801 H         1 <0>         0.1237
     37 H15         5.6760   -3.9221   -3.3944 H         1 <0>         0.1224
     38 H16         5.2524   -2.4491   -4.2995 H         1 <0>         0.1227
     39 H17         3.6927   -5.0588   -6.2425 H         1 <0>         0.1372
     40 H18         4.9295   -3.7790   -6.2179 H         1 <0>         0.1388
     41 H19         7.1145   -4.2505   -5.5261 H         1 <0>         0.1333
     42 H20         8.8392   -5.8812   -4.8908 H         1 <0>         0.1376
     43 H21         8.2347   -8.1521   -4.2489 H         1 <0>         0.1399
     44 H22         2.9992   -6.5691   -5.1367 H         1 <0>         0.1193
     45 H23         2.3943   -8.8365   -4.4846 H         1 <0>         0.1323
     46 H24         4.1193  -10.4674   -3.8489 H         1 <0>         0.1343
     47 H25         6.4784   -9.8620   -3.8696 H         1 <0>         0.1378
     48 H26         3.4890   -4.7538   -3.8544 H         1 <0>         0.4238
@<TRIPOS>BOND
     1    1    2 1
     2    1   23 1
     3    1   24 1
     4    1   25 1
     5    2    3 1
     6    2    4 1
     7    2    5 1
     8    3   26 1
     9    3   27 1
    10    3   28 1
    11    4   29 1
    12    4   30 1
    13    4   31 1
    14    5    6 3
    15    6    7 1
    16    7    8 2
    17    7   32 1
    18    8    9 1
    19    8   33 1
    20    9   10 1
    21    9   34 1
    22    9   35 1
    23   10   11 1
    24   10   12 1
    25   10   48 1
    26   11   36 1
    27   11   37 1
    28   11   38 1
    29   12   13 1
    30   12   39 1
    31   12   40 1
    32   13   18 ar
    33   13   14 ar
    34   14   15 ar
    35   14   41 1
    36   15   16 ar
    37   15   42 1
    38   16   17 ar
    39   16   43 1
    40   17   22 ar
    41   17   18 ar
    42   18   19 ar
    43   19   20 ar
    44   19   44 1
    45   20   21 ar
    46   20   45 1
    47   21   22 ar
    48   21   46 1
    49   22   47 1
