@<TRIPOS>MOLECULE
ZINC33861415
   54    54     0     0     0
SMALL
USER_CHARGES

@<TRIPOS>ATOM
      1 C1         -0.0187    1.5258    0.0104 C.3       1 <0>        -0.1543
      2 C2          0.0021   -0.0041    0.0020 C.3       1 <0>        -0.1262
      3 C3         -1.4333   -0.5336    0.0129 C.3       1 <0>        -0.1213
      4 C4         -1.4126   -2.0635    0.0045 C.3       1 <0>        -0.1213
      5 C5         -2.8479   -2.5931    0.0153 C.3       1 <0>        -0.1207
      6 C6         -2.8272   -4.1229    0.0069 C.3       1 <0>        -0.1208
      7 C7         -4.2626   -4.6525    0.0178 C.3       1 <0>        -0.1206
      8 C8         -4.2418   -6.1823    0.0094 C.3       1 <0>        -0.1210
      9 C9         -5.6772   -6.7119    0.0202 C.3       1 <0>        -0.1186
     10 C10        -5.6565   -8.2417    0.0118 C.3       1 <0>        -0.1180
     11 C11        -7.0918   -8.7713    0.0227 C.3       1 <0>        -0.1192
     12 C12        -7.0711  -10.3012    0.0143 C.3       1 <0>         0.0650
     13 O1         -8.4117  -10.7958    0.0244 O.3       1 <0>        -0.3461
     14 C13        -8.5701  -12.1339    0.0187 C.2       1 <0>         0.5122
     15 O2         -7.5966  -12.8609    0.0055 O.2       1 <0>        -0.4968
     16 C14        -9.9251  -12.7161    0.0285 C.ar      1 <0>        -0.1031
     17 C15       -11.0458  -11.8811    0.0379 C.ar      1 <0>        -0.0802
     18 C16       -12.3144  -12.4294    0.0472 C.ar      1 <0>         0.0854
     19 C17       -12.4766  -13.8124    0.0476 C.ar      1 <0>         0.0940
     20 C18       -11.3618  -14.6467    0.0387 C.ar      1 <0>         0.0876
     21 C19       -10.0909  -14.1038    0.0227 C.ar      1 <0>        -0.0740
     22 O3        -11.5238  -15.9971    0.0395 O.3       1 <0>        -0.4781
     23 O4        -13.7250  -14.3488    0.0571 O.3       1 <0>        -0.4727
     24 O5        -13.4055  -11.6174    0.0563 O.3       1 <0>        -0.4789
     25 H1          1.0039    1.9031    0.0027 H         1 <0>         0.0535
     26 H2         -0.5459    1.8868   -0.8726 H         1 <0>         0.0533
     27 H3         -0.5289    1.8773    0.9072 H         1 <0>         0.0533
     28 H4          0.5123   -0.3556   -0.8948 H         1 <0>         0.0602
     29 H5          0.5293   -0.3651    0.8851 H         1 <0>         0.0603
     30 H6         -1.9435   -0.1821    0.9097 H         1 <0>         0.0606
     31 H7         -1.9605   -0.1726   -0.8702 H         1 <0>         0.0605
     32 H8         -0.9024   -2.4150   -0.8923 H         1 <0>         0.0605
     33 H9         -0.8854   -2.4246    0.8875 H         1 <0>         0.0605
     34 H10        -3.3581   -2.2415    0.9121 H         1 <0>         0.0605
     35 H11        -3.3751   -2.2320   -0.8677 H         1 <0>         0.0605
     36 H12        -2.3170   -4.4744   -0.8899 H         1 <0>         0.0605
     37 H13        -2.3000   -4.4840    0.8900 H         1 <0>         0.0606
     38 H14        -4.7728   -4.3010    0.9146 H         1 <0>         0.0610
     39 H15        -4.7898   -4.2914   -0.8653 H         1 <0>         0.0609
     40 H16        -3.7316   -6.5338   -0.8874 H         1 <0>         0.0616
     41 H17        -3.7146   -6.5434    0.8924 H         1 <0>         0.0617
     42 H18        -6.1874   -6.3604    0.9170 H         1 <0>         0.0637
     43 H19        -6.2044   -6.3508   -0.8628 H         1 <0>         0.0635
     44 H20        -5.1463   -8.5933   -0.8850 H         1 <0>         0.0662
     45 H21        -5.1293   -8.6028    0.8949 H         1 <0>         0.0665
     46 H22        -7.6020   -8.4198    0.9195 H         1 <0>         0.0757
     47 H23        -7.6190   -8.4102   -0.8604 H         1 <0>         0.0752
     48 H24        -6.5609  -10.6527   -0.8825 H         1 <0>         0.0706
     49 H25        -6.5439  -10.6622    0.8973 H         1 <0>         0.0708
     50 H26       -10.9206  -10.8084    0.0384 H         1 <0>         0.1541
     51 H27        -9.2266  -14.7514    0.0109 H         1 <0>         0.1536
     52 H28       -11.5775  -16.3873   -0.8436 H         1 <0>         0.3930
     53 H29       -14.0934  -14.5035   -0.8235 H         1 <0>         0.3918
     54 H30       -13.7278  -11.3817   -0.8244 H         1 <0>         0.3927
@<TRIPOS>BOND
     1    1    2 1
     2    1   25 1
     3    1   26 1
     4    1   27 1
     5    2    3 1
     6    2   28 1
     7    2   29 1
     8    3    4 1
     9    3   30 1
    10    3   31 1
    11    4    5 1
    12    4   32 1
    13    4   33 1
    14    5    6 1
    15    5   34 1
    16    5   35 1
    17    6    7 1
    18    6   36 1
    19    6   37 1
    20    7    8 1
    21    7   38 1
    22    7   39 1
    23    8    9 1
    24    8   40 1
    25    8   41 1
    26    9   10 1
    27    9   42 1
    28    9   43 1
    29   10   11 1
    30   10   44 1
    31   10   45 1
    32   11   12 1
    33   11   46 1
    34   11   47 1
    35   12   13 1
    36   12   48 1
    37   12   49 1
    38   13   14 1
    39   14   15 2
    40   14   16 1
    41   16   21 ar
    42   16   17 ar
    43   17   18 ar
    44   17   50 1
    45   18   19 ar
    46   18   24 1
    47   19   20 ar
    48   19   23 1
    49   20   21 ar
    50   20   22 1
    51   21   51 1
    52   22   52 1
    53   23   53 1
    54   24   54 1
@<TRIPOS>MOLECULE
ZINC01632635
   42    42     0     0     0
SMALL
USER_CHARGES
octyl 3,4,5-trihydroxybenzoate
@<TRIPOS>ATOM
      1 C1        -13.6002    1.9842    0.0794 C.3       1 <0>        -0.1545
      2 C2        -12.3758    1.0668    0.0687 C.3       1 <0>        -0.1263
      3 C3        -11.1027    1.9154    0.0668 C.3       1 <0>        -0.1213
      4 C4         -9.8783    0.9981    0.0561 C.3       1 <0>        -0.1216
      5 C5         -8.6052    1.8467    0.0541 C.3       1 <0>        -0.1186
      6 C6         -7.3808    0.9293    0.0434 C.3       1 <0>        -0.1180
      7 C7         -6.1077    1.7779    0.0415 C.3       1 <0>        -0.1201
      8 C8         -4.8833    0.8605    0.0308 C.3       1 <0>         0.0673
      9 O1         -3.6751    1.6658    0.0290 O.3       1 <0>        -0.3516
     10 C9         -2.5002    1.0061    0.0198 C.2       1 <0>         0.5129
     11 O2         -2.4857   -0.2088    0.0136 O.2       1 <0>        -0.4983
     12 C10        -1.2319    1.7588    0.0174 C.ar      1 <0>        -0.1035
     13 C11        -0.0126    1.0758    0.0080 C.ar      1 <0>        -0.0738
     14 C12         1.1744    1.7837    0.0004 C.ar      1 <0>         0.0873
     15 C13         1.1563    3.1761    0.0071 C.ar      1 <0>         0.0937
     16 C14        -0.0571    3.8591    0.0219 C.ar      1 <0>         0.0853
     17 C15        -1.2471    3.1563    0.0304 C.ar      1 <0>        -0.0803
     18 O3         -0.0712    5.2190    0.0284 O.3       1 <0>        -0.4790
     19 O4          2.3248    3.8695   -0.0003 O.3       1 <0>        -0.4727
     20 O5          2.3613    1.1198   -0.0140 O.3       1 <0>        -0.4782
     21 H1        -14.5072    1.3797    0.0808 H         1 <0>         0.0536
     22 H2        -13.5785    2.6088    0.9725 H         1 <0>         0.0535
     23 H3        -13.5873    2.6178   -0.8075 H         1 <0>         0.0534
     24 H4        -12.3975    0.4423   -0.8244 H         1 <0>         0.0604
     25 H5        -12.3888    0.4332    0.9555 H         1 <0>         0.0605
     26 H6        -11.0810    2.5400    0.9598 H         1 <0>         0.0613
     27 H7        -11.0898    2.5490   -0.8201 H         1 <0>         0.0611
     28 H8         -9.9000    0.3735   -0.8370 H         1 <0>         0.0618
     29 H9         -9.8913    0.3645    0.9429 H         1 <0>         0.0619
     30 H10        -8.5835    2.4712    0.9472 H         1 <0>         0.0639
     31 H11        -8.5923    2.4803   -0.8327 H         1 <0>         0.0637
     32 H12        -7.4025    0.3047   -0.8496 H         1 <0>         0.0664
     33 H13        -7.3938    0.2957    0.9303 H         1 <0>         0.0667
     34 H14        -6.0860    2.4024    0.9346 H         1 <0>         0.0759
     35 H15        -6.0948    2.4115   -0.8453 H         1 <0>         0.0754
     36 H16        -4.9050    0.2360   -0.8623 H         1 <0>         0.0733
     37 H17        -4.8963    0.2269    0.9177 H         1 <0>         0.0735
     38 H18         0.0021   -0.0041    0.0020 H         1 <0>         0.1535
     39 H19        -2.1879    3.6865    0.0422 H         1 <0>         0.1540
     40 H20        -0.0837    5.6164   -0.8531 H         1 <0>         0.3927
     41 H21         2.6549    4.0744   -0.8858 H         1 <0>         0.3917
     42 H22         2.6963    0.9322   -0.9015 H         1 <0>         0.3931
@<TRIPOS>BOND
     1    1    2 1
     2    1   21 1
     3    1   22 1
     4    1   23 1
     5    2    3 1
     6    2   24 1
     7    2   25 1
     8    3    4 1
     9    3   26 1
    10    3   27 1
    11    4    5 1
    12    4   28 1
    13    4   29 1
    14    5    6 1
    15    5   30 1
    16    5   31 1
    17    6    7 1
    18    6   32 1
    19    6   33 1
    20    7    8 1
    21    7   34 1
    22    7   35 1
    23    8    9 1
    24    8   36 1
    25    8   37 1
    26    9   10 1
    27   10   11 2
    28   10   12 1
    29   12   17 ar
    30   12   13 ar
    31   13   14 ar
    32   13   38 1
    33   14   15 ar
    34   14   20 1
    35   15   16 ar
    36   15   19 1
    37   16   17 ar
    38   16   18 1
    39   17   39 1
    40   18   40 1
    41   19   41 1
    42   20   42 1
@<TRIPOS>MOLECULE
ZINC03870412
   51    54     0     0     0
SMALL
USER_CHARGES

@<TRIPOS>ATOM
      1 C1         -0.0167    1.3824    0.0096 C.ar      1 <0>        -0.1232
      2 C2          1.1697    2.0917    0.0021 C.ar      1 <0>        -0.0728
      3 C3          2.3792    1.4226   -0.0135 C.ar      1 <0>        -0.0978
      4 C4          2.4066    0.0362   -0.0217 C.ar      1 <0>         0.0943
      5 C5          1.2160   -0.6806   -0.0137 C.ar      1 <0>         0.0658
      6 C6          0.0021   -0.0041    0.0020 C.ar      1 <0>         0.0986
      7 O1         -1.1658   -0.7009    0.0099 O.3       1 <0>        -0.4875
      8 O2          1.2387   -2.0413   -0.0217 O.3       1 <0>        -0.4804
      9 O3          3.5971   -0.6212   -0.0380 O.3       1 <0>        -0.4833
     10 C7          1.1446    3.5984    0.0105 C.3       1 <0>         0.1463
     11 H1          0.2126    3.9475    0.4550 H         1 <0>         0.1098
     12 C8          1.2611    4.1251   -1.4256 C.3       1 <0>         0.0607
     13 H2          0.4684    3.6972   -2.0393 H         1 <0>         0.1110
     14 C9          1.1215    5.6490   -1.3913 C.3       1 <0>        -0.0887
     15 C10         2.0188    6.2172   -0.3211 C.ar      1 <0>        -0.1934
     16 C11         2.3348    7.5707   -0.3637 C.ar      1 <0>         0.1618
     17 C12         3.1535    8.1275    0.6048 C.ar      1 <0>        -0.1998
     18 C13         3.6597    7.3319    1.6220 C.ar      1 <0>         0.1590
     19 C14         3.3464    5.9836    1.6646 C.ar      1 <0>        -0.1810
     20 C15         2.5265    5.4225    0.6909 C.ar      1 <0>         0.1700
     21 O4          2.2521    4.0938    0.7639 O.3       1 <0>        -0.2919
     22 O5          4.4620    7.8746    2.5751 O.3       1 <0>        -0.4915
     23 O6          1.8385    8.3503   -1.3601 O.3       1 <0>        -0.4908
     24 O7          2.5347    3.7694   -1.9673 O.3       1 <0>        -0.3234
     25 C16         2.6005    3.5753   -3.2991 C.2       1 <0>         0.5152
     26 O8          1.6037    3.7045   -3.9818 O.2       1 <0>        -0.4949
     27 C17         3.8823    3.2060   -3.9281 C.ar      1 <0>        -0.1035
     28 C18         5.0283    3.0514   -3.1432 C.ar      1 <0>        -0.0764
     29 C19         6.2283    2.7053   -3.7353 C.ar      1 <0>         0.0874
     30 C20         6.2961    2.5111   -5.1125 C.ar      1 <0>         0.0957
     31 C21         5.1559    2.6649   -5.8970 C.ar      1 <0>         0.0871
     32 C22         3.9519    3.0043   -5.3093 C.ar      1 <0>        -0.0733
     33 O9          5.2258    2.4749   -7.2418 O.3       1 <0>        -0.4778
     34 O10         7.4772    2.1713   -5.6921 O.3       1 <0>        -0.4725
     35 O11         7.3439    2.5547   -2.9722 O.3       1 <0>        -0.4781
     36 H3         -0.9596    1.9089    0.0260 H         1 <0>         0.1412
     37 H4          3.3040    1.9803   -0.0197 H         1 <0>         0.1453
     38 H5         -1.5123   -0.8977   -0.8712 H         1 <0>         0.3973
     39 H6          1.2542   -2.4396    0.8593 H         1 <0>         0.3921
     40 H7          3.9506   -0.8164    0.8407 H         1 <0>         0.3917
     41 H8          1.4057    6.0611   -2.3595 H         1 <0>         0.0993
     42 H9          0.0865    5.9136   -1.1749 H         1 <0>         0.0973
     43 H10         3.3971    9.1790    0.5682 H         1 <0>         0.1392
     44 H11         3.7408    5.3648    2.4571 H         1 <0>         0.1416
     45 H12         3.9848    8.2124    3.3453 H         1 <0>         0.3966
     46 H13         0.9859    8.7570   -1.1536 H         1 <0>         0.3948
     47 H14         4.9764    3.2026   -2.0751 H         1 <0>         0.1522
     48 H15         3.0669    3.1188   -5.9176 H         1 <0>         0.1531
     49 H16         5.0544    1.5647   -7.5199 H         1 <0>         0.3927
     50 H17         7.6276    1.2177   -5.7487 H         1 <0>         0.3919
     51 H18         7.4749    1.6560   -2.6401 H         1 <0>         0.3928
@<TRIPOS>BOND
     1    1    6 ar
     2    1    2 ar
     3    1   36 1
     4    2    3 ar
     5    2   10 1
     6    3    4 ar
     7    3   37 1
     8    4    5 ar
     9    4    9 1
    10    5    6 ar
    11    5    8 1
    12    6    7 1
    13    7   38 1
    14    8   39 1
    15    9   40 1
    16   10   11 1
    17   10   21 1
    18   10   12 1
    19   12   13 1
    20   12   14 1
    21   12   24 1
    22   14   15 1
    23   14   41 1
    24   14   42 1
    25   15   20 ar
    26   15   16 ar
    27   16   17 ar
    28   16   23 1
    29   17   18 ar
    30   17   43 1
    31   18   19 ar
    32   18   22 1
    33   19   20 ar
    34   19   44 1
    35   20   21 1
    36   22   45 1
    37   23   46 1
    38   24   25 1
    39   25   26 2
    40   25   27 1
    41   27   32 ar
    42   27   28 ar
    43   28   29 ar
    44   28   47 1
    45   29   30 ar
    46   29   35 1
    47   30   31 ar
    48   30   34 1
    49   31   32 ar
    50   31   33 1
    51   32   48 1
    52   33   49 1
    53   34   50 1
    54   35   51 1
@<TRIPOS>MOLECULE
ZINC04096393
   69    72     0     0     0
SMALL
USER_CHARGES
[3,4-dihydroxy-5,6-bis[(3,4,5-trihydroxybenzoyl)oxy]tetrahydropyran-2-yl]methyl 3,4,5-trihydroxybenzoate
@<TRIPOS>ATOM
      1 C1          5.7429    6.5594    1.0378 C.ar      1 <0>        -0.0734
      2 C2          4.5464    5.8413    1.1163 C.ar      1 <0>        -0.1039
      3 C3          3.3345    6.5216    1.2633 C.ar      1 <0>        -0.0774
      4 C4          3.3232    7.9015    1.3417 C.ar      1 <0>         0.0861
      5 C5          4.5168    8.6144    1.2638 C.ar      1 <0>         0.0943
      6 C6          5.7252    7.9394    1.1116 C.ar      1 <0>         0.0859
      7 O1          6.8890    8.6389    1.0349 O.3       1 <0>        -0.4780
      8 O2          4.5022    9.9712    1.3360 O.3       1 <0>        -0.4726
      9 O3          2.1446    8.5639    1.4895 O.3       1 <0>        -0.4779
     10 C7          4.5622    4.3687    1.0380 C.2       1 <0>         0.5159
     11 O4          5.6160    3.7786    0.9051 O.2       1 <0>        -0.4980
     12 O5          3.4079    3.6776    1.1137 O.3       1 <0>        -0.3400
     13 C8          3.4991    2.2309    1.0294 C.3       1 <0>         0.0843
     14 C9          2.0981    1.6247    1.1335 C.3       1 <0>         0.1081
     15 H1          1.6159    1.9777    2.0451 H         1 <0>         0.0957
     16 C10         2.2039    0.0979    1.1702 C.3       1 <0>         0.0500
     17 H2          2.7226   -0.2538    0.2783 H         1 <0>         0.0908
     18 C11         0.7956   -0.5028    1.2136 C.3       1 <0>         0.0834
     19 H3          0.2947   -0.1921    2.1305 H         1 <0>         0.0910
     20 C12         0.0021   -0.0041    0.0020 C.3       1 <0>         0.0818
     21 H4          0.4749   -0.3569   -0.9145 H         1 <0>         0.1195
     22 C13        -0.0187    1.5267    0.0104 C.3       1 <0>         0.2561
     23 H5         -0.5286    1.8784    0.9073 H         1 <0>         0.0947
     24 O6          1.3225    2.0200    0.0003 O.3       1 <0>        -0.3593
     25 O7         -0.7206    2.0079   -1.1660 O.3       1 <0>        -0.3213
     26 C14        -0.9191    3.3375   -1.2588 C.2       1 <0>         0.5166
     27 O8         -0.5167    4.0745   -0.3806 O.2       1 <0>        -0.4754
     28 C15        -1.6247    3.8980   -2.4262 C.ar      1 <0>        -0.1040
     29 C16        -2.0831    3.0520   -3.4398 C.ar      1 <0>        -0.0792
     30 C17        -2.7488    3.5795   -4.5301 C.ar      1 <0>         0.0877
     31 C18        -2.9536    4.9536   -4.6244 C.ar      1 <0>         0.0958
     32 C19        -2.4930    5.7994   -3.6188 C.ar      1 <0>         0.0863
     33 C20        -1.8314    5.2768   -2.5236 C.ar      1 <0>        -0.0719
     34 O9         -2.6940    7.1411   -3.7145 O.3       1 <0>        -0.4771
     35 O10        -3.6039    5.4700   -5.7000 O.3       1 <0>        -0.4720
     36 O11        -3.1992    2.7563   -5.5146 O.3       1 <0>        -0.4768
     37 O12        -1.3578   -0.5082    0.0716 O.3       1 <0>        -0.3294
     38 C21        -1.9943   -0.7148   -1.0980 C.2       1 <0>         0.5157
     39 O13        -1.4284   -0.4802   -2.1473 O.2       1 <0>        -0.4782
     40 C22        -3.3777   -1.2258   -1.1044 C.ar      1 <0>        -0.1022
     41 C23        -4.0278   -1.5015    0.1017 C.ar      1 <0>        -0.0815
     42 C24        -5.3262   -1.9752    0.0928 C.ar      1 <0>         0.0860
     43 C25        -5.9828   -2.1878   -1.1166 C.ar      1 <0>         0.0951
     44 C26        -5.3355   -1.9194   -2.3199 C.ar      1 <0>         0.0891
     45 C27        -4.0391   -1.4406   -2.3168 C.ar      1 <0>        -0.0712
     46 O14        -5.9795   -2.1291   -3.4993 O.3       1 <0>        -0.4766
     47 O15        -7.2575   -2.6585   -1.1225 O.3       1 <0>        -0.4722
     48 O16        -5.9611   -2.2392    1.2662 O.3       1 <0>        -0.4786
     49 O17         0.8826   -1.9286    1.1740 O.3       1 <0>        -0.5425
     50 O18         2.9300   -0.3026    2.3340 O.3       1 <0>        -0.5434
     51 H6          6.6804    6.0365    0.9194 H         1 <0>         0.1534
     52 H7          2.4080    5.9694    1.3193 H         1 <0>         0.1560
     53 H8          7.1402    8.8870    0.1346 H         1 <0>         0.3924
     54 H9          4.4130   10.4097    0.4788 H         1 <0>         0.3913
     55 H10         1.7192    8.8010    0.6541 H         1 <0>         0.3924
     56 H11         4.1180    1.8577    1.8454 H         1 <0>         0.1070
     57 H12         3.9466    1.9499    0.0761 H         1 <0>         0.0854
     58 H13        -1.9205    1.9866   -3.3693 H         1 <0>         0.1561
     59 H14        -1.4740    5.9334   -1.7441 H         1 <0>         0.1538
     60 H15        -1.9822    7.6142   -4.1668 H         1 <0>         0.3920
     61 H16        -3.0221    5.7049   -6.4358 H         1 <0>         0.3915
     62 H17        -2.5593    2.6040   -6.2233 H         1 <0>         0.3923
     63 H18        -3.5174   -1.3409    1.0398 H         1 <0>         0.1525
     64 H19        -3.5376   -1.2322   -3.2503 H         1 <0>         0.1545
     65 H20        -5.8597   -3.0182   -3.8602 H         1 <0>         0.3928
     66 H21        -7.3204   -3.6232   -1.1444 H         1 <0>         0.3918
     67 H22        -5.8384   -3.1439    1.5849 H         1 <0>         0.3925
     68 H23         1.3730   -2.3134    1.9133 H         1 <0>         0.3874
     69 H24         3.0314   -1.2601    2.4242 H         1 <0>         0.3891
@<TRIPOS>BOND
     1    1    6 ar
     2    1    2 ar
     3    1   51 1
     4    2    3 ar
     5    2   10 1
     6    3    4 ar
     7    3   52 1
     8    4    5 ar
     9    4    9 1
    10    5    6 ar
    11    5    8 1
    12    6    7 1
    13    7   53 1
    14    8   54 1
    15    9   55 1
    16   10   11 2
    17   10   12 1
    18   12   13 1
    19   13   14 1
    20   13   56 1
    21   13   57 1
    22   14   15 1
    23   14   24 1
    24   14   16 1
    25   16   17 1
    26   16   18 1
    27   16   50 1
    28   18   19 1
    29   18   20 1
    30   18   49 1
    31   20   21 1
    32   20   22 1
    33   20   37 1
    34   22   23 1
    35   22   24 1
    36   22   25 1
    37   25   26 1
    38   26   27 2
    39   26   28 1
    40   28   33 ar
    41   28   29 ar
    42   29   30 ar
    43   29   58 1
    44   30   31 ar
    45   30   36 1
    46   31   32 ar
    47   31   35 1
    48   32   33 ar
    49   32   34 1
    50   33   59 1
    51   34   60 1
    52   35   61 1
    53   36   62 1
    54   37   38 1
    55   38   39 2
    56   38   40 1
    57   40   45 ar
    58   40   41 ar
    59   41   42 ar
    60   41   63 1
    61   42   43 ar
    62   42   48 1
    63   43   44 ar
    64   43   47 1
    65   44   45 ar
    66   44   46 1
    67   45   64 1
    68   46   65 1
    69   47   66 1
    70   48   67 1
    71   49   68 1
    72   50   69 1
@<TRIPOS>MOLECULE
ZINC04098612
   67    71     0     0     0
SMALL
USER_CHARGES
(octahydroxy-dioxo-BLAHyl) 3,4,5-trihydroxybenzoate
@<TRIPOS>ATOM
      1 C1          2.0296   -0.4037   -6.6905 C.ar      1 <0>        -0.0711
      2 C2          0.7464   -0.5757   -6.1641 C.ar      1 <0>        -0.1041
      3 C3         -0.0925   -1.5653   -6.6839 C.ar      1 <0>        -0.0807
      4 C4          0.3448   -2.3640   -7.7236 C.ar      1 <0>         0.0873
      5 C5          1.6238   -2.1904   -8.2462 C.ar      1 <0>         0.0973
      6 C6          2.4636   -1.2087   -7.7267 C.ar      1 <0>         0.0887
      7 O1          3.7120   -1.0416   -8.2398 O.3       1 <0>        -0.4775
      8 O2          2.0529   -2.9802   -9.2652 O.3       1 <0>        -0.4722
      9 O3         -0.4729   -3.3238   -8.2334 O.3       1 <0>        -0.4782
     10 C7          0.2806    0.2815   -5.0581 C.2       1 <0>         0.5209
     11 O4          1.0127    1.1382   -4.6036 O.2       1 <0>        -0.4785
     12 O5         -0.9568    0.1146   -4.5514 O.3       1 <0>        -0.3325
     13 C8         -1.3480    0.9938   -3.4640 C.3       1 <0>         0.2431
     14 H1         -1.1887    2.0339   -3.7461 H         1 <0>         0.1013
     15 C9         -2.8054    0.7587   -3.0938 C.3       1 <0>         0.0949
     16 H2         -2.9407   -0.2977   -2.8407 H         1 <0>         0.1013
     17 C10        -3.2476    1.5989   -1.9082 C.3       1 <0>         0.1361
     18 H3         -3.7247    2.5155   -2.2444 H         1 <0>         0.1325
     19 C11        -2.1979    1.8384   -0.8799 C.3       1 <0>         0.0473
     20 H4         -2.4042    1.1760   -0.0374 H         1 <0>         0.0715
     21 C12        -0.7715    1.6449   -1.2612 C.3       1 <0>         0.0483
     22 H5         -0.3005    2.5873   -1.5568 H         1 <0>         0.1065
     23 O6         -0.5877    0.6839   -2.2908 O.3       1 <0>        -0.3667
     24 C13        -0.0242    1.1203   -0.0092 C.3       1 <0>         0.0640
     25 O7         -0.6969    1.5744    1.1862 O.3       1 <0>        -0.3600
     26 C14        -1.6348    0.8127    1.7881 C.2       1 <0>         0.5131
     27 O8         -1.7707   -0.3630    1.4942 O.2       1 <0>        -0.4755
     28 C15        -2.4873    1.4403    2.8162 C.ar      1 <0>        -0.0781
     29 C16        -1.8853    2.4689    3.5632 C.ar      1 <0>        -0.0971
     30 C17        -2.5743    3.1059    4.5734 C.ar      1 <0>         0.1041
     31 C18        -3.8925    2.7441    4.8423 C.ar      1 <0>         0.0876
     32 C19        -4.5098    1.7525    4.1027 C.ar      1 <0>         0.1282
     33 C20        -3.8067    1.0601    3.0832 C.ar      1 <0>         0.0062
     34 C21        -4.5986    0.0316    2.3897 C.ar      1 <0>         0.0128
     35 C22        -4.8774   -0.0188    1.0198 C.ar      1 <0>        -0.0857
     36 C23        -5.5947   -1.1001    0.4833 C.ar      1 <0>        -0.0915
     37 C24        -6.0400   -2.1221    1.2939 C.ar      1 <0>         0.1000
     38 C25        -5.7746   -2.0830    2.6607 C.ar      1 <0>         0.0926
     39 C26        -5.0641   -1.0269    3.2045 C.ar      1 <0>         0.1052
     40 O9         -4.8008   -1.0208    4.5390 O.3       1 <0>        -0.4876
     41 O10        -6.2152   -3.0883    3.4634 O.3       1 <0>        -0.4755
     42 O11        -6.7360   -3.1617    0.7618 O.3       1 <0>        -0.4775
     43 C27        -4.4583    1.0311    0.0807 C.2       1 <0>         0.5028
     44 O12        -4.2975    2.1401    0.5393 O.2       1 <0>        -0.4528
     45 O13        -4.2645    0.7769   -1.2198 O.3       1 <0>        -0.3535
     46 O14        -5.8150    1.4596    4.3437 O.3       1 <0>        -0.4757
     47 O15        -4.5747    3.3680    5.8378 O.3       1 <0>        -0.4756
     48 O16        -1.9699    4.0797    5.3028 O.3       1 <0>        -0.4776
     49 O17        -2.3262    3.1957   -0.4215 O.3       1 <0>        -0.5271
     50 O18        -3.6354    1.0648   -4.2188 O.3       1 <0>        -0.5435
     51 H6          2.6813    0.3578   -6.2882 H         1 <0>         0.1545
     52 H7         -1.0830   -1.7033   -6.2760 H         1 <0>         0.1540
     53 H8          4.3911   -1.5742   -7.8036 H         1 <0>         0.3940
     54 H9          2.4951   -3.7900   -8.9758 H         1 <0>         0.3930
     55 H10        -0.3916   -4.1825   -7.7962 H         1 <0>         0.3938
     56 H11        -0.0112    0.0302   -0.0262 H         1 <0>         0.0997
     57 H12         0.9996    1.4943   -0.0156 H         1 <0>         0.1337
     58 H13        -0.8695    2.7619    3.3440 H         1 <0>         0.1548
     59 H14        -5.7980   -1.1285   -0.5769 H         1 <0>         0.1542
     60 H15        -4.0149   -1.5267    4.7872 H         1 <0>         0.4037
     61 H16        -7.0975   -2.9406    3.8304 H         1 <0>         0.3970
     62 H17        -7.6931   -3.0253    0.7421 H         1 <0>         0.3950
     63 H18        -5.9496    0.8235    5.0595 H         1 <0>         0.4012
     64 H19        -5.0562    4.1559    5.5508 H         1 <0>         0.3971
     65 H20        -2.0779    4.9687    4.9380 H         1 <0>         0.3959
     66 H21        -1.7711    3.4072    0.3416 H         1 <0>         0.3850
     67 H22        -3.4145    0.5667   -5.0177 H         1 <0>         0.3955
@<TRIPOS>BOND
     1    1    6 ar
     2    1    2 ar
     3    1   51 1
     4    2    3 ar
     5    2   10 1
     6    3    4 ar
     7    3   52 1
     8    4    5 ar
     9    4    9 1
    10    5    6 ar
    11    5    8 1
    12    6    7 1
    13    7   53 1
    14    8   54 1
    15    9   55 1
    16   10   11 2
    17   10   12 1
    18   12   13 1
    19   13   14 1
    20   13   23 1
    21   13   15 1
    22   15   16 1
    23   15   17 1
    24   15   50 1
    25   17   18 1
    26   17   45 1
    27   17   19 1
    28   19   20 1
    29   19   21 1
    30   19   49 1
    31   21   22 1
    32   21   23 1
    33   21   24 1
    34   24   25 1
    35   24   56 1
    36   24   57 1
    37   25   26 1
    38   26   27 2
    39   26   28 1
    40   28   33 ar
    41   28   29 ar
    42   29   30 ar
    43   29   58 1
    44   30   31 ar
    45   30   48 1
    46   31   32 ar
    47   31   47 1
    48   32   33 ar
    49   32   46 1
    50   33   34 1
    51   34   39 ar
    52   34   35 ar
    53   35   36 ar
    54   35   43 1
    55   36   37 ar
    56   36   59 1
    57   37   38 ar
    58   37   42 1
    59   38   39 ar
    60   38   41 1
    61   39   40 1
    62   40   60 1
    63   41   61 1
    64   42   62 1
    65   43   44 2
    66   43   45 1
    67   46   63 1
    68   47   64 1
    69   48   65 1
    70   49   66 1
    71   50   67 1
@<TRIPOS>MOLECULE
ZINC00021790
   24    24     0     0     0
SMALL
USER_CHARGES
ethyl 3,4,5-trihydroxybenzoate
@<TRIPOS>ATOM
      1 C1         -6.1077    1.7779    0.0415 C.3       1 <0>        -0.1542
      2 C2         -4.8833    0.8605    0.0308 C.3       1 <0>         0.0629
      3 O1         -3.6751    1.6658    0.0290 O.3       1 <0>        -0.3525
      4 C3         -2.5002    1.0061    0.0198 C.2       1 <0>         0.5128
      5 O2         -2.4857   -0.2088    0.0136 O.2       1 <0>        -0.4987
      6 C4         -1.2319    1.7588    0.0174 C.ar      1 <0>        -0.1037
      7 C5         -0.0126    1.0758    0.0080 C.ar      1 <0>        -0.0737
      8 C6          1.1744    1.7837    0.0004 C.ar      1 <0>         0.0873
      9 C7          1.1563    3.1761    0.0071 C.ar      1 <0>         0.0938
     10 C8         -0.0571    3.8591    0.0219 C.ar      1 <0>         0.0852
     11 C9         -1.2471    3.1563    0.0304 C.ar      1 <0>        -0.0803
     12 O3         -0.0712    5.2190    0.0284 O.3       1 <0>        -0.4790
     13 O4          2.3248    3.8695   -0.0003 O.3       1 <0>        -0.4727
     14 O5          2.3613    1.1198   -0.0140 O.3       1 <0>        -0.4782
     15 H1         -6.0860    2.4024    0.9346 H         1 <0>         0.0684
     16 H2         -6.0947    2.4115   -0.8453 H         1 <0>         0.0678
     17 H3         -7.0147    1.1733    0.0429 H         1 <0>         0.0830
     18 H4         -4.9050    0.2360   -0.8623 H         1 <0>         0.0732
     19 H5         -4.8963    0.2269    0.9177 H         1 <0>         0.0735
     20 H6          0.0021   -0.0041    0.0020 H         1 <0>         0.1536
     21 H7         -2.1879    3.6865    0.0422 H         1 <0>         0.1540
     22 H8         -0.0837    5.6164   -0.8531 H         1 <0>         0.3927
     23 H9          2.6549    4.0744   -0.8858 H         1 <0>         0.3917
     24 H10         2.6963    0.9322   -0.9015 H         1 <0>         0.3931
@<TRIPOS>BOND
     1    1    2 1
     2    1   15 1
     3    1   16 1
     4    1   17 1
     5    2    3 1
     6    2   18 1
     7    2   19 1
     8    3    4 1
     9    4    5 2
    10    4    6 1
    11    6   11 ar
    12    6    7 ar
    13    7    8 ar
    14    7   20 1
    15    8    9 ar
    16    8   14 1
    17    9   10 ar
    18    9   13 1
    19   10   11 ar
    20   10   12 1
    21   11   21 1
    22   12   22 1
    23   13   23 1
    24   14   24 1
@<TRIPOS>MOLECULE
ZINC03872446
   28    31     0     0     0
SMALL
USER_CHARGES

@<TRIPOS>ATOM
      1 C1         -0.0167    1.3830    0.0096 C.ar      1 <0>        -0.0604
      2 C2          1.1863    2.0770    0.0019 C.ar      1 <0>        -0.1234
      3 C3          2.3926    1.3452   -0.0012 C.ar      1 <0>        -0.0764
      4 C4          3.6485    2.1050    0.0027 C.ar      1 <0>        -0.0764
      5 C5          4.8466    1.3869   -0.1987 C.ar      1 <0>        -0.1232
      6 C6          6.0497    2.0805   -0.1986 C.ar      1 <0>        -0.0590
      7 C7          6.0379    3.4562   -0.0202 C.ar      1 <0>         0.1179
      8 C8          4.8480    4.1611    0.1666 C.ar      1 <0>         0.1231
      9 C9          3.6323    3.4858    0.1873 C.ar      1 <0>         0.1200
     10 O1          2.4525    4.1170    0.4119 O.3       1 <0>        -0.2602
     11 C10         1.3009    3.5438   -0.0161 C.2       1 <0>         0.5371
     12 O2          0.3774    4.2309   -0.4091 O.2       1 <0>        -0.4121
     13 O3          4.8772    5.5099    0.3289 O.3       1 <0>        -0.4645
     14 O4          7.2160    4.1351   -0.0270 O.3       1 <0>        -0.4711
     15 C11         4.7207   -0.0622   -0.4200 C.2       1 <0>         0.5387
     16 O5          5.6013   -0.6796   -0.9881 O.2       1 <0>        -0.4109
     17 O6          3.6072   -0.6979    0.0201 O.3       1 <0>        -0.2624
     18 C12         2.4165   -0.0480   -0.0047 C.ar      1 <0>         0.1193
     19 C13         1.1993   -0.7211   -0.0097 C.ar      1 <0>         0.1247
     20 C14         0.0021   -0.0041    0.0020 C.ar      1 <0>         0.1186
     21 O7         -1.1763   -0.6825    0.0061 O.3       1 <0>        -0.4765
     22 O8          1.1759   -2.0796   -0.0262 O.3       1 <0>        -0.4696
     23 H1         -0.9555    1.9167    0.0260 H         1 <0>         0.1661
     24 H2          6.9834    1.5552   -0.3355 H         1 <0>         0.1663
     25 H3          4.8118    6.0071   -0.4979 H         1 <0>         0.4009
     26 H4          7.4868    4.4442   -0.9023 H         1 <0>         0.4006
     27 H5         -1.5229   -0.8740   -0.8761 H         1 <0>         0.4061
     28 H6          1.1714   -2.4835    0.8524 H         1 <0>         0.4066
@<TRIPOS>BOND
     1    1   20 ar
     2    1    2 ar
     3    1   23 1
     4    2   11 1
     5    2    3 ar
     6    3   18 ar
     7    3    4 1
     8    4    9 ar
     9    4    5 ar
    10    5    6 ar
    11    5   15 1
    12    6    7 ar
    13    6   24 1
    14    7    8 ar
    15    7   14 1
    16    8    9 ar
    17    8   13 1
    18    9   10 1
    19   10   11 1
    20   11   12 2
    21   13   25 1
    22   14   26 1
    23   15   16 2
    24   15   17 1
    25   17   18 1
    26   18   19 ar
    27   19   20 ar
    28   19   22 1
    29   20   21 1
    30   21   27 1
    31   22   28 1
