@<TRIPOS>MOLECULE
ZINC04842179
   41    42     0     0     0
SMALL
USER_CHARGES
N,N-dimethyl-3-(4-phenylphenoxy)-propan-1-amine
@<TRIPOS>ATOM
      1 C1         -1.7730   10.3574   -1.1784 C.3       1 <0>        -0.0487
      2 C2         -3.6528   10.5735    0.3323 C.3       1 <0>        -0.0426
      3 C3         -2.5485    8.4345    0.0720 C.3       1 <0>        -0.0025
      4 C4         -1.1760    7.7585    0.0552 C.3       1 <0>        -0.1523
      5 C5         -1.3559    6.2391    0.0487 C.3       1 <0>         0.0621
      6 O1         -0.0740    5.6078    0.0330 O.3       1 <0>        -0.3131
      7 C6         -0.0556    4.2492    0.0255 C.ar      1 <0>         0.1192
      8 C7          1.1567    3.5729    0.0102 C.ar      1 <0>        -0.1404
      9 C8          1.1786    2.1940    0.0026 C.ar      1 <0>        -0.0699
     10 C9         -0.0180    1.4794    0.0102 C.ar      1 <0>        -0.0676
     11 C10        -1.2337    2.1612    0.0196 C.ar      1 <0>        -0.0717
     12 C11        -1.2492    3.5401    0.0326 C.ar      1 <0>        -0.2024
     13 C12         0.0021   -0.0041    0.0020 C.ar      1 <0>        -0.0502
     14 C13         1.2167   -0.6869   -0.0190 C.ar      1 <0>        -0.1117
     15 C14         1.2295   -2.0670   -0.0211 C.ar      1 <0>        -0.1146
     16 C15         0.0396   -2.7723   -0.0131 C.ar      1 <0>        -0.1151
     17 C16        -1.1690   -2.0996    0.0020 C.ar      1 <0>        -0.1157
     18 C17        -1.1936   -0.7197    0.0096 C.ar      1 <0>        -0.1129
     19 H1         -2.4188   10.0855   -2.0134 H         1 <0>         0.1245
     20 H2         -1.6564   11.4407   -1.1471 H         1 <0>         0.1247
     21 H3         -0.7965    9.8904   -1.3073 H         1 <0>         0.1232
     22 H4         -4.0430   10.2636    1.3017 H         1 <0>         0.1225
     23 H5         -3.4963   11.6522    0.3315 H         1 <0>         0.1246
     24 H6         -4.3667   10.3094   -0.4480 H         1 <0>         0.1239
     25 H7         -3.1100    8.1389   -0.8143 H         1 <0>         0.1350
     26 H8         -3.0929    8.1292    0.9656 H         1 <0>         0.1334
     27 H9         -0.6146    8.0541    0.9414 H         1 <0>         0.0990
     28 H10        -0.6316    8.0637   -0.8384 H         1 <0>         0.0992
     29 H11        -1.9174    5.9435   -0.8376 H         1 <0>         0.0724
     30 H12        -1.9003    5.9339    0.9423 H         1 <0>         0.0726
     31 H13         2.0837    4.1271    0.0047 H         1 <0>         0.1353
     32 H14         2.1220    1.6684   -0.0096 H         1 <0>         0.1374
     33 H15        -2.1625    1.6101    0.0210 H         1 <0>         0.1317
     34 H16        -2.1908    4.0689    0.0441 H         1 <0>         0.1272
     35 H17         2.1462   -0.1372   -0.0298 H         1 <0>         0.1253
     36 H18         2.1703   -2.5972   -0.0333 H         1 <0>         0.1270
     37 H19         0.0543   -3.8522   -0.0190 H         1 <0>         0.1258
     38 H20        -2.0950   -2.6553    0.0075 H         1 <0>         0.1262
     39 H21        -2.1378   -0.1956    0.0210 H         1 <0>         0.1233
     40 N1         -2.3578    9.9000    0.0996 N.4       1 <0>        -0.3969
     41 H22        -1.7157   10.1384    0.8645 H         1 <0>         0.4329
@<TRIPOS>BOND
     1    1   19 1
     2    1   20 1
     3    1   21 1
     4    1   40 1
     5    2   22 1
     6    2   23 1
     7    2   24 1
     8    2   40 1
     9    3    4 1
    10    3   25 1
    11    3   26 1
    12    3   40 1
    13    4    5 1
    14    4   27 1
    15    4   28 1
    16    5    6 1
    17    5   29 1
    18    5   30 1
    19    6    7 1
    20    7   12 ar
    21    7    8 ar
    22    8    9 ar
    23    8   31 1
    24    9   10 ar
    25    9   32 1
    26   10   11 ar
    27   10   13 1
    28   11   12 ar
    29   11   33 1
    30   12   34 1
    31   13   18 ar
    32   13   14 ar
    33   14   15 ar
    34   14   35 1
    35   15   16 ar
    36   15   36 1
    37   16   17 ar
    38   16   37 1
    39   17   18 ar
    40   17   38 1
    41   18   39 1
    42   40   41 1
