@<TRIPOS>MOLECULE
ZINC02563947
   56    57     0     0     0
SMALL
USER_CHARGES

@<TRIPOS>ATOM
      1 C1         -0.2870    1.0126    0.0755 C.3       1 <0>        -0.0538
      2 N1         -0.1364   -0.4467    0.0014 N.4       1 <0>        -0.3846
      3 C2          0.6056   -0.8012   -1.2159 C.3       1 <0>        -0.0116
      4 C3         -0.2189   -0.4164   -2.4459 C.3       1 <0>        -0.1494
      5 C4          0.5538   -0.7857   -3.7137 C.3       1 <0>        -0.1169
      6 C5         -0.2706   -0.4009   -4.9438 C.3       1 <0>        -0.1177
      7 C6          0.5021   -0.7701   -6.2116 C.3       1 <0>        -0.1218
      8 C7         -0.3224   -0.3853   -7.4417 C.3       1 <0>         0.0551
      9 O1          0.3994   -0.7301   -8.6258 O.3       1 <0>        -0.3061
     10 C8         -0.1964   -0.4531   -9.8131 C.ar      1 <0>         0.1777
     11 C9         -1.4520    0.1459   -9.8354 C.ar      1 <0>        -0.2183
     12 C10        -2.0595    0.4284  -11.0254 C.ar      1 <0>        -0.0112
     13 C11        -1.4200    0.1164  -12.2300 C.ar      1 <0>        -0.2203
     14 C12        -0.1552   -0.4865  -12.2103 C.ar      1 <0>         0.1766
     15 C13         0.4519   -0.7633  -11.0016 C.ar      1 <0>        -0.1897
     16 F1          0.4693   -0.7915  -13.3688 F         1 <0>        -0.1195
     17 C14        -2.0743    0.4202  -13.5148 C.2       1 <0>         0.4504
     18 O2         -2.1121    1.5655  -13.9221 O.2       1 <0>        -0.4242
     19 C15        -2.6844   -0.6667  -14.3083 C.ar      1 <0>        -0.1526
     20 C16        -2.7486   -1.9623  -13.7904 C.ar      1 <0>        -0.0606
     21 C17        -3.3196   -2.9720  -14.5357 C.ar      1 <0>        -0.1029
     22 C18        -3.8286   -2.7039  -15.7956 C.ar      1 <0>        -0.0593
     23 C19        -3.7676   -1.4214  -16.3150 C.ar      1 <0>        -0.1012
     24 C20        -3.2047   -0.4016  -15.5772 C.ar      1 <0>        -0.0511
     25 Br1        -4.6094   -4.0948  -16.8111 Br        1 <0>        -0.0339
     26 C21         0.5997   -0.9235    1.1799 C.3       1 <0>         0.0297
     27 C22        -0.2183   -0.6696    2.4198 C.2       1 <0>        -0.2414
     28 C23        -0.4996   -1.6576    3.2327 C.2       1 <0>        -0.1007
     29 H1          0.6980    1.4787    0.1017 H         1 <0>         0.1224
     30 H2         -0.8332    1.3664   -0.7989 H         1 <0>         0.1241
     31 H3         -0.8376    1.2757    0.9788 H         1 <0>         0.1243
     32 H4          1.5544   -0.2650   -1.2322 H         1 <0>         0.1303
     33 H5          0.7946   -1.8747   -1.2265 H         1 <0>         0.1304
     34 H6         -1.1678   -0.9527   -2.4296 H         1 <0>         0.0873
     35 H7         -0.4080    0.6570   -2.4353 H         1 <0>         0.0883
     36 H8          1.5027   -0.2494   -3.7300 H         1 <0>         0.0768
     37 H9          0.7429   -1.8591   -3.7244 H         1 <0>         0.0769
     38 H10        -1.2195   -0.9371   -4.9275 H         1 <0>         0.0712
     39 H11        -0.4597    0.6726   -4.9332 H         1 <0>         0.0709
     40 H12         1.4509   -0.2338   -6.2279 H         1 <0>         0.0786
     41 H13         0.6912   -1.8435   -6.2222 H         1 <0>         0.0787
     42 H14        -1.2712   -0.9215   -7.4254 H         1 <0>         0.0681
     43 H15        -0.5115    0.6881   -7.4311 H         1 <0>         0.0679
     44 H16        -1.9487    0.3881   -8.9075 H         1 <0>         0.1407
     45 H17        -3.0346    0.8928  -11.0366 H         1 <0>         0.1427
     46 H18         1.4282   -1.2245  -10.9803 H         1 <0>         0.1531
     47 H19        -2.3514   -2.1728  -12.8083 H         1 <0>         0.1369
     48 H20        -3.3698   -3.9742  -14.1363 H         1 <0>         0.1417
     49 H21        -4.1659   -1.2188  -17.2982 H         1 <0>         0.1439
     50 H22        -3.1621    0.5990  -15.9814 H         1 <0>         0.1458
     51 H23         0.7890   -1.9925    1.0821 H         1 <0>         0.1299
     52 H24         1.5483   -0.3919    1.2553 H         1 <0>         0.1340
     53 H25        -0.5727    0.3269    2.6382 H         1 <0>         0.1338
     54 H26        -0.1452   -2.6542    3.0142 H         1 <0>         0.1119
     55 H27        -1.0858   -1.4757    4.1213 H         1 <0>         0.1234
     56 H28        -1.0482   -0.8782   -0.0228 H         1 <0>         0.4251
@<TRIPOS>BOND
     1    1    2 1
     2    1   29 1
     3    1   30 1
     4    1   31 1
     5    2    3 1
     6    2   26 1
     7    2   56 1
     8    3    4 1
     9    3   32 1
    10    3   33 1
    11    4    5 1
    12    4   34 1
    13    4   35 1
    14    5    6 1
    15    5   36 1
    16    5   37 1
    17    6    7 1
    18    6   38 1
    19    6   39 1
    20    7    8 1
    21    7   40 1
    22    7   41 1
    23    8    9 1
    24    8   42 1
    25    8   43 1
    26    9   10 1
    27   10   15 ar
    28   10   11 ar
    29   11   12 ar
    30   11   44 1
    31   12   13 ar
    32   12   45 1
    33   13   14 ar
    34   13   17 1
    35   14   15 ar
    36   14   16 1
    37   15   46 1
    38   17   18 2
    39   17   19 1
    40   19   24 ar
    41   19   20 ar
    42   20   21 ar
    43   20   47 1
    44   21   22 ar
    45   21   48 1
    46   22   23 ar
    47   22   25 1
    48   23   24 ar
    49   23   49 1
    50   24   50 1
    51   26   27 1
    52   26   51 1
    53   26   52 1
    54   27   28 2
    55   27   53 1
    56   28   54 1
    57   28   55 1
@<TRIPOS>MOLECULE
ZINC00598970
   48    51     0     0     0
SMALL
USER_CHARGES
(4-chlorophenyl)-[4-[[4-(4,5-dihydrooxazol-2-yl)phenyl]methylene]-1-piperidyl]-methanone
@<TRIPOS>ATOM
      1 C1          3.9774    3.9468    5.6340 C.ar      1 <0>        -0.1160
      2 C2          3.7267    4.9902    6.4960 C.ar      1 <0>        -0.0744
      3 C3          2.4121    5.3094    6.8424 C.ar      1 <0>        -0.0508
      4 C4          1.3512    4.5737    6.3099 C.ar      1 <0>        -0.0628
      5 C5          1.6012    3.5339    5.4434 C.ar      1 <0>        -0.1236
      6 C6          2.9161    3.2145    5.0968 C.ar      1 <0>        -0.0255
      7 C7          3.1845    2.0988    4.1670 C.2       1 <0>        -0.1276
      8 C8          2.3535    1.8591    3.1611 C.2       1 <0>        -0.0991
      9 C9          2.5067    0.6189    2.3082 C.3       1 <0>        -0.0986
     10 C10         2.5659    1.0469    0.8363 C.3       1 <0>         0.1133
     11 N1          1.4486    1.9604    0.5644 N.am      1 <0>        -0.6047
     12 C11         1.3240    3.1950    1.3498 C.3       1 <0>         0.0955
     13 C12         1.2294    2.8191    2.8391 C.3       1 <0>        -0.1174
     14 C13         0.5511    1.6717   -0.3987 C.2       1 <0>         0.5620
     15 O1          0.7002    0.6846   -1.0924 O.2       1 <0>        -0.5274
     16 C14        -0.6111    2.5585   -0.6154 C.ar      1 <0>        -0.1233
     17 C15        -0.4288    3.9382   -0.7267 C.ar      1 <0>        -0.0815
     18 C16        -1.5165    4.7600   -0.9341 C.ar      1 <0>        -0.1134
     19 C17        -2.7892    4.2203   -1.0211 C.ar      1 <0>        -0.0159
     20 C18        -2.9770    2.8528   -0.9058 C.ar      1 <0>        -0.1114
     21 C19        -1.8963    2.0203   -0.7040 C.ar      1 <0>        -0.0561
     22 Cl1        -4.1544    5.2619   -1.2762 Cl        1 <0>        -0.0589
     23 C20         2.1433    6.4267    7.7728 C.2       1 <0>         0.3456
     24 N2          0.9472    6.7784    8.1304 N.2       1 <0>        -0.5345
     25 C21         1.0550    7.9129    9.0683 C.3       1 <0>        -0.0097
     26 C22         2.5537    7.8720    9.4544 C.3       1 <0>         0.0199
     27 O2          3.1197    7.1780    8.3237 O.3       1 <0>        -0.3410
     28 H1          4.9943    3.6971    5.3696 H         1 <0>         0.1323
     29 H2          4.5470    5.5594    6.9076 H         1 <0>         0.1344
     30 H3          0.3346    4.8205    6.5782 H         1 <0>         0.1398
     31 H4          0.7807    2.9652    5.0313 H         1 <0>         0.1364
     32 H5          4.0573    1.4781    4.3061 H         1 <0>         0.1270
     33 H6          1.6537   -0.0415    2.4643 H         1 <0>         0.0836
     34 H7          3.4267    0.0996    2.5767 H         1 <0>         0.0866
     35 H8          2.4835    0.1682    0.1967 H         1 <0>         0.0990
     36 H9          3.5098    1.5552    0.6391 H         1 <0>         0.0741
     37 H10         2.1988    3.8237    1.1836 H         1 <0>         0.0774
     38 H11         0.4239    3.7306    1.0483 H         1 <0>         0.1015
     39 H12         0.2703    2.3415    3.0393 H         1 <0>         0.0816
     40 H13         1.3269    3.7166    3.4500 H         1 <0>         0.0995
     41 H14         0.5626    4.3605   -0.6549 H         1 <0>         0.1408
     42 H15        -1.3762    5.8270   -1.0248 H         1 <0>         0.1422
     43 H16        -3.9716    2.4377   -0.9744 H         1 <0>         0.1426
     44 H17        -2.0439    0.9542   -0.6149 H         1 <0>         0.1408
     45 H18         0.4233    7.7592    9.9432 H         1 <0>         0.1043
     46 H19         0.8066    8.8505    8.5711 H         1 <0>         0.0945
     47 H20         2.7055    7.3088   10.3753 H         1 <0>         0.0853
     48 H21         2.9637    8.8782    9.5415 H         1 <0>         0.1137
@<TRIPOS>BOND
     1    1    6 ar
     2    1    2 ar
     3    1   28 1
     4    2    3 ar
     5    2   29 1
     6    3    4 ar
     7    3   23 1
     8    4    5 ar
     9    4   30 1
    10    5    6 ar
    11    5   31 1
    12    6    7 1
    13    7    8 2
    14    7   32 1
    15    8   13 1
    16    8    9 1
    17    9   10 1
    18    9   33 1
    19    9   34 1
    20   10   11 1
    21   10   35 1
    22   10   36 1
    23   11   12 1
    24   11   14 am
    25   12   13 1
    26   12   37 1
    27   12   38 1
    28   13   39 1
    29   13   40 1
    30   14   15 2
    31   14   16 1
    32   16   21 ar
    33   16   17 ar
    34   17   18 ar
    35   17   41 1
    36   18   19 ar
    37   18   42 1
    38   19   20 ar
    39   19   22 1
    40   20   21 ar
    41   20   43 1
    42   21   44 1
    43   23   27 1
    44   23   24 2
    45   24   25 1
    46   25   26 1
    47   25   45 1
    48   25   46 1
    49   26   27 1
    50   26   47 1
    51   26   48 1
