@<TRIPOS>MOLECULE
ZINC13520815
   44    47     0     0     0
SMALL
USER_CHARGES

@<TRIPOS>ATOM
      1 C1         -0.0187    1.5258    0.0104 C.3       1 <0>        -0.1354
      2 C2          0.0021   -0.0041    0.0020 C.3       1 <0>        -0.0564
      3 C3         -1.4142   -0.5425    0.0489 C.3       1 <0>        -0.1016
      4 C4         -2.0973    0.0441    1.2987 C.3       1 <0>        -0.1130
      5 C5         -1.3125   -0.3073    2.5542 C.3       1 <0>        -0.0424
      6 H1         -1.3075   -1.3927    2.6533 H         1 <0>         0.0765
      7 C6         -1.9424    0.2651    3.7900 C.ar      1 <0>        -0.0773
      8 C7         -3.3273    0.3484    3.8443 C.ar      1 <0>        -0.1030
      9 C8         -3.9576    0.8569    4.9598 C.ar      1 <0>        -0.1472
     10 C9         -3.2003    1.2884    6.0396 C.ar      1 <0>         0.1024
     11 C10        -1.8198    1.2087    5.9840 C.ar      1 <0>        -0.1480
     12 C11        -1.1856    0.7013    4.8579 C.ar      1 <0>        -0.0577
     13 C12         0.3200    0.6669    4.8604 C.3       1 <0>        -0.0825
     14 C13         0.8561   -0.2331    3.7476 C.3       1 <0>        -0.1135
     15 C14         0.1446    0.1628    2.4542 C.3       1 <0>        -0.0739
     16 H2          0.1741    1.2443    2.3212 H         1 <0>         0.0865
     17 C15         0.7512   -0.5345    1.2564 C.3       1 <0>        -0.0835
     18 H3          0.6224   -1.6140    1.3350 H         1 <0>         0.0754
     19 C16         2.2091   -0.2046    0.9567 C.3       1 <0>        -0.1120
     20 C17         2.3296   -0.2454   -0.5872 C.3       1 <0>        -0.1564
     21 C18         0.8992   -0.5108   -1.1319 C.3       1 <0>         0.1090
     22 H4          0.7424   -1.5760   -1.3012 H         1 <0>         0.0609
     23 O1          0.6684    0.2327   -2.3302 O.3       1 <0>        -0.5588
     24 O2         -3.8114    1.7874    7.1461 O.3       1 <0>        -0.5003
     25 H5          1.0039    1.9031    0.0027 H         1 <0>         0.0539
     26 H6         -0.5459    1.8868   -0.8726 H         1 <0>         0.0599
     27 H7         -0.5289    1.8773    0.9072 H         1 <0>         0.0606
     28 H8         -1.9557   -0.2363   -0.8462 H         1 <0>         0.0693
     29 H9         -1.3938   -1.6303    0.1152 H         1 <0>         0.0628
     30 H10        -2.1534    1.1283    1.2019 H         1 <0>         0.0698
     31 H11        -3.1059   -0.3612    1.3804 H         1 <0>         0.0659
     32 H12        -3.9166    0.0119    3.0041 H         1 <0>         0.1276
     33 H13        -5.0353    0.9194    4.9932 H         1 <0>         0.1275
     34 H14        -1.2303    1.5447    6.8243 H         1 <0>         0.1259
     35 H15         0.7005    1.6781    4.7162 H         1 <0>         0.0774
     36 H16         0.6668    0.2900    5.8226 H         1 <0>         0.0749
     37 H17         1.9304   -0.0841    3.6397 H         1 <0>         0.0720
     38 H18         0.6512   -1.2764    3.9877 H         1 <0>         0.0665
     39 H19         2.4554    0.7900    1.3285 H         1 <0>         0.0683
     40 H20         2.8651   -0.9498    1.4065 H         1 <0>         0.0656
     41 H21         2.7000    0.7100   -0.9588 H         1 <0>         0.0739
     42 H22         3.0000   -1.0500   -0.8889 H         1 <0>         0.0643
     43 H23         1.2119   -0.0490   -3.0787 H         1 <0>         0.3759
     44 H24        -4.0214    1.1203    7.8140 H         1 <0>         0.3901
@<TRIPOS>BOND
     1    1    2 1
     2    1   25 1
     3    1   26 1
     4    1   27 1
     5    2   17 1
     6    2   21 1
     7    2    3 1
     8    3    4 1
     9    3   28 1
    10    3   29 1
    11    4    5 1
    12    4   30 1
    13    4   31 1
    14    5    6 1
    15    5   15 1
    16    5    7 1
    17    7   12 ar
    18    7    8 ar
    19    8    9 ar
    20    8   32 1
    21    9   10 ar
    22    9   33 1
    23   10   11 ar
    24   10   24 1
    25   11   12 ar
    26   11   34 1
    27   12   13 1
    28   13   14 1
    29   13   35 1
    30   13   36 1
    31   14   15 1
    32   14   37 1
    33   14   38 1
    34   15   16 1
    35   15   17 1
    36   17   18 1
    37   17   19 1
    38   19   20 1
    39   19   39 1
    40   19   40 1
    41   20   21 1
    42   20   41 1
    43   20   42 1
    44   21   22 1
    45   21   23 1
    46   23   43 1
    47   24   44 1
@<TRIPOS>MOLECULE
ZINC18825330
   30    32     0     0     0
SMALL
USER_CHARGES

@<TRIPOS>ATOM
      1 C1         -0.0168    1.3897    0.0097 C.ar      1 <0>        -0.0898
      2 C2          1.1691    2.0941    0.0021 C.ar      1 <0>        -0.1444
      3 C3          2.3804    1.4165   -0.0135 C.ar      1 <0>         0.1118
      4 C4          2.4026    0.0286   -0.0217 C.ar      1 <0>        -0.1437
      5 C5          1.2201   -0.6816   -0.0137 C.ar      1 <0>        -0.0707
      6 C6          0.0021   -0.0041    0.0020 C.ar      1 <0>        -0.0391
      7 C7         -1.2713   -0.7647    0.0106 C.2       1 <0>        -0.2383
      8 C8         -2.1308   -0.6985   -1.0391 C.2       1 <0>         0.1275
      9 O1         -3.2790   -1.3788   -1.0759 O.3       1 <0>        -0.2144
     10 C9         -3.8133   -1.9283    0.0323 C.ar      1 <0>         0.1753
     11 C10        -5.1371   -2.3448    0.0457 C.ar      1 <0>        -0.1819
     12 C11        -5.6741   -2.9171    1.1876 C.ar      1 <0>         0.1915
     13 C12        -4.9001   -3.0841    2.3313 C.ar      1 <0>        -0.2030
     14 C13        -3.5799   -2.6737    2.3405 C.ar      1 <0>         0.2179
     15 C14        -3.0336   -2.0875    1.1922 C.ar      1 <0>        -0.2616
     16 C15        -1.6367   -1.6192    1.1574 C.2       1 <0>         0.4330
     17 O2         -0.8325   -1.9156    2.0245 O.2       1 <0>        -0.4372
     18 O3         -2.8202   -2.8370    3.4529 O.3       1 <0>        -0.4757
     19 O4         -6.9707   -3.3190    1.1905 O.3       1 <0>        -0.4879
     20 O5          3.5472    2.1134   -0.0214 O.3       1 <0>        -0.4999
     21 H1         -0.9590    1.9174    0.0260 H         1 <0>         0.1287
     22 H2          1.1551    3.1740    0.0081 H         1 <0>         0.1326
     23 H3          3.3466   -0.4958   -0.0346 H         1 <0>         0.1325
     24 H4          1.2380   -1.7614   -0.0204 H         1 <0>         0.1278
     25 H5         -1.8749   -0.0692   -1.8787 H         1 <0>         0.2021
     26 H6         -5.7497   -2.2223   -0.8352 H         1 <0>         0.1539
     27 H7         -5.3310   -3.5346    3.2132 H         1 <0>         0.1504
     28 H8         -2.3502   -3.6814    3.4877 H         1 <0>         0.4050
     29 H9         -7.0993   -4.2345    0.9070 H         1 <0>         0.4041
     30 H10         3.8936    2.3103    0.8597 H         1 <0>         0.3934
@<TRIPOS>BOND
     1    1    6 ar
     2    1    2 ar
     3    1   21 1
     4    2    3 ar
     5    2   22 1
     6    3    4 ar
     7    3   20 1
     8    4    5 ar
     9    4   23 1
    10    5    6 ar
    11    5   24 1
    12    6    7 1
    13    7   16 1
    14    7    8 2
    15    8    9 1
    16    8   25 1
    17    9   10 1
    18   10   15 ar
    19   10   11 ar
    20   11   12 ar
    21   11   26 1
    22   12   13 ar
    23   12   19 1
    24   13   14 ar
    25   13   27 1
    26   14   15 ar
    27   14   18 1
    28   15   16 1
    29   16   17 2
    30   18   28 1
    31   19   29 1
    32   20   30 1
