@<TRIPOS>MOLECULE
ZINC14978643
   59    61     0     0     0
SMALL
USER_CHARGES
4-[(Z)-4-chloro-1-[4-(2-dimethylaminoethoxy)phenyl]-2-phenyl-but-1-enyl]phenol
@<TRIPOS>ATOM
      1 C1          0.9342    2.7473    9.0640 C.3       1 <0>        -0.0488
      2 C2          3.1714    3.5960    9.4345 C.3       1 <0>        -0.0426
      3 C3          2.7254    2.1392    7.5527 C.3       1 <0>         0.0032
      4 C4          1.7753    1.9162    6.3744 C.3       1 <0>         0.0239
      5 O1          1.7306    3.0956    5.5687 O.3       1 <0>        -0.3295
      6 C5          0.9273    3.0644    4.4735 C.ar      1 <0>         0.1128
      7 C6          0.8382    4.1776    3.6480 C.ar      1 <0>        -0.1378
      8 C7          0.0243    4.1498    2.5358 C.ar      1 <0>        -0.0666
      9 C8         -0.7112    3.0008    2.2401 C.ar      1 <0>        -0.0498
     10 C9         -0.6238    1.8861    3.0758 C.ar      1 <0>        -0.0558
     11 C10         0.1971    1.9194    4.1826 C.ar      1 <0>        -0.1973
     12 C11        -1.5859    2.9667    1.0474 C.2       1 <0>        -0.0397
     13 C12        -1.3088    2.1172    0.0274 C.2       1 <0>        -0.0470
     14 C13        -2.2605    1.9998   -1.1351 C.3       1 <0>        -0.0973
     15 C14        -1.8110    2.9360   -2.2587 C.3       1 <0>        -0.0268
     16 Cl1        -2.8626    2.6902   -3.7025 Cl        1 <0>        -0.1753
     17 C15        -0.0797    1.3105    0.0558 C.ar      1 <0>        -0.0513
     18 C16         1.1715    1.9329   -0.0078 C.ar      1 <0>        -0.0986
     19 C17         2.3192    1.1690    0.0131 C.ar      1 <0>        -0.1177
     20 C18         2.2356   -0.2100    0.0976 C.ar      1 <0>        -0.1151
     21 C19         1.0015   -0.8334    0.1609 C.ar      1 <0>        -0.1168
     22 C20        -0.1555   -0.0838    0.1406 C.ar      1 <0>        -0.1051
     23 C21        -2.7629    3.8595    0.9675 C.ar      1 <0>        -0.0566
     24 C22        -2.5877    5.2379    0.8332 C.ar      1 <0>        -0.0912
     25 C23        -3.6868    6.0660    0.7547 C.ar      1 <0>        -0.1411
     26 C24        -4.9671    5.5317    0.8188 C.ar      1 <0>         0.1138
     27 C25        -5.1454    4.1614    0.9577 C.ar      1 <0>        -0.1403
     28 C26        -4.0513    3.3263    1.0320 C.ar      1 <0>        -0.0890
     29 O2         -6.0479    6.3516    0.7459 O.3       1 <0>        -0.4975
     30 H1          1.1255    1.8567    9.6626 H         1 <0>         0.1256
     31 H2          0.5542    3.5419    9.7062 H         1 <0>         0.1254
     32 H3          0.1963    2.5171    8.2956 H         1 <0>         0.1191
     33 H4          4.0599    3.9827    8.9353 H         1 <0>         0.1228
     34 H5          2.7440    4.3726   10.0688 H         1 <0>         0.1239
     35 H6          3.4437    2.7361   10.0465 H         1 <0>         0.1241
     36 H7          2.8284    1.2122    8.1168 H         1 <0>         0.1502
     37 H8          3.7018    2.4474    7.1788 H         1 <0>         0.1409
     38 H9          0.7763    1.6948    6.7500 H         1 <0>         0.0862
     39 H10         2.1314    1.0792    5.7738 H         1 <0>         0.1082
     40 H11         1.4076    5.0662    3.8774 H         1 <0>         0.1334
     41 H12        -0.0439    5.0156    1.8939 H         1 <0>         0.1340
     42 H13        -1.1950    0.9970    2.8528 H         1 <0>         0.1286
     43 H14         0.2690    1.0557    4.8270 H         1 <0>         0.1269
     44 H15        -2.2653    0.9722   -1.4985 H         1 <0>         0.0891
     45 H16        -3.2644    2.2757   -0.8121 H         1 <0>         0.0936
     46 H17        -1.8901    3.9702   -1.9234 H         1 <0>         0.0927
     47 H18        -0.7760    2.7174   -2.5215 H         1 <0>         0.0930
     48 H19         1.2384    3.0088   -0.0738 H         1 <0>         0.1195
     49 H20         3.2859    1.6479   -0.0366 H         1 <0>         0.1224
     50 H21         3.1382   -0.8028    0.1139 H         1 <0>         0.1220
     51 H22         0.9446   -1.9100    0.2260 H         1 <0>         0.1243
     52 H23        -1.1178   -0.5718    0.1897 H         1 <0>         0.1235
     53 H24        -1.5924    5.6546    0.7874 H         1 <0>         0.1257
     54 H25        -3.5522    7.1322    0.6467 H         1 <0>         0.1322
     55 H26        -6.1426    3.7495    1.0072 H         1 <0>         0.1329
     56 H27        -4.1907    2.2607    1.1397 H         1 <0>         0.1286
     57 H28        -6.3533    6.6771    1.6038 H         1 <0>         0.3936
     58 N1          2.1770    3.2100    8.4113 N.4       1 <0>        -0.3998
     59 H29         1.9632    4.0280    7.8287 H         1 <0>         0.4384
@<TRIPOS>BOND
     1    1   30 1
     2    1   31 1
     3    1   32 1
     4    1   58 1
     5    2   33 1
     6    2   34 1
     7    2   35 1
     8    2   58 1
     9    3    4 1
    10    3   36 1
    11    3   37 1
    12    3   58 1
    13    4    5 1
    14    4   38 1
    15    4   39 1
    16    5    6 1
    17    6   11 ar
    18    6    7 ar
    19    7    8 ar
    20    7   40 1
    21    8    9 ar
    22    8   41 1
    23    9   10 ar
    24    9   12 1
    25   10   11 ar
    26   10   42 1
    27   11   43 1
    28   12   13 2
    29   12   23 1
    30   13   14 1
    31   13   17 1
    32   14   15 1
    33   14   44 1
    34   14   45 1
    35   15   16 1
    36   15   46 1
    37   15   47 1
    38   17   22 ar
    39   17   18 ar
    40   18   19 ar
    41   18   48 1
    42   19   20 ar
    43   19   49 1
    44   20   21 ar
    45   20   50 1
    46   21   22 ar
    47   21   51 1
    48   22   52 1
    49   23   28 ar
    50   23   24 ar
    51   24   25 ar
    52   24   53 1
    53   25   26 ar
    54   25   54 1
    55   26   27 ar
    56   26   29 1
    57   27   28 ar
    58   27   55 1
    59   28   56 1
    60   29   57 1
    61   58   59 1
@<TRIPOS>MOLECULE
ZINC00356680
   44    45     0     0     0
SMALL
USER_CHARGES

@<TRIPOS>ATOM
      1 C1         -0.0187    1.5258    0.0104 C.3       1 <0>        -0.1735
      2 C2          0.0021   -0.0041    0.0020 C.3       1 <0>         0.1155
      3 N1          0.6878   -0.4765   -1.2033 N.pl3     1 <0>        -0.6225
      4 C3          2.1353   -0.7012   -1.1821 C.3       1 <0>         0.1149
      5 C4          2.4212   -2.1448   -0.7635 C.3       1 <0>        -0.1735
      6 C5         -0.0375   -0.7124   -2.3711 C.ar      1 <0>         0.2388
      7 C6         -1.4108   -0.4930   -2.3910 C.ar      1 <0>        -0.2055
      8 C7         -2.1304   -0.7249   -3.5424 C.ar      1 <0>        -0.0365
      9 C8         -1.4787   -1.1808   -4.6918 C.ar      1 <0>        -0.1251
     10 C9         -0.0984   -1.3996   -4.6681 C.ar      1 <0>        -0.0244
     11 C10         0.6153   -1.1610   -3.5145 C.ar      1 <0>        -0.2056
     12 C11        -2.2452   -1.4305   -5.9257 C.2       1 <0>         0.1277
     13 N2         -1.6383   -1.8539   -6.9924 N.2       1 <0>        -0.2427
     14 N3         -2.3669   -2.0913   -8.1652 N.am      1 <0>        -0.5819
     15 C12        -1.7369   -2.5308   -9.2726 C.2       1 <0>         0.5786
     16 O1         -0.5357   -2.7214   -9.2538 O.2       1 <0>        -0.4996
     17 C13        -2.5042   -2.7808  -10.5079 C.ar      1 <0>        -0.1443
     18 C14        -3.8835   -2.5570  -10.5333 C.ar      1 <0>        -0.0692
     19 C15        -4.5960   -2.7916  -11.6881 C.ar      1 <0>        -0.1525
     20 C16        -3.9452   -3.2504  -12.8274 C.ar      1 <0>         0.1379
     21 C17        -2.5735   -3.4743  -12.8063 C.ar      1 <0>        -0.1517
     22 C18        -1.8528   -3.2366  -11.6573 C.ar      1 <0>        -0.0367
     23 O2         -4.6511   -3.4808  -13.9634 O.3       1 <0>        -0.4971
     24 H1          1.0039    1.9031    0.0027 H         1 <0>         0.0564
     25 H2         -0.5459    1.8868   -0.8726 H         1 <0>         0.0596
     26 H3         -0.5289    1.8773    0.9072 H         1 <0>         0.0652
     27 H4          0.5293   -0.3651    0.8851 H         1 <0>         0.0747
     28 H5         -1.0205   -0.3814    0.0098 H         1 <0>         0.0774
     29 H6          2.5453   -0.5232   -2.1762 H         1 <0>         0.0780
     30 H7          2.5986   -0.0180   -0.4703 H         1 <0>         0.0749
     31 H8          3.4982   -2.3119   -0.7477 H         1 <0>         0.0655
     32 H9          2.0113   -2.3228    0.2307 H         1 <0>         0.0561
     33 H10         1.9579   -2.8280   -1.4752 H         1 <0>         0.0599
     34 H11        -1.9137   -0.1408   -1.5025 H         1 <0>         0.1267
     35 H12        -3.1969   -0.5550   -3.5569 H         1 <0>         0.1262
     36 H13         0.4085   -1.7518   -5.5544 H         1 <0>         0.1334
     37 H14         1.6825   -1.3259   -3.4966 H         1 <0>         0.1259
     38 H15        -3.3117   -1.2613   -5.9424 H         1 <0>         0.1159
     39 H16        -3.3248   -1.9393   -8.1803 H         1 <0>         0.3832
     40 H17        -4.3900   -2.2009   -9.6484 H         1 <0>         0.1290
     41 H18        -5.6619   -2.6193  -11.7085 H         1 <0>         0.1380
     42 H19        -2.0717   -3.8311  -13.6936 H         1 <0>         0.1402
     43 H20        -0.7864   -3.4065  -11.6430 H         1 <0>         0.1446
     44 H21        -4.7159   -2.7137  -14.5486 H         1 <0>         0.3980
@<TRIPOS>BOND
     1    1    2 1
     2    1   24 1
     3    1   25 1
     4    1   26 1
     5    2    3 1
     6    2   27 1
     7    2   28 1
     8    3    4 1
     9    3    6 1
    10    4    5 1
    11    4   29 1
    12    4   30 1
    13    5   31 1
    14    5   32 1
    15    5   33 1
    16    6   11 ar
    17    6    7 ar
    18    7    8 ar
    19    7   34 1
    20    8    9 ar
    21    8   35 1
    22    9   10 ar
    23    9   12 1
    24   10   11 ar
    25   10   36 1
    26   11   37 1
    27   12   13 2
    28   12   38 1
    29   13   14 1
    30   14   15 am
    31   14   39 1
    32   15   16 2
    33   15   17 1
    34   17   22 ar
    35   17   18 ar
    36   18   19 ar
    37   18   40 1
    38   19   20 ar
    39   19   41 1
    40   20   21 ar
    41   20   23 1
    42   21   22 ar
    43   21   42 1
    44   22   43 1
    45   23   44 1
@<TRIPOS>MOLECULE
ZINC00175335
   39    40     0     0     0
SMALL
USER_CHARGES
4-hydroxy-N-[(4-isopropylphenyl)methyleneamino]benzamide
@<TRIPOS>ATOM
      1 C1          1.4227    1.6154   -0.0028 C.3       1 <0>        -0.1460
      2 C2         -0.0127    1.0858    0.0080 C.3       1 <0>        -0.0609
      3 C3         -0.7527    1.5927   -1.2315 C.3       1 <0>        -0.1459
      4 C4         -0.7181    1.5718    1.2479 C.ar      1 <0>        -0.0570
      5 C5         -0.8540    2.9300    1.4750 C.ar      1 <0>        -0.1203
      6 C6         -1.5034    3.3820    2.6049 C.ar      1 <0>        -0.0738
      7 C7         -2.0144    2.4650    3.5266 C.ar      1 <0>        -0.0648
      8 C8         -1.8685    1.0954    3.2935 C.ar      1 <0>        -0.0850
      9 C9         -1.2217    0.6578    2.1565 C.ar      1 <0>        -0.1236
     10 C10        -2.7051    2.9406    4.7397 C.2       1 <0>         0.1140
     11 N1         -2.8390    4.2137    4.9532 N.2       1 <0>        -0.2281
     12 N2         -3.4952    4.6655    6.1056 N.am      1 <0>        -0.5814
     13 C11        -3.6342    5.9876    6.3273 C.2       1 <0>         0.5795
     14 O1         -3.1901    6.7884    5.5270 O.2       1 <0>        -0.4967
     15 C12        -4.3253    6.4634    7.5411 C.ar      1 <0>        -0.1457
     16 C13        -4.8415    5.5448    8.4591 C.ar      1 <0>        -0.0688
     17 C14        -5.4819    5.9930    9.5927 C.ar      1 <0>        -0.1524
     18 C15        -5.6242    7.3570    9.8195 C.ar      1 <0>         0.1394
     19 C16        -5.1165    8.2739    8.9065 C.ar      1 <0>        -0.1516
     20 C17        -4.4705    7.8340    7.7728 C.ar      1 <0>        -0.0357
     21 O2         -6.2603    7.7946   10.9357 O.3       1 <0>        -0.4968
     22 H1          1.9499    1.2543    0.8802 H         1 <0>         0.0567
     23 H2          1.9329    1.2639   -0.8996 H         1 <0>         0.0597
     24 H3          1.4079    2.7053    0.0031 H         1 <0>         0.0580
     25 H4          0.0021   -0.0041    0.0020 H         1 <0>         0.0793
     26 H5         -0.2425    1.2411   -2.1283 H         1 <0>         0.0597
     27 H6         -1.7753    1.2154   -1.2238 H         1 <0>         0.0566
     28 H7         -0.7675    2.6825   -1.2255 H         1 <0>         0.0580
     29 H8         -0.4546    3.6378    0.7638 H         1 <0>         0.1259
     30 H9         -1.6127    4.4423    2.7788 H         1 <0>         0.1348
     31 H10        -2.2608    0.3809    4.0020 H         1 <0>         0.1282
     32 H11        -1.1084   -0.4008    1.9748 H         1 <0>         0.1268
     33 H12        -3.0995    2.2294    5.4504 H         1 <0>         0.1209
     34 H13        -3.8494    4.0268    6.7439 H         1 <0>         0.3854
     35 H14        -4.7349    4.4848    8.2816 H         1 <0>         0.1289
     36 H15        -5.8774    5.2838   10.3047 H         1 <0>         0.1385
     37 H16        -5.2292    9.3329    9.0864 H         1 <0>         0.1408
     38 H17        -4.0764    8.5471    7.0640 H         1 <0>         0.1449
     39 H18        -7.2134    7.9139   10.8240 H         1 <0>         0.3985
@<TRIPOS>BOND
     1    1    2 1
     2    1   22 1
     3    1   23 1
     4    1   24 1
     5    2    3 1
     6    2    4 1
     7    2   25 1
     8    3   26 1
     9    3   27 1
    10    3   28 1
    11    4    9 ar
    12    4    5 ar
    13    5    6 ar
    14    5   29 1
    15    6    7 ar
    16    6   30 1
    17    7    8 ar
    18    7   10 1
    19    8    9 ar
    20    8   31 1
    21    9   32 1
    22   10   11 2
    23   10   33 1
    24   11   12 1
    25   12   13 am
    26   12   34 1
    27   13   14 2
    28   13   15 1
    29   15   20 ar
    30   15   16 ar
    31   16   17 ar
    32   16   35 1
    33   17   18 ar
    34   17   36 1
    35   18   19 ar
    36   18   21 1
    37   19   20 ar
    38   19   37 1
    39   20   38 1
    40   21   39 1
@<TRIPOS>MOLECULE
ZINC00902197
   59    61     0     0     0
SMALL
USER_CHARGES

@<TRIPOS>ATOM
      1 C1          0.8254   -1.1911    0.5458 C.3       1 <0>        -0.1467
      2 C2          0.0049   -0.0175    0.0070 C.3       1 <0>        -0.0930
      3 C3         -1.4365   -0.4345   -0.1329 C.2       1 <0>        -0.0412
      4 C4         -1.8945   -0.9031   -1.3201 C.2       1 <0>        -0.0542
      5 C5         -1.0207   -0.8745   -2.5135 C.ar      1 <0>        -0.0505
      6 C6         -0.5927    0.3462   -3.0382 C.ar      1 <0>        -0.0904
      7 C7          0.2219    0.3688   -4.1500 C.ar      1 <0>        -0.1432
      8 C8          0.6163   -0.8208   -4.7483 C.ar      1 <0>         0.1114
      9 C9          0.1922   -2.0372   -4.2295 C.ar      1 <0>        -0.1430
     10 C10        -0.6173   -2.0682   -3.1143 C.ar      1 <0>        -0.0865
     11 O1          1.4188   -0.7945   -5.8442 O.3       1 <0>        -0.4998
     12 C11        -3.2681   -1.4431   -1.4219 C.ar      1 <0>        -0.0476
     13 C12        -3.6201   -2.5973   -0.7200 C.ar      1 <0>        -0.0585
     14 C13        -4.9009   -3.0973   -0.8174 C.ar      1 <0>        -0.1372
     15 C14        -5.8406   -2.4544   -1.6126 C.ar      1 <0>         0.1115
     16 C15        -5.4943   -1.3060   -2.3124 C.ar      1 <0>        -0.1995
     17 C16        -4.2171   -0.7965   -2.2156 C.ar      1 <0>        -0.0636
     18 O2         -7.1019   -2.9506   -1.7064 O.3       1 <0>        -0.3290
     19 C17        -8.0181   -2.2400   -2.5417 C.3       1 <0>         0.0246
     20 C18        -9.3768   -2.9431   -2.5220 C.3       1 <0>        -0.0017
     21 N1         -9.9465   -2.8699   -1.1700 N.4       1 <0>        -0.3886
     22 C19       -10.2293   -1.4683   -0.8330 C.3       1 <0>        -0.0545
     23 C20       -11.1926   -3.6463   -1.1210 C.3       1 <0>        -0.0476
     24 C21        -2.3462   -0.3332    1.0179 C.ar      1 <0>        -0.0458
     25 C22        -3.4325    0.5475    0.9802 C.ar      1 <0>        -0.1002
     26 C23        -4.2808    0.6367    2.0634 C.ar      1 <0>        -0.1203
     27 C24        -4.0597   -0.1419    3.1862 C.ar      1 <0>        -0.1181
     28 C25        -2.9870   -1.0154    3.2316 C.ar      1 <0>        -0.1170
     29 C26        -2.1333   -1.1212    2.1541 C.ar      1 <0>        -0.1062
     30 H1          1.8836   -0.9299    0.5351 H         1 <0>         0.0624
     31 H2          0.5160   -1.4121    1.5673 H         1 <0>         0.0568
     32 H3          0.6611   -2.0675   -0.0812 H         1 <0>         0.0566
     33 H4          0.0747    0.8224    0.6983 H         1 <0>         0.0736
     34 H5          0.3931    0.2804   -0.9670 H         1 <0>         0.0821
     35 H6         -0.8996    1.2717   -2.5739 H         1 <0>         0.1277
     36 H7          0.5534    1.3128   -4.5565 H         1 <0>         0.1319
     37 H8          0.5005   -2.9602   -4.6979 H         1 <0>         0.1307
     38 H9         -0.9431   -3.0147   -2.7087 H         1 <0>         0.1250
     39 H10         2.3639   -0.8127   -5.6402 H         1 <0>         0.3948
     40 H11        -2.8897   -3.0979   -0.1017 H         1 <0>         0.1325
     41 H12        -5.1738   -3.9904   -0.2749 H         1 <0>         0.1321
     42 H13        -6.2278   -0.8088   -2.9298 H         1 <0>         0.1265
     43 H14        -3.9499    0.0993   -2.7563 H         1 <0>         0.1290
     44 H15        -8.1310   -1.2207   -2.1723 H         1 <0>         0.0864
     45 H16        -7.6360   -2.2163   -3.5623 H         1 <0>         0.1085
     46 H17       -10.0493   -2.4539   -3.2267 H         1 <0>         0.1492
     47 H18        -9.2496   -3.9876   -2.8066 H         1 <0>         0.1425
     48 H19       -10.9410   -1.0587   -1.5499 H         1 <0>         0.1246
     49 H20       -10.6520   -1.4139    0.1702 H         1 <0>         0.1273
     50 H21        -9.3047   -0.8922   -0.8694 H         1 <0>         0.1214
     51 H22       -10.9828   -4.6863   -1.3710 H         1 <0>         0.1248
     52 H23       -11.6153   -3.5919   -0.1177 H         1 <0>         0.1258
     53 H24       -11.9043   -3.2367   -1.8378 H         1 <0>         0.1231
     54 H25        -3.6059    1.1562    0.1051 H         1 <0>         0.1183
     55 H26        -5.1199    1.3161    2.0359 H         1 <0>         0.1196
     56 H27        -4.7277   -0.0673    4.0316 H         1 <0>         0.1206
     57 H28        -2.8211   -1.6193    4.1115 H         1 <0>         0.1239
     58 H29        -1.2997   -1.8070    2.1889 H         1 <0>         0.1249
     59 H30        -9.2877   -3.2489   -0.5064 H         1 <0>         0.4339
@<TRIPOS>BOND
     1    1    2 1
     2    1   30 1
     3    1   31 1
     4    1   32 1
     5    2    3 1
     6    2   33 1
     7    2   34 1
     8    3    4 2
     9    3   24 1
    10    4    5 1
    11    4   12 1
    12    5   10 ar
    13    5    6 ar
    14    6    7 ar
    15    6   35 1
    16    7    8 ar
    17    7   36 1
    18    8    9 ar
    19    8   11 1
    20    9   10 ar
    21    9   37 1
    22   10   38 1
    23   11   39 1
    24   12   17 ar
    25   12   13 ar
    26   13   14 ar
    27   13   40 1
    28   14   15 ar
    29   14   41 1
    30   15   16 ar
    31   15   18 1
    32   16   17 ar
    33   16   42 1
    34   17   43 1
    35   18   19 1
    36   19   20 1
    37   19   44 1
    38   19   45 1
    39   20   21 1
    40   20   46 1
    41   20   47 1
    42   21   22 1
    43   21   23 1
    44   21   59 1
    45   22   48 1
    46   22   49 1
    47   22   50 1
    48   23   51 1
    49   23   52 1
    50   23   53 1
    51   24   29 ar
    52   24   25 ar
    53   25   26 ar
    54   25   54 1
    55   26   27 ar
    56   26   55 1
    57   27   28 ar
    58   27   56 1
    59   28   29 ar
    60   28   57 1
    61   29   58 1
