@<TRIPOS>MOLECULE
ZINC00537882
   63    67     0     0     0
SMALL
USER_CHARGES
6-phenyl-5-[4-(2-pyrrolidin-1-ylethoxy)phenyl]-tetralin-2-ol
@<TRIPOS>ATOM
      1 C1         -0.8276    2.4185    3.7318 C.ar      1 <0>        -0.1212
      2 C2         -1.3407    1.2408    3.2213 C.ar      1 <0>        -0.1176
      3 C3         -0.9722    0.8164    1.9584 C.ar      1 <0>        -0.1136
      4 C4         -0.0910    1.5700    1.2057 C.ar      1 <0>        -0.0763
      5 C5          0.4262    2.7450    1.7183 C.ar      1 <0>        -0.1041
      6 C6          0.0543    3.1717    2.9795 C.ar      1 <0>        -0.1219
      7 C7          0.3107    1.1074   -0.1711 C.3       1 <0>        -0.0404
      8 H1          0.1161    0.0395   -0.2709 H         1 <0>         0.0902
      9 C8          1.8024    1.3836   -0.3941 C.3       1 <0>        -0.1217
     10 C9          2.2323    0.6922   -1.6863 C.3       1 <0>        -0.0863
     11 C10         1.3033    1.0543   -2.8155 C.ar      1 <0>        -0.0538
     12 C11         1.7439    0.8258   -4.1121 C.ar      1 <0>        -0.1472
     13 C12         0.9356    1.1324   -5.1932 C.ar      1 <0>         0.1119
     14 C13        -0.3245    1.6719   -4.9771 C.ar      1 <0>        -0.1475
     15 C14        -0.7586    1.8990   -3.6888 C.ar      1 <0>        -0.0934
     16 C15         0.0539    1.5933   -2.6038 C.ar      1 <0>        -0.0841
     17 C16        -0.4838    1.8758   -1.2251 C.3       1 <0>         0.0043
     18 H2         -1.5298    1.5728   -1.1784 H         1 <0>         0.0918
     19 C17        -0.3823    3.3530   -0.9448 C.ar      1 <0>        -0.0794
     20 C18        -1.4155    4.0054   -0.2978 C.ar      1 <0>        -0.0629
     21 C19        -1.3224    5.3583   -0.0347 C.ar      1 <0>        -0.1967
     22 C20        -0.1956    6.0647   -0.4298 C.ar      1 <0>         0.1089
     23 C21         0.8373    5.4089   -1.0838 C.ar      1 <0>        -0.1416
     24 C22         0.7416    4.0548   -1.3400 C.ar      1 <0>        -0.0724
     25 O1         -0.1040    7.3968   -0.1770 O.3       1 <0>        -0.3279
     26 C23        -1.2052    8.0059    0.5001 C.3       1 <0>         0.0274
     27 C24        -0.9227    9.4969    0.6947 C.3       1 <0>         0.0089
     28 C25        -2.0694    9.8601   -1.4222 C.3       1 <0>        -0.0116
     29 C26        -2.0864   11.0006   -2.4709 C.3       1 <0>        -0.1463
     30 C27        -1.5945   12.2221   -1.6611 C.3       1 <0>        -0.1466
     31 C28        -0.8255   11.6292   -0.4658 C.3       1 <0>        -0.0106
     32 O2          1.3740    0.9068   -6.4596 O.3       1 <0>        -0.4980
     33 H3         -1.1161    2.7505    4.7182 H         1 <0>         0.1191
     34 H4         -2.0297    0.6524    3.8090 H         1 <0>         0.1221
     35 H5         -1.3731   -0.1037    1.5595 H         1 <0>         0.1218
     36 H6          1.1180    3.3315    1.1320 H         1 <0>         0.1180
     37 H7          0.4549    4.0920    3.3782 H         1 <0>         0.1149
     38 H8          1.9681    2.4575   -0.4796 H         1 <0>         0.0755
     39 H9          2.3780    0.9889    0.4432 H         1 <0>         0.0756
     40 H10         3.2455    1.0036   -1.9405 H         1 <0>         0.0805
     41 H11         2.2152   -0.3876   -1.5390 H         1 <0>         0.0837
     42 H12         2.7247    0.4054   -4.2785 H         1 <0>         0.1297
     43 H13        -0.9624    1.9125   -5.8147 H         1 <0>         0.1289
     44 H14        -1.7394    2.3189   -3.5211 H         1 <0>         0.1232
     45 H15        -2.2944    3.4559    0.0057 H         1 <0>         0.1264
     46 H16        -2.1280    5.8666    0.4743 H         1 <0>         0.1243
     47 H17         1.7153    5.9567   -1.3927 H         1 <0>         0.1300
     48 H18         1.5454    3.5439   -1.8491 H         1 <0>         0.1359
     49 H19        -2.1106    7.8821   -0.0941 H         1 <0>         0.0853
     50 H20        -1.3410    7.5319    1.4723 H         1 <0>         0.1073
     51 H21        -1.7205    9.9434    1.2882 H         1 <0>         0.1460
     52 H22         0.0286    9.6220    1.2119 H         1 <0>         0.1419
     53 H23        -1.9774    8.8899   -1.9104 H         1 <0>         0.1355
     54 H24        -2.9641    9.8958   -0.8006 H         1 <0>         0.1333
     55 H25        -3.0970   11.1667   -2.8438 H         1 <0>         0.1160
     56 H26        -1.4027   10.7807   -3.2909 H         1 <0>         0.0983
     57 H27        -2.4427   12.8104   -1.3109 H         1 <0>         0.1035
     58 H28        -0.9317   12.8374   -2.2696 H         1 <0>         0.1051
     59 H29        -1.3092   11.9183    0.4672 H         1 <0>         0.1310
     60 H30         0.2064   11.9802   -0.4733 H         1 <0>         0.1339
     61 H31         1.8448    1.6548   -6.8519 H         1 <0>         0.3921
     62 N1         -0.8673   10.1759   -0.6348 N.4       1 <0>        -0.3956
     63 H32        -0.0299    9.8613   -1.1388 H         1 <0>         0.4364
@<TRIPOS>BOND
     1    1    6 ar
     2    1    2 ar
     3    1   33 1
     4    2    3 ar
     5    2   34 1
     6    3    4 ar
     7    3   35 1
     8    4    5 ar
     9    4    7 1
    10    5    6 ar
    11    5   36 1
    12    6   37 1
    13    7    8 1
    14    7   17 1
    15    7    9 1
    16    9   10 1
    17    9   38 1
    18    9   39 1
    19   10   11 1
    20   10   40 1
    21   10   41 1
    22   11   16 ar
    23   11   12 ar
    24   12   13 ar
    25   12   42 1
    26   13   14 ar
    27   13   32 1
    28   14   15 ar
    29   14   43 1
    30   15   16 ar
    31   15   44 1
    32   16   17 1
    33   17   18 1
    34   17   19 1
    35   19   24 ar
    36   19   20 ar
    37   20   21 ar
    38   20   45 1
    39   21   22 ar
    40   21   46 1
    41   22   23 ar
    42   22   25 1
    43   23   24 ar
    44   23   47 1
    45   24   48 1
    46   25   26 1
    47   26   27 1
    48   26   49 1
    49   26   50 1
    50   27   51 1
    51   27   52 1
    52   27   62 1
    53   28   29 1
    54   28   53 1
    55   28   54 1
    56   28   62 1
    57   29   30 1
    58   29   55 1
    59   29   56 1
    60   30   31 1
    61   30   57 1
    62   30   58 1
    63   31   59 1
    64   31   60 1
    65   31   62 1
    66   32   61 1
    67   62   63 1
@<TRIPOS>MOLECULE
ZINC04428529
   53    56     0     0     0
SMALL
USER_CHARGES

@<TRIPOS>ATOM
      1 C1          0.4282    0.7651    1.2384 C.3       1 <0>        -0.2080
      2 C2          0.0050   -0.0027    0.0127 C.2       1 <0>         0.3647
      3 O1          0.7040   -0.0010   -0.9721 O.2       1 <0>        -0.4542
      4 C3         -1.2905   -0.7727    0.0158 C.3       1 <0>        -0.1325
      5 H1         -2.0415   -0.2446    0.6034 H         1 <0>         0.0972
      6 C4         -1.7935   -0.9827   -1.4341 C.3       1 <0>        -0.1186
      7 C5         -1.9305   -2.5169   -1.6323 C.3       1 <0>        -0.1151
      8 C6         -2.1068   -3.0336   -0.2000 C.3       1 <0>        -0.0796
      9 H2         -3.1156   -2.8264    0.1569 H         1 <0>         0.0777
     10 C7         -1.0708   -2.1742    0.5759 C.3       1 <0>        -0.0487
     11 C8         -1.3489   -2.3630    2.0549 C.3       1 <0>        -0.1047
     12 C9         -1.0643   -3.8367    2.3850 C.3       1 <0>        -0.1222
     13 C10        -1.9046   -4.7802    1.5293 C.3       1 <0>        -0.0680
     14 H3         -2.9551   -4.6575    1.7928 H         1 <0>         0.0704
     15 C11        -1.7585   -4.4942    0.0214 C.3       1 <0>        -0.0776
     16 H4         -0.7305   -4.6831   -0.2877 H         1 <0>         0.0863
     17 C12        -2.7266   -5.3822   -0.7660 C.3       1 <0>        -0.1118
     18 C13        -2.3186   -6.8466   -0.5915 C.3       1 <0>        -0.0977
     19 C14        -2.2642   -7.1658    0.8913 C.2       1 <0>        -0.0206
     20 C15        -2.8820   -8.2703    1.3099 C.2       1 <0>        -0.2434
     21 H5         -3.4070   -8.8958    0.6032 H         1 <0>         0.1337
     22 C16        -2.8495   -8.6362    2.7300 C.2       1 <0>         0.3882
     23 O2         -3.6756   -9.3796    3.2168 O.2       1 <0>        -0.4580
     24 C17        -1.7290   -8.0371    3.5574 C.3       1 <0>        -0.1668
     25 H6         -1.9153   -8.2141    4.6167 H         1 <0>         0.0925
     26 H7         -0.7768   -8.4825    3.2693 H         1 <0>         0.0997
     27 C18        -1.7074   -6.5351    3.2776 C.3       1 <0>        -0.1069
     28 C19        -1.4839   -6.2270    1.8163 C.3       1 <0>        -0.0241
     29 C20         0.0121   -6.3503    1.5204 C.3       1 <0>        -0.1492
     30 C21         0.3461   -2.6481    0.2465 C.3       1 <0>        -0.1572
     31 H8          1.3837    1.2542    1.0489 H         1 <0>         0.0809
     32 H9         -0.3247    1.5173    1.4738 H         1 <0>         0.0918
     33 H10         0.5316    0.0791    2.0791 H         1 <0>         0.0918
     34 H11        -2.7617   -0.5002   -1.5678 H         1 <0>         0.0675
     35 H12        -1.0717   -0.5769   -2.1430 H         1 <0>         0.0790
     36 H13        -2.8065   -2.7509   -2.2372 H         1 <0>         0.0676
     37 H14        -1.0279   -2.9297   -2.0829 H         1 <0>         0.0698
     38 H15        -0.6944   -1.7180    2.6411 H         1 <0>         0.0661
     39 H16        -2.3917   -2.1291    2.2695 H         1 <0>         0.0682
     40 H17        -0.0085   -4.0427    2.2091 H         1 <0>         0.0749
     41 H18        -1.2894   -4.0152    3.4365 H         1 <0>         0.0667
     42 H19        -3.7398   -5.2390   -0.3905 H         1 <0>         0.0659
     43 H20        -2.6874   -5.1165   -1.8224 H         1 <0>         0.0725
     44 H21        -3.0518   -7.4905   -1.0771 H         1 <0>         0.0771
     45 H22        -1.3365   -7.0077   -1.0361 H         1 <0>         0.0840
     46 H23        -2.6504   -6.0986    3.6068 H         1 <0>         0.0701
     47 H24        -0.8915   -6.0806    3.8396 H         1 <0>         0.0811
     48 H25         0.5667   -5.6628    2.1591 H         1 <0>         0.0702
     49 H26         0.3383   -7.3717    1.7166 H         1 <0>         0.0587
     50 H27         0.1972   -6.1043    0.4748 H         1 <0>         0.0638
     51 H28         1.0689   -2.0310    0.7800 H         1 <0>         0.0510
     52 H29         0.4614   -3.6883    0.5512 H         1 <0>         0.0714
     53 H30         0.5175   -2.5628   -0.8266 H         1 <0>         0.0644
@<TRIPOS>BOND
     1    1    2 1
     2    1   31 1
     3    1   32 1
     4    1   33 1
     5    2    3 2
     6    2    4 1
     7    4    5 1
     8    4   10 1
     9    4    6 1
    10    6    7 1
    11    6   34 1
    12    6   35 1
    13    7    8 1
    14    7   36 1
    15    7   37 1
    16    8    9 1
    17    8   15 1
    18    8   10 1
    19   10   11 1
    20   10   30 1
    21   11   12 1
    22   11   38 1
    23   11   39 1
    24   12   13 1
    25   12   40 1
    26   12   41 1
    27   13   14 1
    28   13   28 1
    29   13   15 1
    30   15   16 1
    31   15   17 1
    32   17   18 1
    33   17   42 1
    34   17   43 1
    35   18   19 1
    36   18   44 1
    37   18   45 1
    38   19   28 1
    39   19   20 2
    40   20   21 1
    41   20   22 1
    42   22   23 2
    43   22   24 1
    44   24   25 1
    45   24   26 1
    46   24   27 1
    47   27   28 1
    48   27   46 1
    49   27   47 1
    50   28   29 1
    51   29   48 1
    52   29   49 1
    53   29   50 1
    54   30   51 1
    55   30   52 1
    56   30   53 1
@<TRIPOS>MOLECULE
ZINC00538275
   62    66     0     0     0
SMALL
USER_CHARGES

@<TRIPOS>ATOM
      1 C1         -1.0560   -3.6471   -2.9834 C.ar      1 <0>        -0.0731
      2 C2         -0.5292   -3.8209   -4.2441 C.ar      1 <0>        -0.1418
      3 C3         -0.2617   -2.7179   -5.0458 C.ar      1 <0>         0.1273
      4 C4         -0.5240   -1.4352   -4.5802 C.ar      1 <0>        -0.1436
      5 C5         -1.0507   -1.2517   -3.3208 C.ar      1 <0>        -0.0726
      6 C6         -1.3215   -2.3585   -2.5107 C.ar      1 <0>        -0.0443
      7 C7         -1.8857   -2.1673   -1.1621 C.2       1 <0>        -0.0491
      8 C8         -1.4781   -2.7470    0.0324 C.2       1 <0>        -0.1672
      9 C9         -2.2084   -2.3914    1.2518 C.ar      1 <0>        -0.0733
     10 C10        -1.9811   -2.8478    2.5699 C.ar      1 <0>        -0.0620
     11 C11        -2.7636   -2.4131    3.6070 C.ar      1 <0>        -0.1362
     12 C12        -3.8034   -1.5118    3.3971 C.ar      1 <0>         0.1376
     13 C13        -4.0502   -1.0462    2.1156 C.ar      1 <0>        -0.0999
     14 C14        -3.2654   -1.4805    1.0680 C.ar      1 <0>        -0.1027
     15 S1         -3.2496   -1.1310   -0.6716 S.3       1 <0>         0.0989
     16 O1         -4.5695   -1.0928    4.4389 O.3       1 <0>        -0.4890
     17 C15        -0.3552   -3.6836    0.0717 C.2       1 <0>         0.4632
     18 O2         -0.5599   -4.8828    0.0108 O.2       1 <0>        -0.4303
     19 C16         1.0269   -3.1752    0.1852 C.ar      1 <0>        -0.1819
     20 C17         1.2584   -1.8082    0.3588 C.ar      1 <0>        -0.0197
     21 C18         2.5485   -1.3381    0.4641 C.ar      1 <0>        -0.1529
     22 C19         3.6196   -2.2215    0.3980 C.ar      1 <0>         0.1478
     23 C20         3.3936   -3.5820    0.2249 C.ar      1 <0>        -0.2153
     24 C21         2.1062   -4.0607    0.1249 C.ar      1 <0>        -0.0165
     25 O3          4.8897   -1.7543    0.5022 O.3       1 <0>        -0.3241
     26 C22         5.9433   -2.7167    0.4259 C.3       1 <0>         0.0227
     27 C23         7.2923   -2.0079    0.5623 C.3       1 <0>        -0.0010
     28 N1          7.3928   -1.3985    1.8951 N.4       1 <0>        -0.3845
     29 C24         8.6181   -0.5941    1.9726 C.3       1 <0>        -0.0072
     30 C25         8.6868    0.1080    3.3305 C.3       1 <0>        -0.1466
     31 C26         8.6938   -0.9442    4.4432 C.3       1 <0>        -0.1392
     32 C27         7.4482   -1.8247    4.3075 C.3       1 <0>        -0.1453
     33 C28         7.4253   -2.4551    2.9134 C.3       1 <0>        -0.0137
     34 O4          0.2580   -2.8940   -6.2879 O.3       1 <0>        -0.4983
     35 H1         -1.2677   -4.5052   -2.3627 H         1 <0>         0.1336
     36 H2         -0.3235   -4.8160   -4.6100 H         1 <0>         0.1374
     37 H3         -0.3141   -0.5808   -5.2066 H         1 <0>         0.1382
     38 H4         -1.2542   -0.2544   -2.9597 H         1 <0>         0.1348
     39 H5         -1.1813   -3.5477    2.7618 H         1 <0>         0.1270
     40 H6         -2.5705   -2.7766    4.6055 H         1 <0>         0.1391
     41 H7         -4.8538   -0.3469    1.9378 H         1 <0>         0.1433
     42 H8         -4.2357   -0.2987    4.8782 H         1 <0>         0.3978
     43 H9          0.4267   -1.1211    0.4099 H         1 <0>         0.1415
     44 H10         2.7283   -0.2816    0.5980 H         1 <0>         0.1408
     45 H11         4.2285   -4.2651    0.1733 H         1 <0>         0.1355
     46 H12         1.9312   -5.1186   -0.0043 H         1 <0>         0.1432
     47 H13         5.8313   -3.4427    1.2312 H         1 <0>         0.0893
     48 H14         5.8979   -3.2297   -0.5348 H         1 <0>         0.1127
     49 H15         8.0975   -2.7309    0.4318 H         1 <0>         0.1504
     50 H16         7.3737   -1.2321   -0.1990 H         1 <0>         0.1436
     51 H17         9.4861   -1.2428    1.8552 H         1 <0>         0.1295
     52 H18         8.6132    0.1521    1.1781 H         1 <0>         0.1314
     53 H19         9.5982    0.7032    3.3868 H         1 <0>         0.1133
     54 H20         7.8194    0.7572    3.4489 H         1 <0>         0.0880
     55 H21         9.5878   -1.5615    4.3556 H         1 <0>         0.0823
     56 H22         8.6856   -0.4483    5.4139 H         1 <0>         0.0949
     57 H23         7.4742   -2.6108    5.0621 H         1 <0>         0.1125
     58 H24         6.5550   -1.2155    4.4462 H         1 <0>         0.0878
     59 H25         6.5398   -3.0828    2.8135 H         1 <0>         0.1272
     60 H26         8.3188   -3.0642    2.7759 H         1 <0>         0.1308
     61 H27        -0.4076   -2.9906   -6.9827 H         1 <0>         0.3988
     62 H28         6.5925   -0.8047    2.0535 H         1 <0>         0.4291
@<TRIPOS>BOND
     1    1    6 ar
     2    1    2 ar
     3    1   35 1
     4    2    3 ar
     5    2   36 1
     6    3    4 ar
     7    3   34 1
     8    4    5 ar
     9    4   37 1
    10    5    6 ar
    11    5   38 1
    12    6    7 1
    13    7   15 1
    14    7    8 2
    15    8    9 1
    16    8   17 1
    17    9   14 ar
    18    9   10 ar
    19   10   11 ar
    20   10   39 1
    21   11   12 ar
    22   11   40 1
    23   12   13 ar
    24   12   16 1
    25   13   14 ar
    26   13   41 1
    27   14   15 1
    28   16   42 1
    29   17   18 2
    30   17   19 1
    31   19   24 ar
    32   19   20 ar
    33   20   21 ar
    34   20   43 1
    35   21   22 ar
    36   21   44 1
    37   22   23 ar
    38   22   25 1
    39   23   24 ar
    40   23   45 1
    41   24   46 1
    42   25   26 1
    43   26   27 1
    44   26   47 1
    45   26   48 1
    46   27   28 1
    47   27   49 1
    48   27   50 1
    49   28   33 1
    50   28   29 1
    51   28   62 1
    52   29   30 1
    53   29   51 1
    54   29   52 1
    55   30   31 1
    56   30   53 1
    57   30   54 1
    58   31   32 1
    59   31   55 1
    60   31   56 1
    61   32   33 1
    62   32   57 1
    63   32   58 1
    64   33   59 1
    65   33   60 1
    66   34   61 1
@<TRIPOS>MOLECULE
ZINC13520815
   44    47     0     0     0
SMALL
USER_CHARGES

@<TRIPOS>ATOM
      1 C1         -0.0187    1.5258    0.0104 C.3       1 <0>        -0.1354
      2 C2          0.0021   -0.0041    0.0020 C.3       1 <0>        -0.0564
      3 C3         -1.4142   -0.5425    0.0489 C.3       1 <0>        -0.1016
      4 C4         -2.0973    0.0441    1.2987 C.3       1 <0>        -0.1130
      5 C5         -1.3125   -0.3073    2.5542 C.3       1 <0>        -0.0424
      6 H1         -1.3075   -1.3927    2.6533 H         1 <0>         0.0765
      7 C6         -1.9424    0.2651    3.7900 C.ar      1 <0>        -0.0773
      8 C7         -3.3273    0.3484    3.8443 C.ar      1 <0>        -0.1030
      9 C8         -3.9576    0.8569    4.9598 C.ar      1 <0>        -0.1472
     10 C9         -3.2003    1.2884    6.0396 C.ar      1 <0>         0.1024
     11 C10        -1.8198    1.2087    5.9840 C.ar      1 <0>        -0.1480
     12 C11        -1.1856    0.7013    4.8579 C.ar      1 <0>        -0.0577
     13 C12         0.3200    0.6669    4.8604 C.3       1 <0>        -0.0825
     14 C13         0.8561   -0.2331    3.7476 C.3       1 <0>        -0.1135
     15 C14         0.1446    0.1628    2.4542 C.3       1 <0>        -0.0739
     16 H2          0.1741    1.2443    2.3212 H         1 <0>         0.0865
     17 C15         0.7512   -0.5345    1.2564 C.3       1 <0>        -0.0835
     18 H3          0.6224   -1.6140    1.3350 H         1 <0>         0.0754
     19 C16         2.2091   -0.2046    0.9567 C.3       1 <0>        -0.1120
     20 C17         2.3296   -0.2454   -0.5872 C.3       1 <0>        -0.1564
     21 C18         0.8992   -0.5108   -1.1319 C.3       1 <0>         0.1090
     22 H4          0.7424   -1.5760   -1.3012 H         1 <0>         0.0609
     23 O1          0.6684    0.2327   -2.3302 O.3       1 <0>        -0.5588
     24 O2         -3.8114    1.7874    7.1461 O.3       1 <0>        -0.5003
     25 H5          1.0039    1.9031    0.0027 H         1 <0>         0.0539
     26 H6         -0.5459    1.8868   -0.8726 H         1 <0>         0.0599
     27 H7         -0.5289    1.8773    0.9072 H         1 <0>         0.0606
     28 H8         -1.9557   -0.2363   -0.8462 H         1 <0>         0.0693
     29 H9         -1.3938   -1.6303    0.1152 H         1 <0>         0.0628
     30 H10        -2.1534    1.1283    1.2019 H         1 <0>         0.0698
     31 H11        -3.1059   -0.3612    1.3804 H         1 <0>         0.0659
     32 H12        -3.9166    0.0119    3.0041 H         1 <0>         0.1276
     33 H13        -5.0353    0.9194    4.9932 H         1 <0>         0.1275
     34 H14        -1.2303    1.5447    6.8243 H         1 <0>         0.1259
     35 H15         0.7005    1.6781    4.7162 H         1 <0>         0.0774
     36 H16         0.6668    0.2900    5.8226 H         1 <0>         0.0749
     37 H17         1.9304   -0.0841    3.6397 H         1 <0>         0.0720
     38 H18         0.6512   -1.2764    3.9877 H         1 <0>         0.0665
     39 H19         2.4554    0.7900    1.3285 H         1 <0>         0.0683
     40 H20         2.8651   -0.9498    1.4065 H         1 <0>         0.0656
     41 H21         2.7000    0.7100   -0.9588 H         1 <0>         0.0739
     42 H22         3.0000   -1.0500   -0.8889 H         1 <0>         0.0643
     43 H23         1.2119   -0.0490   -3.0787 H         1 <0>         0.3759
     44 H24        -4.0214    1.1203    7.8140 H         1 <0>         0.3901
@<TRIPOS>BOND
     1    1    2 1
     2    1   25 1
     3    1   26 1
     4    1   27 1
     5    2   17 1
     6    2   21 1
     7    2    3 1
     8    3    4 1
     9    3   28 1
    10    3   29 1
    11    4    5 1
    12    4   30 1
    13    4   31 1
    14    5    6 1
    15    5   15 1
    16    5    7 1
    17    7   12 ar
    18    7    8 ar
    19    8    9 ar
    20    8   32 1
    21    9   10 ar
    22    9   33 1
    23   10   11 ar
    24   10   24 1
    25   11   12 ar
    26   11   34 1
    27   12   13 1
    28   13   14 1
    29   13   35 1
    30   13   36 1
    31   14   15 1
    32   14   37 1
    33   14   38 1
    34   15   16 1
    35   15   17 1
    36   17   18 1
    37   17   19 1
    38   19   20 1
    39   19   39 1
    40   19   40 1
    41   20   21 1
    42   20   41 1
    43   20   42 1
    44   21   22 1
    45   21   23 1
    46   23   43 1
    47   24   44 1
@<TRIPOS>MOLECULE
ZINC03814419
   48    51     0     0     0
SMALL
USER_CHARGES

@<TRIPOS>ATOM
      1 C1         -0.0187    1.5258    0.0104 C.3       1 <0>        -0.1351
      2 C2          0.0021   -0.0041    0.0020 C.3       1 <0>        -0.0448
      3 C3         -1.4159   -0.5379    0.0742 C.3       1 <0>        -0.1004
      4 C4         -2.0774    0.1007    1.3057 C.3       1 <0>        -0.1158
      5 C5         -1.2985   -0.1973    2.5834 C.3       1 <0>        -0.0753
      6 H1         -1.3395   -1.2711    2.7658 H         1 <0>         0.0686
      7 C6         -1.9496    0.5106    3.7608 C.3       1 <0>        -0.0459
      8 H2         -2.2675    1.4990    3.4289 H         1 <0>         0.0804
      9 C7         -3.1936   -0.2647    4.2042 C.3       1 <0>        -0.1049
     10 C8         -3.8922    0.4894    5.3392 C.3       1 <0>        -0.1707
     11 C9         -2.9154    0.6665    6.4802 C.2       1 <0>         0.3639
     12 O1         -3.1847    0.2834    7.5933 O.2       1 <0>        -0.4565
     13 C10        -1.5902    1.3373    6.1868 C.3       1 <0>        -0.1349
     14 C11        -1.0299    0.6849    4.9322 C.2       1 <0>        -0.1202
     15 C12         0.2230    0.3350    4.9339 C.2       1 <0>        -0.1417
     16 C13         0.8951   -0.2848    3.7425 C.3       1 <0>        -0.0866
     17 C14         0.1746    0.2147    2.4646 C.3       1 <0>        -0.0692
     18 H3          0.2562    1.2960    2.3539 H         1 <0>         0.0910
     19 C15         0.7513   -0.5274    1.2567 C.3       1 <0>        -0.0828
     20 H4          0.6137   -1.6036    1.3610 H         1 <0>         0.0791
     21 C16         2.2066   -0.1914    0.9119 C.3       1 <0>        -0.1136
     22 C17         2.3043   -0.5730   -0.5905 C.3       1 <0>        -0.1452
     23 C18         0.8630   -0.5033   -1.1540 C.3       1 <0>         0.2500
     24 C19         0.4174   -1.8394   -1.5819 C.1       1 <0>        -0.2093
     25 C20         0.0620   -2.9050   -1.9232 C.1       1 <0>        -0.1812
     26 O2          0.8029    0.4138   -2.2482 O.3       1 <0>        -0.5405
     27 H5          1.0039    1.9031    0.0027 H         1 <0>         0.0574
     28 H6         -0.5459    1.8868   -0.8726 H         1 <0>         0.0619
     29 H7         -0.5289    1.8773    0.9072 H         1 <0>         0.0645
     30 H8         -1.9633   -0.2612   -0.8269 H         1 <0>         0.0663
     31 H9         -1.3995   -1.6224    0.1817 H         1 <0>         0.0643
     32 H10        -2.1266    1.1802    1.1630 H         1 <0>         0.0691
     33 H11        -3.0901   -0.2895    1.4076 H         1 <0>         0.0639
     34 H12        -3.8773   -0.3664    3.3614 H         1 <0>         0.0802
     35 H13        -2.8991   -1.2543    4.5534 H         1 <0>         0.0679
     36 H14        -4.2182    1.4664    4.9824 H         1 <0>         0.0992
     37 H15        -4.7543   -0.0830    5.6818 H         1 <0>         0.0898
     38 H16        -1.7430    2.4045    6.0256 H         1 <0>         0.1094
     39 H17        -0.9043    1.1822    7.0196 H         1 <0>         0.0942
     40 H18         0.8043    0.4973    5.8295 H         1 <0>         0.1077
     41 H19         1.9402    0.0232    3.7115 H         1 <0>         0.0745
     42 H20         0.8346   -1.3709    3.8131 H         1 <0>         0.0768
     43 H21         2.4009    0.8718    1.0532 H         1 <0>         0.0753
     44 H22         2.8930   -0.7926    1.5081 H         1 <0>         0.0705
     45 H23         2.9458    0.1349   -1.1153 H         1 <0>         0.0807
     46 H24         2.6982   -1.5840   -0.6947 H         1 <0>         0.0719
     47 H25        -0.2559   -3.8580   -2.2284 H         1 <0>         0.2180
     48 H26         1.3316    0.1486   -3.0132 H         1 <0>         0.3783
@<TRIPOS>BOND
     1    1    2 1
     2    1   27 1
     3    1   28 1
     4    1   29 1
     5    2   19 1
     6    2   23 1
     7    2    3 1
     8    3    4 1
     9    3   30 1
    10    3   31 1
    11    4    5 1
    12    4   32 1
    13    4   33 1
    14    5    6 1
    15    5   17 1
    16    5    7 1
    17    7    8 1
    18    7   14 1
    19    7    9 1
    20    9   10 1
    21    9   34 1
    22    9   35 1
    23   10   11 1
    24   10   36 1
    25   10   37 1
    26   11   12 2
    27   11   13 1
    28   13   14 1
    29   13   38 1
    30   13   39 1
    31   14   15 2
    32   15   16 1
    33   15   40 1
    34   16   17 1
    35   16   41 1
    36   16   42 1
    37   17   18 1
    38   17   19 1
    39   19   20 1
    40   19   21 1
    41   21   22 1
    42   21   43 1
    43   21   44 1
    44   22   23 1
    45   22   45 1
    46   22   46 1
    47   23   24 1
    48   23   26 1
    49   24   25 3
    50   25   47 1
    51   26   48 1
@<TRIPOS>MOLECULE
ZINC13583640
   26    28     0     0     0
SMALL
USER_CHARGES
7-bromo-2-(3-fluoro-4-hydroxy-phenyl)-1,3-benzoxazol-5-ol
@<TRIPOS>ATOM
      1 C1         -1.1370    3.5650    0.0323 C.ar      1 <0>        -0.0528
      2 C2         -2.2789    4.3375    0.0372 C.ar      1 <0>        -0.1192
      3 C3         -3.5286    3.7332    0.0405 C.ar      1 <0>         0.1073
      4 C4         -3.6343    2.3458    0.0336 C.ar      1 <0>         0.0748
      5 C5         -2.4963    1.5665    0.0233 C.ar      1 <0>        -0.1006
      6 C6         -1.2376    2.1725    0.0199 C.ar      1 <0>        -0.0167
      7 C7         -0.0162    1.3422    0.0094 C.2       1 <0>         0.3053
      8 N1          1.2080    1.8073    0.0002 N.2       1 <0>        -0.4588
      9 C8          2.0728    0.7604   -0.0136 C.ar      1 <0>         0.0524
     10 C9          3.4665    0.6624   -0.0275 C.ar      1 <0>        -0.0717
     11 C10         4.0649   -0.5825   -0.0399 C.ar      1 <0>         0.1185
     12 C11         3.2865   -1.7359   -0.0382 C.ar      1 <0>        -0.0840
     13 C12         1.9093   -1.6497   -0.0254 C.ar      1 <0>        -0.0528
     14 C13         1.2933   -0.4071   -0.0125 C.ar      1 <0>         0.0261
     15 O1          0.0021   -0.0041    0.0020 O.3       1 <0>        -0.1938
     16 Br1         0.8628   -3.2247   -0.0233 Br        1 <0>        -0.0172
     17 O2          5.4209   -0.6813   -0.0534 O.3       1 <0>        -0.4840
     18 F1         -4.8525    1.7617    0.0373 F         1 <0>        -0.1234
     19 O3         -4.6511    4.4982    0.0511 O.3       1 <0>        -0.4842
     20 H1         -0.1655    4.0367    0.0342 H         1 <0>         0.1546
     21 H2         -2.2010    5.4146    0.0427 H         1 <0>         0.1543
     22 H3         -2.5782    0.4896    0.0175 H         1 <0>         0.1526
     23 H4          4.0732    1.5559   -0.0288 H         1 <0>         0.1535
     24 H5          3.7634   -2.7049   -0.0472 H         1 <0>         0.1597
     25 H6          5.8216   -0.7146    0.8261 H         1 <0>         0.3994
     26 H7         -4.9711    4.7149    0.9375 H         1 <0>         0.4008
@<TRIPOS>BOND
     1    1    6 ar
     2    1    2 ar
     3    1   20 1
     4    2    3 ar
     5    2   21 1
     6    3    4 ar
     7    3   19 1
     8    4    5 ar
     9    4   18 1
    10    5    6 ar
    11    5   22 1
    12    6    7 1
    13    7   15 1
    14    7    8 2
    15    8    9 1
    16    9   14 ar
    17    9   10 ar
    18   10   11 ar
    19   10   23 1
    20   11   12 ar
    21   11   17 1
    22   12   13 ar
    23   12   24 1
    24   13   14 ar
    25   13   16 1
    26   14   15 1
    27   17   25 1
    28   19   26 1
@<TRIPOS>MOLECULE
ZINC00009308
   26    28     0     0     0
SMALL
USER_CHARGES

@<TRIPOS>ATOM
      1 C1          5.3638    4.6176   -0.0274 C.ar      1 <0>        -0.0418
      2 C2          6.7413    4.6465   -0.0341 C.ar      1 <0>        -0.1497
      3 C3          7.4628    3.4594   -0.0463 C.ar      1 <0>         0.1396
      4 C4          6.7993    2.2388   -0.0464 C.ar      1 <0>        -0.1489
      5 C5          5.4220    2.2014   -0.0344 C.ar      1 <0>        -0.0594
      6 C6          4.6930    3.3926   -0.0221 C.ar      1 <0>        -0.0501
      7 C7          3.2165    3.3570   -0.0098 C.2       1 <0>         0.3105
      8 N1          2.4401    4.4115    0.0025 N.2       1 <0>        -0.4671
      9 C8          1.1457    4.0007    0.0121 C.ar      1 <0>         0.0540
     10 C9         -0.0786    4.6737    0.0265 C.ar      1 <0>        -0.0739
     11 C10        -1.2563    3.9521    0.0335 C.ar      1 <0>         0.1182
     12 C11        -1.2276    2.5608    0.0218 C.ar      1 <0>        -0.0869
     13 C12        -0.0236    1.8867    0.0124 C.ar      1 <0>        -0.0516
     14 C13         1.1678    2.5970    0.0049 C.ar      1 <0>         0.0228
     15 O1          2.4713    2.2357   -0.0087 O.3       1 <0>        -0.1951
     16 Br1         0.0021   -0.0041    0.0020 Br        1 <0>        -0.0189
     17 O2         -2.4493    4.6041    0.0475 O.3       1 <0>        -0.4844
     18 O3          8.8204    3.4921   -0.0586 O.3       1 <0>        -0.4964
     19 H1          4.8036    5.5409   -0.0225 H         1 <0>         0.1465
     20 H2          7.2609    5.5933   -0.0337 H         1 <0>         0.1426
     21 H3          7.3637    1.3181   -0.0563 H         1 <0>         0.1413
     22 H4          4.9069    1.2521   -0.0349 H         1 <0>         0.1399
     23 H5         -0.1040    5.7534    0.0326 H         1 <0>         0.1524
     24 H6         -2.1536    2.0051    0.0235 H         1 <0>         0.1589
     25 H7         -2.8024    4.7972   -0.8318 H         1 <0>         0.3988
     26 H8          9.2054    3.5061   -0.9455 H         1 <0>         0.3987
@<TRIPOS>BOND
     1    1    6 ar
     2    1    2 ar
     3    1   19 1
     4    2    3 ar
     5    2   20 1
     6    3    4 ar
     7    3   18 1
     8    4    5 ar
     9    4   21 1
    10    5    6 ar
    11    5   22 1
    12    6    7 1
    13    7   15 1
    14    7    8 2
    15    8    9 1
    16    9   14 ar
    17    9   10 ar
    18   10   11 ar
    19   10   23 1
    20   11   12 ar
    21   11   17 1
    22   12   13 ar
    23   12   24 1
    24   13   14 ar
    25   13   16 1
    26   14   15 1
    27   17   25 1
    28   18   26 1
@<TRIPOS>MOLECULE
ZINC00538045
   64    68     0     0     0
SMALL
USER_CHARGES
1-[2-[4-(6-methoxy-2-phenyl-3,4-dihydronaphthalen-1-yl)phenoxy]ethyl]pyrrolidine
@<TRIPOS>ATOM
      1 C1          3.0367   -2.5290    5.2273 C.3       1 <0>         0.0260
      2 O1          4.0511   -2.1419    4.2982 O.3       1 <0>        -0.3143
      3 C2          3.6680   -1.3552    3.2590 C.ar      1 <0>         0.1397
      4 C3          2.3402   -0.9653    3.1394 C.ar      1 <0>        -0.2124
      5 C4          1.9449   -0.1726    2.0824 C.ar      1 <0>        -0.0645
      6 C5          2.8832    0.2356    1.1355 C.ar      1 <0>        -0.0841
      7 C6          4.2159   -0.1523    1.2638 C.ar      1 <0>        -0.0285
      8 C7          4.5999   -0.9541    2.3167 C.ar      1 <0>        -0.1485
      9 C8          5.2298    0.3178    0.2543 C.3       1 <0>        -0.0819
     10 C9          4.5965    0.4023   -1.1318 C.3       1 <0>        -0.0783
     11 C10         3.3074    1.1765   -1.0834 C.2       1 <0>        -0.0588
     12 C11         2.4788    1.0718   -0.0158 C.2       1 <0>        -0.0375
     13 C12         1.1862    1.7911    0.0004 C.ar      1 <0>        -0.0471
     14 C13        -0.0126    1.0758    0.0080 C.ar      1 <0>        -0.0716
     15 C14        -1.2150    1.7496    0.0173 C.ar      1 <0>        -0.2001
     16 C15        -1.2348    3.1382    0.0297 C.ar      1 <0>         0.1113
     17 C16        -0.0443    3.8534    0.0222 C.ar      1 <0>        -0.1359
     18 C17         1.1621    3.1868    0.0076 C.ar      1 <0>        -0.0556
     19 O2         -2.4219    3.7988    0.0442 O.3       1 <0>        -0.3270
     20 C18        -3.6079    3.0016    0.0512 C.3       1 <0>         0.0268
     21 C19        -4.8358    3.9143    0.0673 C.3       1 <0>         0.0089
     22 C20        -4.8058    3.7847   -2.3638 C.3       1 <0>        -0.0118
     23 C21        -5.3948    4.6469   -3.5085 C.3       1 <0>        -0.1463
     24 C22        -6.5397    5.4148   -2.8089 C.3       1 <0>        -0.1468
     25 C23        -6.1812    5.3947   -1.3114 C.3       1 <0>        -0.0106
     26 C24         2.9432    2.0554   -2.2046 C.ar      1 <0>        -0.0448
     27 C25         1.8208    1.7670   -2.9883 C.ar      1 <0>        -0.1002
     28 C26         1.4829    2.5991   -4.0345 C.ar      1 <0>        -0.1204
     29 C27         2.2569    3.7113   -4.3168 C.ar      1 <0>        -0.1184
     30 C28         3.3722    4.0004   -3.5498 C.ar      1 <0>        -0.1159
     31 C29         3.7205    3.1813   -2.4969 C.ar      1 <0>        -0.1061
     32 H1          2.2611   -3.0898    4.7057 H         1 <0>         0.0566
     33 H2          3.4758   -3.1535    6.0053 H         1 <0>         0.1039
     34 H3          2.5995   -1.6388    5.6795 H         1 <0>         0.0565
     35 H4          1.6165   -1.2831    3.8754 H         1 <0>         0.1297
     36 H5          0.9126    0.1305    1.9883 H         1 <0>         0.1251
     37 H6          5.6312   -1.2593    2.4153 H         1 <0>         0.1357
     38 H7          6.0643   -0.3829    0.2278 H         1 <0>         0.0878
     39 H8          5.5948    1.3029    0.5449 H         1 <0>         0.0841
     40 H9          4.3965   -0.6051   -1.4968 H         1 <0>         0.0837
     41 H10         5.2883    0.8994   -1.8118 H         1 <0>         0.0841
     42 H11         0.0021   -0.0041    0.0020 H         1 <0>         0.1308
     43 H12        -2.1429    1.1970    0.0187 H         1 <0>         0.1269
     44 H13        -0.0638    4.9332    0.0275 H         1 <0>         0.1320
     45 H14         2.0875    3.7436    0.0014 H         1 <0>         0.1328
     46 H15        -3.6311    2.3770   -0.8417 H         1 <0>         0.0858
     47 H16        -3.6145    2.3680    0.9381 H         1 <0>         0.1075
     48 H17        -5.7372    3.3089    0.1622 H         1 <0>         0.1463
     49 H18        -4.7679    4.5999    0.9120 H         1 <0>         0.1421
     50 H19        -3.7687    3.5231   -2.5738 H         1 <0>         0.1356
     51 H20        -5.4061    2.8881   -2.2095 H         1 <0>         0.1333
     52 H21        -5.7853    4.0146   -4.3059 H         1 <0>         0.1160
     53 H22        -4.6462    5.3385   -3.8949 H         1 <0>         0.0985
     54 H23        -7.4914    4.9105   -2.9769 H         1 <0>         0.1034
     55 H24        -6.5849    6.4410   -3.1734 H         1 <0>         0.1052
     56 H25        -6.9537    4.8672   -0.7517 H         1 <0>         0.1312
     57 H26        -6.0807    6.4145   -0.9400 H         1 <0>         0.1339
     58 H27         1.2184    0.8971   -2.7720 H         1 <0>         0.1175
     59 H28         0.6146    2.3799   -4.6382 H         1 <0>         0.1183
     60 H29         1.9894    4.3568   -5.1403 H         1 <0>         0.1205
     61 H30         3.9710    4.8701   -3.7765 H         1 <0>         0.1245
     62 H31         4.5912    3.4080   -1.8995 H         1 <0>         0.1244
     63 N1         -4.9028    4.6898   -1.2078 N.4       1 <0>        -0.3958
     64 H32        -4.1309    5.3664   -1.2313 H         1 <0>         0.4366
@<TRIPOS>BOND
     1    1    2 1
     2    1   32 1
     3    1   33 1
     4    1   34 1
     5    2    3 1
     6    3    8 ar
     7    3    4 ar
     8    4    5 ar
     9    4   35 1
    10    5    6 ar
    11    5   36 1
    12    6   12 1
    13    6    7 ar
    14    7    8 ar
    15    7    9 1
    16    8   37 1
    17    9   10 1
    18    9   38 1
    19    9   39 1
    20   10   11 1
    21   10   40 1
    22   10   41 1
    23   11   12 2
    24   11   26 1
    25   12   13 1
    26   13   18 ar
    27   13   14 ar
    28   14   15 ar
    29   14   42 1
    30   15   16 ar
    31   15   43 1
    32   16   17 ar
    33   16   19 1
    34   17   18 ar
    35   17   44 1
    36   18   45 1
    37   19   20 1
    38   20   21 1
    39   20   46 1
    40   20   47 1
    41   21   48 1
    42   21   49 1
    43   21   63 1
    44   22   23 1
    45   22   50 1
    46   22   51 1
    47   22   63 1
    48   23   24 1
    49   23   52 1
    50   23   53 1
    51   24   25 1
    52   24   54 1
    53   24   55 1
    54   25   56 1
    55   25   57 1
    56   25   63 1
    57   26   31 ar
    58   26   27 ar
    59   27   28 ar
    60   27   58 1
    61   28   29 ar
    62   28   59 1
    63   29   30 ar
    64   29   60 1
    65   30   31 ar
    66   30   61 1
    67   31   62 1
    68   63   64 1
@<TRIPOS>MOLECULE
ZINC11680893
   63    67     0     0     0
SMALL
USER_CHARGES
(1S,2S)-2-phenyl-1-[4-(2-pyrrolidin-1-ylethoxy)phenyl]tetralin-6-ol
@<TRIPOS>ATOM
      1 C1          1.2084   -0.6789   -0.0132 C.ar      1 <0>        -0.1222
      2 C2          0.0021   -0.0041    0.0020 C.ar      1 <0>        -0.1188
      3 C3         -0.0167    1.3781    0.0096 C.ar      1 <0>        -0.1141
      4 C4          1.1709    2.0855    0.0021 C.ar      1 <0>        -0.0718
      5 C5          2.3773    1.4107   -0.0145 C.ar      1 <0>        -0.1142
      6 C6          2.3960    0.0285   -0.0217 C.ar      1 <0>        -0.1146
      7 C7          1.1505    3.5924    0.0099 C.3       1 <0>        -0.0375
      8 H1          0.1193    3.9454    0.0214 H         1 <0>         0.0830
      9 C8          1.8881    4.1124    1.2494 C.3       1 <0>        -0.1128
     10 C9          1.6468    5.6164    1.3578 C.3       1 <0>        -0.0845
     11 C10         1.9596    6.2994    0.0520 C.ar      1 <0>        -0.0529
     12 C11         2.1523    7.6740    0.0726 C.ar      1 <0>        -0.1468
     13 C12         2.4302    8.3623   -1.0958 C.ar      1 <0>         0.1113
     14 C13         2.5173    7.6707   -2.2957 C.ar      1 <0>        -0.1484
     15 C14         2.3288    6.3054   -2.3125 C.ar      1 <0>        -0.0933
     16 C15         2.0512    5.6146   -1.1392 C.ar      1 <0>        -0.0849
     17 C16         1.8621    4.1229   -1.2330 C.3       1 <0>         0.0034
     18 H2          2.8365    3.6426   -1.3218 H         1 <0>         0.0942
     19 C17         1.0371    3.8023   -2.4527 C.ar      1 <0>        -0.0825
     20 C18        -0.2521    4.2899   -2.5616 C.ar      1 <0>        -0.0657
     21 C19        -1.0084    4.0022   -3.6812 C.ar      1 <0>        -0.1990
     22 C20        -0.4773    3.2138   -4.6917 C.ar      1 <0>         0.1084
     23 C21         0.8145    2.7211   -4.5775 C.ar      1 <0>        -0.1371
     24 C22         1.5687    3.0164   -3.4584 C.ar      1 <0>        -0.0710
     25 O1         -1.2211    2.9251   -5.7919 O.3       1 <0>        -0.3278
     26 C23        -2.5428    3.4662   -5.8418 C.3       1 <0>         0.0274
     27 C24        -3.2207    3.0370   -7.1445 C.3       1 <0>         0.0088
     28 C25        -4.0887    1.1241   -5.9135 C.3       1 <0>        -0.0117
     29 C26        -4.6454   -0.2661   -6.3108 C.3       1 <0>        -0.1463
     30 C27        -5.0733   -0.0596   -7.7820 C.3       1 <0>        -0.1466
     31 C28        -4.2574    1.1511   -8.2719 C.3       1 <0>        -0.0107
     32 O2          2.6171    9.7080   -1.0680 O.3       1 <0>        -0.4981
     33 H3          1.2231   -1.7588   -0.0188 H         1 <0>         0.1207
     34 H4         -0.9258   -0.5567    0.0083 H         1 <0>         0.1186
     35 H5         -0.9592    1.9054    0.0170 H         1 <0>         0.1160
     36 H6          3.3051    1.9634   -0.0208 H         1 <0>         0.1210
     37 H7          3.3385   -0.4987   -0.0335 H         1 <0>         0.1225
     38 H8          1.5061    3.6136    2.1401 H         1 <0>         0.0767
     39 H9          2.9561    3.9187    1.1492 H         1 <0>         0.0719
     40 H10         2.2848    6.0275    2.1402 H         1 <0>         0.0824
     41 H11         0.6027    5.7941    1.6153 H         1 <0>         0.0801
     42 H12         2.0842    8.2107    1.0074 H         1 <0>         0.1297
     43 H13         2.7314    8.2000   -3.2124 H         1 <0>         0.1279
     44 H14         2.3973    5.7675   -3.2465 H         1 <0>         0.1225
     45 H15        -0.6667    4.9000   -1.7726 H         1 <0>         0.1267
     46 H16        -2.0139    4.3869   -3.7678 H         1 <0>         0.1248
     47 H17         1.2303    2.1074   -5.3630 H         1 <0>         0.1312
     48 H18         2.5745    2.6333   -3.3692 H         1 <0>         0.1332
     49 H19        -3.1189    3.0967   -4.9934 H         1 <0>         0.0855
     50 H20        -2.4917    4.5542   -5.8001 H         1 <0>         0.1072
     51 H21        -4.1940    3.5212   -7.2241 H         1 <0>         0.1462
     52 H22        -2.5992    3.3292   -7.9909 H         1 <0>         0.1421
     53 H23        -3.3828    1.0342   -5.0879 H         1 <0>         0.1355
     54 H24        -4.9005    1.8039   -5.6546 H         1 <0>         0.1332
     55 H25        -5.5039   -0.5289   -5.6927 H         1 <0>         0.1160
     56 H26        -3.8689   -1.0276   -6.2382 H         1 <0>         0.0985
     57 H27        -6.1404    0.1552   -7.8390 H         1 <0>         0.1035
     58 H28        -4.8321   -0.9427   -8.3736 H         1 <0>         0.1052
     59 H29        -4.9292    1.9616   -8.5548 H         1 <0>         0.1310
     60 H30        -3.6401    0.8664   -9.1239 H         1 <0>         0.1339
     61 H31         1.8066   10.2204   -1.1935 H         1 <0>         0.3921
     62 N1         -3.4128    1.5555   -7.1471 N.4       1 <0>        -0.3957
     63 H32        -2.4968    1.0974   -7.2191 H         1 <0>         0.4365
@<TRIPOS>BOND
     1    1    6 ar
     2    1    2 ar
     3    1   33 1
     4    2    3 ar
     5    2   34 1
     6    3    4 ar
     7    3   35 1
     8    4    5 ar
     9    4    7 1
    10    5    6 ar
    11    5   36 1
    12    6   37 1
    13    7    8 1
    14    7   17 1
    15    7    9 1
    16    9   10 1
    17    9   38 1
    18    9   39 1
    19   10   11 1
    20   10   40 1
    21   10   41 1
    22   11   16 ar
    23   11   12 ar
    24   12   13 ar
    25   12   42 1
    26   13   14 ar
    27   13   32 1
    28   14   15 ar
    29   14   43 1
    30   15   16 ar
    31   15   44 1
    32   16   17 1
    33   17   18 1
    34   17   19 1
    35   19   24 ar
    36   19   20 ar
    37   20   21 ar
    38   20   45 1
    39   21   22 ar
    40   21   46 1
    41   22   23 ar
    42   22   25 1
    43   23   24 ar
    44   23   47 1
    45   24   48 1
    46   25   26 1
    47   26   27 1
    48   26   49 1
    49   26   50 1
    50   27   51 1
    51   27   52 1
    52   27   62 1
    53   28   29 1
    54   28   53 1
    55   28   54 1
    56   28   62 1
    57   29   30 1
    58   29   55 1
    59   29   56 1
    60   30   31 1
    61   30   57 1
    62   30   58 1
    63   31   59 1
    64   31   60 1
    65   31   62 1
    66   32   61 1
    67   62   63 1
@<TRIPOS>MOLECULE
ZINC03918428
   63    67     0     0     0
SMALL
USER_CHARGES
6-phenyl-5-[4-(2-pyrrolidin-1-ylethoxy)phenyl]-tetralin-2-ol
@<TRIPOS>ATOM
      1 C1          3.0955    0.3060   -4.6142 C.ar      1 <0>        -0.1219
      2 C2          2.0589    1.0678   -4.1085 C.ar      1 <0>        -0.1236
      3 C3          2.2845    1.9247   -3.0475 C.ar      1 <0>        -0.1040
      4 C4          3.5467    2.0191   -2.4917 C.ar      1 <0>        -0.0742
      5 C5          4.5845    1.2608   -3.0005 C.ar      1 <0>        -0.1123
      6 C6          4.3578    0.4007   -4.0587 C.ar      1 <0>        -0.1171
      7 C7          3.7927    2.9532   -1.3350 C.3       1 <0>        -0.0411
      8 H1          4.8573    3.1757   -1.2622 H         1 <0>         0.0905
      9 C8          3.0068    4.2529   -1.5447 C.3       1 <0>        -0.1211
     10 C9          3.4588    5.2639   -0.4929 C.3       1 <0>        -0.0858
     11 C10         3.3996    4.6572    0.8847 C.ar      1 <0>        -0.0550
     12 C11         3.4134    5.5210    1.9713 C.ar      1 <0>        -0.1475
     13 C12         3.3731    5.0257    3.2633 C.ar      1 <0>         0.1126
     14 C13         3.3184    3.6549    3.4715 C.ar      1 <0>        -0.1466
     15 C14         3.3020    2.7998    2.3906 C.ar      1 <0>        -0.0929
     16 C15         3.3404    3.2973    1.0937 C.ar      1 <0>        -0.0848
     17 C16         3.3131    2.3038   -0.0385 C.3       1 <0>         0.0045
     18 H2          3.9643    1.4642    0.2045 H         1 <0>         0.0919
     19 C17         1.9045    1.8022   -0.2255 C.ar      1 <0>        -0.0799
     20 C18         0.8408    2.6804   -0.1309 C.ar      1 <0>        -0.0722
     21 C19        -0.4515    2.2229   -0.3011 C.ar      1 <0>        -0.1415
     22 C20        -0.6816    0.8809   -0.5676 C.ar      1 <0>         0.1091
     23 C21         0.3875    0.0018   -0.6625 C.ar      1 <0>        -0.1967
     24 C22         1.6779    0.4644   -0.4915 C.ar      1 <0>        -0.0627
     25 O1         -1.9520    0.4283   -0.7349 O.3       1 <0>        -0.3279
     26 C23        -2.1136   -0.9653   -1.0066 C.3       1 <0>         0.0274
     27 C24        -3.6016   -1.2851   -1.1632 C.3       1 <0>         0.0088
     28 C25        -3.3049   -0.8909   -3.5475 C.3       1 <0>        -0.0116
     29 C26        -4.2563   -0.5537   -4.7230 C.3       1 <0>        -0.1462
     30 C27        -5.6310   -1.0341   -4.2039 C.3       1 <0>        -0.1466
     31 C28        -5.4942   -1.0630   -2.6704 C.3       1 <0>        -0.0106
     32 O2          3.3875    5.8774    4.3222 O.3       1 <0>        -0.4981
     33 H3          2.9192   -0.3635   -5.4432 H         1 <0>         0.1184
     34 H4          1.0727    0.9938   -4.5425 H         1 <0>         0.1121
     35 H5          1.4747    2.5202   -2.6526 H         1 <0>         0.1180
     36 H6          5.5716    1.3378   -2.5691 H         1 <0>         0.1224
     37 H7          5.1677   -0.1948   -4.4536 H         1 <0>         0.1224
     38 H8          1.9400    4.0589   -1.4330 H         1 <0>         0.0753
     39 H9          3.2059    4.6463   -2.5416 H         1 <0>         0.0749
     40 H10         2.8068    6.1366   -0.5296 H         1 <0>         0.0803
     41 H11         4.4825    5.5709   -0.7068 H         1 <0>         0.0835
     42 H12         3.4563    6.5877    1.8075 H         1 <0>         0.1296
     43 H13         3.2880    3.2597    4.4761 H         1 <0>         0.1295
     44 H14         3.2589    1.7330    2.5532 H         1 <0>         0.1237
     45 H15         1.0204    3.7250    0.0765 H         1 <0>         0.1360
     46 H16        -1.2818    2.9100   -0.2311 H         1 <0>         0.1300
     47 H17         0.2109   -1.0433   -0.8695 H         1 <0>         0.1243
     48 H18         2.5104   -0.2196   -0.5653 H         1 <0>         0.1263
     49 H19        -1.5885   -1.2192   -1.9274 H         1 <0>         0.0857
     50 H20        -1.7019   -1.5465   -0.1815 H         1 <0>         0.1071
     51 H21        -3.7315   -2.3608   -1.2820 H         1 <0>         0.1461
     52 H22        -4.1405   -0.9497   -0.2771 H         1 <0>         0.1419
     53 H23        -2.4205   -0.2545   -3.5736 H         1 <0>         0.1355
     54 H24        -3.0234   -1.9437   -3.5703 H         1 <0>         0.1332
     55 H25        -3.9698   -1.1019   -5.6205 H         1 <0>         0.1160
     56 H26        -4.2693    0.5196   -4.9129 H         1 <0>         0.0984
     57 H27        -5.8508   -2.0321   -4.5830 H         1 <0>         0.1035
     58 H28        -6.4128   -0.3351   -4.5009 H         1 <0>         0.1052
     59 H29        -5.6340   -2.0800   -2.3042 H         1 <0>         0.1310
     60 H30        -6.2310   -0.4004   -2.2163 H         1 <0>         0.1339
     61 H31         2.5090    6.1572    4.6139 H         1 <0>         0.3926
     62 N1         -4.1401   -0.5937   -2.3731 N.4       1 <0>        -0.3956
     63 H32        -4.1534    0.4189   -2.2042 H         1 <0>         0.4363
@<TRIPOS>BOND
     1    1    6 ar
     2    1    2 ar
     3    1   33 1
     4    2    3 ar
     5    2   34 1
     6    3    4 ar
     7    3   35 1
     8    4    5 ar
     9    4    7 1
    10    5    6 ar
    11    5   36 1
    12    6   37 1
    13    7    8 1
    14    7   17 1
    15    7    9 1
    16    9   10 1
    17    9   38 1
    18    9   39 1
    19   10   11 1
    20   10   40 1
    21   10   41 1
    22   11   16 ar
    23   11   12 ar
    24   12   13 ar
    25   12   42 1
    26   13   14 ar
    27   13   32 1
    28   14   15 ar
    29   14   43 1
    30   15   16 ar
    31   15   44 1
    32   16   17 1
    33   17   18 1
    34   17   19 1
    35   19   24 ar
    36   19   20 ar
    37   20   21 ar
    38   20   45 1
    39   21   22 ar
    40   21   46 1
    41   22   23 ar
    42   22   25 1
    43   23   24 ar
    44   23   47 1
    45   24   48 1
    46   25   26 1
    47   26   27 1
    48   26   49 1
    49   26   50 1
    50   27   51 1
    51   27   52 1
    52   27   62 1
    53   28   29 1
    54   28   53 1
    55   28   54 1
    56   28   62 1
    57   29   30 1
    58   29   55 1
    59   29   56 1
    60   30   31 1
    61   30   57 1
    62   30   58 1
    63   31   59 1
    64   31   60 1
    65   31   62 1
    66   32   61 1
    67   62   63 1
@<TRIPOS>MOLECULE
ZINC13780521
   66    70     0     0     0
SMALL
USER_CHARGES
1-[2-[4-[(1R,2S)-6-methoxy-2-phenyl-tetralin-1-yl]phenoxy]ethyl]pyrrolidine
@<TRIPOS>ATOM
      1 C1          3.3427    5.2930    5.6255 C.3       1 <0>         0.0266
      2 O1          3.3865    5.8774    4.3222 O.3       1 <0>        -0.3163
      3 C2          3.3730    5.0257    3.2633 C.ar      1 <0>         0.1345
      4 C3          3.3183    3.6549    3.4715 C.ar      1 <0>        -0.2080
      5 C4          3.3020    2.7998    2.3906 C.ar      1 <0>        -0.0688
      6 C5          3.3403    3.2973    1.0937 C.ar      1 <0>        -0.1139
      7 C6          3.3996    4.6572    0.8847 C.ar      1 <0>        -0.0315
      8 C7          3.4134    5.5210    1.9713 C.ar      1 <0>        -0.1562
      9 C8          3.4588    5.2639   -0.4929 C.3       1 <0>        -0.0858
     10 C9          3.0068    4.2529   -1.5447 C.3       1 <0>        -0.1209
     11 C10         3.7927    2.9532   -1.3350 C.3       1 <0>        -0.0409
     12 H1          4.8573    3.1757   -1.2622 H         1 <0>         0.0902
     13 C11         3.3131    2.3038   -0.0385 C.3       1 <0>         0.0088
     14 H2          3.9643    1.4642    0.2045 H         1 <0>         0.0894
     15 C12         1.9045    1.8022   -0.2255 C.ar      1 <0>        -0.0793
     16 C13         0.8408    2.6804   -0.1310 C.ar      1 <0>        -0.0713
     17 C14        -0.4515    2.2229   -0.3011 C.ar      1 <0>        -0.1417
     18 C15        -0.6816    0.8810   -0.5676 C.ar      1 <0>         0.1081
     19 C16         0.3875    0.0018   -0.6624 C.ar      1 <0>        -0.1972
     20 C17         1.6779    0.4644   -0.4914 C.ar      1 <0>        -0.0638
     21 O2         -1.9520    0.4283   -0.7349 O.3       1 <0>        -0.3281
     22 C18        -2.1136   -0.9653   -1.0066 C.3       1 <0>         0.0275
     23 C19        -3.6016   -1.2851   -1.1632 C.3       1 <0>         0.0087
     24 C20        -3.3049   -0.8910   -3.5474 C.3       1 <0>        -0.0117
     25 C21        -4.2562   -0.5538   -4.7230 C.3       1 <0>        -0.1462
     26 C22        -5.6309   -1.0342   -4.2039 C.3       1 <0>        -0.1466
     27 C23        -5.4941   -1.0630   -2.6704 C.3       1 <0>        -0.0107
     28 C24         3.5467    2.0191   -2.4917 C.ar      1 <0>        -0.0736
     29 C25         4.5845    1.2608   -3.0005 C.ar      1 <0>        -0.1126
     30 C26         4.3578    0.4007   -4.0587 C.ar      1 <0>        -0.1174
     31 C27         3.0956    0.3060   -4.6142 C.ar      1 <0>        -0.1224
     32 C28         2.0589    1.0678   -4.1085 C.ar      1 <0>        -0.1236
     33 C29         2.2845    1.9247   -3.0475 C.ar      1 <0>        -0.1040
     34 H3          2.4285    4.7088    5.7311 H         1 <0>         0.0554
     35 H4          4.2070    4.6430    5.7614 H         1 <0>         0.0570
     36 H5          3.3590    6.0814    6.3779 H         1 <0>         0.1031
     37 H6          3.2882    3.2597    4.4761 H         1 <0>         0.1286
     38 H7          3.2585    1.7330    2.5532 H         1 <0>         0.1215
     39 H8          3.4556    6.5877    1.8074 H         1 <0>         0.1313
     40 H9          2.8069    6.1366   -0.5296 H         1 <0>         0.0816
     41 H10         4.4826    5.5708   -0.7068 H         1 <0>         0.0845
     42 H11         1.9400    4.0590   -1.4330 H         1 <0>         0.0753
     43 H12         3.2060    4.6463   -2.5416 H         1 <0>         0.0747
     44 H13         1.0204    3.7250    0.0765 H         1 <0>         0.1365
     45 H14        -1.2818    2.9101   -0.2312 H         1 <0>         0.1297
     46 H15         0.2109   -1.0434   -0.8694 H         1 <0>         0.1237
     47 H16         2.5104   -0.2196   -0.5652 H         1 <0>         0.1257
     48 H17        -1.5885   -1.2193   -1.9274 H         1 <0>         0.0856
     49 H18        -1.7019   -1.5465   -0.1814 H         1 <0>         0.1067
     50 H19        -3.7315   -2.3608   -1.2819 H         1 <0>         0.1459
     51 H20        -4.1405   -0.9497   -0.2771 H         1 <0>         0.1418
     52 H21        -2.4204   -0.2545   -3.5735 H         1 <0>         0.1356
     53 H22        -3.0234   -1.9438   -3.5702 H         1 <0>         0.1332
     54 H23        -3.9697   -1.1020   -5.6205 H         1 <0>         0.1160
     55 H24        -4.2692    0.5194   -4.9130 H         1 <0>         0.0984
     56 H25        -5.8507   -2.0322   -4.5830 H         1 <0>         0.1034
     57 H26        -6.4128   -0.3352   -4.5010 H         1 <0>         0.1051
     58 H27        -5.6340   -2.0801   -2.3041 H         1 <0>         0.1310
     59 H28        -6.2310   -0.4004   -2.2164 H         1 <0>         0.1338
     60 H29         5.5716    1.3378   -2.5691 H         1 <0>         0.1222
     61 H30         5.1677   -0.1948   -4.4536 H         1 <0>         0.1220
     62 H31         2.9192   -0.3635   -5.4432 H         1 <0>         0.1181
     63 H32         1.0727    0.9938   -4.5425 H         1 <0>         0.1119
     64 H33         1.4747    2.5202   -2.6526 H         1 <0>         0.1182
     65 N1         -4.1400   -0.5938   -2.3731 N.4       1 <0>        -0.3955
     66 H34        -4.1533    0.4189   -2.2042 H         1 <0>         0.4364
@<TRIPOS>BOND
     1    1    2 1
     2    1   34 1
     3    1   35 1
     4    1   36 1
     5    2    3 1
     6    3    8 ar
     7    3    4 ar
     8    4    5 ar
     9    4   37 1
    10    5    6 ar
    11    5   38 1
    12    6   13 1
    13    6    7 ar
    14    7    8 ar
    15    7    9 1
    16    8   39 1
    17    9   10 1
    18    9   40 1
    19    9   41 1
    20   10   11 1
    21   10   42 1
    22   10   43 1
    23   11   12 1
    24   11   13 1
    25   11   28 1
    26   13   14 1
    27   13   15 1
    28   15   20 ar
    29   15   16 ar
    30   16   17 ar
    31   16   44 1
    32   17   18 ar
    33   17   45 1
    34   18   19 ar
    35   18   21 1
    36   19   20 ar
    37   19   46 1
    38   20   47 1
    39   21   22 1
    40   22   23 1
    41   22   48 1
    42   22   49 1
    43   23   50 1
    44   23   51 1
    45   23   65 1
    46   24   25 1
    47   24   52 1
    48   24   53 1
    49   24   65 1
    50   25   26 1
    51   25   54 1
    52   25   55 1
    53   26   27 1
    54   26   56 1
    55   26   57 1
    56   27   58 1
    57   27   59 1
    58   27   65 1
    59   28   33 ar
    60   28   29 ar
    61   29   30 ar
    62   29   60 1
    63   30   31 ar
    64   30   61 1
    65   31   32 ar
    66   31   62 1
    67   32   33 ar
    68   32   63 1
    69   33   64 1
    70   65   66 1
@<TRIPOS>MOLECULE
ZINC13780522
   66    70     0     0     0
SMALL
USER_CHARGES
1-[2-[4-[(1S,2S)-6-methoxy-2-phenyl-tetralin-1-yl]phenoxy]ethyl]pyrrolidine
@<TRIPOS>ATOM
      1 C1          2.8988   10.3498   -2.3133 C.3       1 <0>         0.0271
      2 O1          2.6162    9.7082   -1.0681 O.3       1 <0>        -0.3163
      3 C2          2.4302    8.3622   -1.0958 C.ar      1 <0>         0.1334
      4 C3          2.5173    7.6707   -2.2957 C.ar      1 <0>        -0.2096
      5 C4          2.3288    6.3054   -2.3125 C.ar      1 <0>        -0.0693
      6 C5          2.0512    5.6146   -1.1392 C.ar      1 <0>        -0.1139
      7 C6          1.9599    6.2993    0.0521 C.ar      1 <0>        -0.0293
      8 C7          2.1523    7.6740    0.0726 C.ar      1 <0>        -0.1556
      9 C8          1.6471    5.6164    1.3579 C.3       1 <0>        -0.0845
     10 C9          1.8881    4.1124    1.2494 C.3       1 <0>        -0.1121
     11 C10         1.1505    3.5924    0.0099 C.3       1 <0>        -0.0379
     12 H1          0.1193    3.9454    0.0214 H         1 <0>         0.0828
     13 C11         1.8621    4.1229   -1.2330 C.3       1 <0>         0.0078
     14 H2          2.8365    3.6426   -1.3218 H         1 <0>         0.0915
     15 C12         1.0371    3.8023   -2.4527 C.ar      1 <0>        -0.0814
     16 C13        -0.2521    4.2899   -2.5616 C.ar      1 <0>        -0.0653
     17 C14        -1.0084    4.0022   -3.6812 C.ar      1 <0>        -0.1991
     18 C15        -0.4773    3.2138   -4.6917 C.ar      1 <0>         0.1074
     19 C16         0.8145    2.7211   -4.5775 C.ar      1 <0>        -0.1376
     20 C17         1.5687    3.0164   -3.4584 C.ar      1 <0>        -0.0720
     21 O2         -1.2211    2.9251   -5.7919 O.3       1 <0>        -0.3280
     22 C18        -2.5428    3.4662   -5.8418 C.3       1 <0>         0.0274
     23 C19        -3.2207    3.0370   -7.1445 C.3       1 <0>         0.0088
     24 C20        -4.0887    1.1241   -5.9135 C.3       1 <0>        -0.0117
     25 C21        -4.6454   -0.2661   -6.3108 C.3       1 <0>        -0.1463
     26 C22        -5.0733   -0.0596   -7.7820 C.3       1 <0>        -0.1465
     27 C23        -4.2574    1.1511   -8.2719 C.3       1 <0>        -0.0107
     28 C24         1.1709    2.0855    0.0021 C.ar      1 <0>        -0.0711
     29 C25        -0.0167    1.3781    0.0096 C.ar      1 <0>        -0.1143
     30 C26         0.0021   -0.0041    0.0020 C.ar      1 <0>        -0.1189
     31 C27         1.2084   -0.6789   -0.0132 C.ar      1 <0>        -0.1227
     32 C28         2.3960    0.0285   -0.0217 C.ar      1 <0>        -0.1149
     33 C29         2.3773    1.4107   -0.0145 C.ar      1 <0>        -0.1141
     34 H3          2.0724   10.1826   -3.0040 H         1 <0>         0.0545
     35 H4          3.0250   11.4201   -2.1501 H         1 <0>         0.1030
     36 H5          3.8146    9.9362   -2.7356 H         1 <0>         0.0565
     37 H6          2.7314    8.1999   -3.2124 H         1 <0>         0.1272
     38 H7          2.3973    5.7675   -3.2465 H         1 <0>         0.1203
     39 H8          2.0842    8.2107    1.0074 H         1 <0>         0.1315
     40 H9          2.2852    6.0273    2.1402 H         1 <0>         0.0835
     41 H10         0.6030    5.7943    1.6154 H         1 <0>         0.0814
     42 H11         1.5061    3.6136    2.1401 H         1 <0>         0.0764
     43 H12         2.9561    3.9187    1.1492 H         1 <0>         0.0718
     44 H13        -0.6667    4.9000   -1.7726 H         1 <0>         0.1271
     45 H14        -2.0139    4.3869   -3.7678 H         1 <0>         0.1245
     46 H15         1.2303    2.1074   -5.3630 H         1 <0>         0.1307
     47 H16         2.5745    2.6333   -3.3692 H         1 <0>         0.1327
     48 H17        -3.1189    3.0967   -4.9934 H         1 <0>         0.0855
     49 H18        -2.4917    4.5542   -5.8001 H         1 <0>         0.1070
     50 H19        -4.1940    3.5212   -7.2241 H         1 <0>         0.1461
     51 H20        -2.5992    3.3292   -7.9909 H         1 <0>         0.1419
     52 H21        -3.3828    1.0342   -5.0879 H         1 <0>         0.1356
     53 H22        -4.9005    1.8039   -5.6546 H         1 <0>         0.1332
     54 H23        -5.5039   -0.5289   -5.6927 H         1 <0>         0.1160
     55 H24        -3.8689   -1.0276   -6.2382 H         1 <0>         0.0985
     56 H25        -6.1404    0.1552   -7.8390 H         1 <0>         0.1035
     57 H26        -4.8321   -0.9427   -8.3736 H         1 <0>         0.1052
     58 H27        -4.9292    1.9616   -8.5548 H         1 <0>         0.1310
     59 H28        -3.6401    0.8664   -9.1239 H         1 <0>         0.1339
     60 H29        -0.9592    1.9054    0.0170 H         1 <0>         0.1159
     61 H30        -0.9258   -0.5567    0.0083 H         1 <0>         0.1183
     62 H31         1.2231   -1.7588   -0.0188 H         1 <0>         0.1204
     63 H32         3.3385   -0.4987   -0.0335 H         1 <0>         0.1222
     64 H33         3.3051    1.9634   -0.0208 H         1 <0>         0.1210
     65 N1         -3.4128    1.5555   -7.1471 N.4       1 <0>        -0.3956
     66 H34        -2.4968    1.0974   -7.2191 H         1 <0>         0.4365
@<TRIPOS>BOND
     1    1    2 1
     2    1   34 1
     3    1   35 1
     4    1   36 1
     5    2    3 1
     6    3    8 ar
     7    3    4 ar
     8    4    5 ar
     9    4   37 1
    10    5    6 ar
    11    5   38 1
    12    6   13 1
    13    6    7 ar
    14    7    8 ar
    15    7    9 1
    16    8   39 1
    17    9   10 1
    18    9   40 1
    19    9   41 1
    20   10   11 1
    21   10   42 1
    22   10   43 1
    23   11   12 1
    24   11   13 1
    25   11   28 1
    26   13   14 1
    27   13   15 1
    28   15   20 ar
    29   15   16 ar
    30   16   17 ar
    31   16   44 1
    32   17   18 ar
    33   17   45 1
    34   18   19 ar
    35   18   21 1
    36   19   20 ar
    37   19   46 1
    38   20   47 1
    39   21   22 1
    40   22   23 1
    41   22   48 1
    42   22   49 1
    43   23   50 1
    44   23   51 1
    45   23   65 1
    46   24   25 1
    47   24   52 1
    48   24   53 1
    49   24   65 1
    50   25   26 1
    51   25   54 1
    52   25   55 1
    53   26   27 1
    54   26   56 1
    55   26   57 1
    56   27   58 1
    57   27   59 1
    58   27   65 1
    59   28   33 ar
    60   28   29 ar
    61   29   30 ar
    62   29   60 1
    63   30   31 ar
    64   30   61 1
    65   31   32 ar
    66   31   62 1
    67   32   33 ar
    68   32   63 1
    69   33   64 1
    70   65   66 1
@<TRIPOS>MOLECULE
ZINC13780523
   66    70     0     0     0
SMALL
USER_CHARGES
1-[2-[4-[(1R,2R)-6-methoxy-2-phenyl-tetralin-1-yl]phenoxy]ethyl]pyrrolidine
@<TRIPOS>ATOM
      1 C1         -4.4507    2.4195    5.9915 C.3       1 <0>         0.0271
      2 O1         -5.2465    2.4901    4.8067 O.3       1 <0>        -0.3161
      3 C2         -4.6077    2.8184    3.6530 C.ar      1 <0>         0.1338
      4 C3         -3.2427    3.0679    3.6582 C.ar      1 <0>        -0.2094
      5 C4         -2.6048    3.4020    2.4830 C.ar      1 <0>        -0.0690
      6 C5         -3.3156    3.4911    1.2923 C.ar      1 <0>        -0.1145
      7 C6         -4.6694    3.2393    1.2837 C.ar      1 <0>        -0.0289
      8 C7         -5.3152    2.9051    2.4663 C.ar      1 <0>        -0.1554
      9 C8         -5.4980    3.3028    0.0272 C.3       1 <0>        -0.0849
     10 C9         -4.7629    4.0808   -1.0622 C.3       1 <0>        -0.1118
     11 C10        -3.3510    3.4995   -1.2012 C.3       1 <0>        -0.0389
     12 H1         -3.4077    2.4150   -1.2948 H         1 <0>         0.0842
     13 C11        -2.5534    3.8670    0.0483 C.3       1 <0>         0.0086
     14 H2         -2.3662    4.9408    0.0522 H         1 <0>         0.0904
     15 C12        -1.2372    3.1333    0.0313 C.ar      1 <0>        -0.0814
     16 C13        -1.2178    1.7508    0.0173 C.ar      1 <0>        -0.0652
     17 C14        -0.0126    1.0758    0.0080 C.ar      1 <0>        -0.1381
     18 C15         1.1790    1.7863    0.0004 C.ar      1 <0>         0.1076
     19 C16         1.1568    3.1735    0.0081 C.ar      1 <0>        -0.1988
     20 C17        -0.0511    3.8437    0.0233 C.ar      1 <0>        -0.0723
     21 O2          2.3659    1.1247   -0.0150 O.3       1 <0>        -0.3280
     22 C18         3.5525    1.9209   -0.0220 C.3       1 <0>         0.0273
     23 C19         4.7797    1.0073   -0.0392 C.3       1 <0>         0.0090
     24 C20         4.7033    1.1631   -2.4678 C.3       1 <0>        -0.0114
     25 C21         5.2696    0.3129   -3.6327 C.3       1 <0>        -0.1465
     26 C22         6.4271   -0.4632   -2.9634 C.3       1 <0>        -0.1465
     27 C23         6.0972   -0.4590   -1.4592 C.3       1 <0>        -0.0107
     28 C24        -2.6815    4.0805   -2.4199 C.ar      1 <0>        -0.0704
     29 C25        -2.5139    5.4482   -2.5304 C.ar      1 <0>        -0.1145
     30 C26        -1.8958    5.9808   -3.6463 C.ar      1 <0>        -0.1160
     31 C27        -1.4538    5.1464   -4.6560 C.ar      1 <0>        -0.1237
     32 C28        -1.6257    3.7791   -4.5476 C.ar      1 <0>        -0.1190
     33 C29        -2.2399    3.2461   -3.4297 C.ar      1 <0>        -0.1135
     34 H3         -3.6733    1.6664    5.8626 H         1 <0>         0.0549
     35 H4         -3.9896    3.3894    6.1778 H         1 <0>         0.0561
     36 H5         -5.0821    2.1488    6.8377 H         1 <0>         0.1030
     37 H6         -2.6827    3.0010    4.5793 H         1 <0>         0.1271
     38 H7         -1.5425    3.5967    2.4877 H         1 <0>         0.1194
     39 H8         -6.3777    2.7115    2.4605 H         1 <0>         0.1317
     40 H9         -5.6950    2.2902   -0.3250 H         1 <0>         0.0822
     41 H10        -6.4445    3.7973    0.2455 H         1 <0>         0.0834
     42 H11        -5.2958    3.9810   -2.0078 H         1 <0>         0.0764
     43 H12        -4.7021    5.1331   -0.7844 H         1 <0>         0.0715
     44 H13        -2.1457    1.1981    0.0183 H         1 <0>         0.1320
     45 H14         0.0021   -0.0041    0.0020 H         1 <0>         0.1305
     46 H15         2.0830    3.7288    0.0019 H         1 <0>         0.1247
     47 H16        -0.0689    4.9236    0.0293 H         1 <0>         0.1277
     48 H17         3.5592    2.5551   -0.9085 H         1 <0>         0.0855
     49 H18         3.5766    2.5449    0.8714 H         1 <0>         0.1070
     50 H19         5.6833    1.6110    0.0450 H         1 <0>         0.1461
     51 H20         4.7273    0.3127    0.7992 H         1 <0>         0.1419
     52 H21         3.6627    1.4277   -2.6551 H         1 <0>         0.1356
     53 H22         5.3073    2.0576   -2.3153 H         1 <0>         0.1333
     54 H23         5.6454    0.9535   -4.4306 H         1 <0>         0.1159
     55 H24         4.5147   -0.3742   -4.0149 H         1 <0>         0.0986
     56 H25         7.3758    0.0421   -3.1441 H         1 <0>         0.1035
     57 H26         6.4644   -1.4855   -3.3397 H         1 <0>         0.1051
     58 H27         6.8807    0.0618   -0.9088 H         1 <0>         0.1310
     59 H28         6.0039   -1.4817   -1.0937 H         1 <0>         0.1339
     60 H29        -2.8628    6.1003   -1.7435 H         1 <0>         0.1207
     61 H30        -1.7612    7.0490   -3.7308 H         1 <0>         0.1216
     62 H31        -0.9739    5.5628   -5.5293 H         1 <0>         0.1199
     63 H32        -1.2804    3.1272   -5.3364 H         1 <0>         0.1187
     64 H33        -2.3746    2.1779   -3.3452 H         1 <0>         0.1175
     65 N1          4.8216    0.2456   -1.3236 N.4       1 <0>        -0.3957
     66 H34         4.0488   -0.4302   -1.3396 H         1 <0>         0.4365
@<TRIPOS>BOND
     1    1    2 1
     2    1   34 1
     3    1   35 1
     4    1   36 1
     5    2    3 1
     6    3    8 ar
     7    3    4 ar
     8    4    5 ar
     9    4   37 1
    10    5    6 ar
    11    5   38 1
    12    6   13 1
    13    6    7 ar
    14    7    8 ar
    15    7    9 1
    16    8   39 1
    17    9   10 1
    18    9   40 1
    19    9   41 1
    20   10   11 1
    21   10   42 1
    22   10   43 1
    23   11   12 1
    24   11   13 1
    25   11   28 1
    26   13   14 1
    27   13   15 1
    28   15   20 ar
    29   15   16 ar
    30   16   17 ar
    31   16   44 1
    32   17   18 ar
    33   17   45 1
    34   18   19 ar
    35   18   21 1
    36   19   20 ar
    37   19   46 1
    38   20   47 1
    39   21   22 1
    40   22   23 1
    41   22   48 1
    42   22   49 1
    43   23   50 1
    44   23   51 1
    45   23   65 1
    46   24   25 1
    47   24   52 1
    48   24   53 1
    49   24   65 1
    50   25   26 1
    51   25   54 1
    52   25   55 1
    53   26   27 1
    54   26   56 1
    55   26   57 1
    56   27   58 1
    57   27   59 1
    58   27   65 1
    59   28   33 ar
    60   28   29 ar
    61   29   30 ar
    62   29   60 1
    63   30   31 ar
    64   30   61 1
    65   31   32 ar
    66   31   62 1
    67   32   33 ar
    68   32   63 1
    69   33   64 1
    70   65   66 1
@<TRIPOS>MOLECULE
ZINC13780524
   66    70     0     0     0
SMALL
USER_CHARGES
1-[2-[4-[(1S,2R)-6-methoxy-2-phenyl-tetralin-1-yl]phenoxy]ethyl]pyrrolidine
@<TRIPOS>ATOM
      1 C1          0.4838    1.2468   -7.5246 C.3       1 <0>         0.0269
      2 O1          1.3735    0.9057   -6.4596 O.3       1 <0>        -0.3163
      3 C2          0.9355    1.1325   -5.1932 C.ar      1 <0>         0.1338
      4 C3         -0.3244    1.6722   -4.9771 C.ar      1 <0>        -0.2088
      5 C4         -0.7584    1.8996   -3.6888 C.ar      1 <0>        -0.0694
      6 C5          0.0540    1.5936   -2.6038 C.ar      1 <0>        -0.1130
      7 C6          1.3032    1.0542   -2.8156 C.ar      1 <0>        -0.0303
      8 C7          1.7438    0.8258   -4.1121 C.ar      1 <0>        -0.1558
      9 C8          2.2323    0.6922   -1.6863 C.3       1 <0>        -0.0862
     10 C9          1.8024    1.3836   -0.3941 C.3       1 <0>        -0.1215
     11 C10         0.3107    1.1074   -0.1711 C.3       1 <0>        -0.0403
     12 H1          0.1161    0.0395   -0.2709 H         1 <0>         0.0900
     13 C11        -0.4838    1.8758   -1.2251 C.3       1 <0>         0.0086
     14 H2         -1.5298    1.5728   -1.1783 H         1 <0>         0.0893
     15 C12        -0.3822    3.3530   -0.9448 C.ar      1 <0>        -0.0789
     16 C13        -1.4155    4.0054   -0.2979 C.ar      1 <0>        -0.0640
     17 C14        -1.3224    5.3583   -0.0347 C.ar      1 <0>        -0.1972
     18 C15        -0.1956    6.0647   -0.4299 C.ar      1 <0>         0.1080
     19 C16         0.8373    5.4089   -1.0839 C.ar      1 <0>        -0.1417
     20 C17         0.7416    4.0548   -1.3401 C.ar      1 <0>        -0.0715
     21 O2         -0.1040    7.3968   -0.1771 O.3       1 <0>        -0.3281
     22 C18        -1.2052    8.0059    0.5000 C.3       1 <0>         0.0277
     23 C19        -0.9227    9.4969    0.6945 C.3       1 <0>         0.0088
     24 C20        -2.0694    9.8601   -1.4223 C.3       1 <0>        -0.0116
     25 C21        -2.0863   11.0006   -2.4710 C.3       1 <0>        -0.1463
     26 C22        -1.5944   12.2221   -1.6612 C.3       1 <0>        -0.1466
     27 C23        -0.8254   11.6292   -0.4660 C.3       1 <0>        -0.0106
     28 C24        -0.0909    1.5700    1.2057 C.ar      1 <0>        -0.0756
     29 C25         0.4262    2.7451    1.7182 C.ar      1 <0>        -0.1041
     30 C26         0.0544    3.1717    2.9794 C.ar      1 <0>        -0.1219
     31 C27        -0.8275    2.4186    3.7317 C.ar      1 <0>        -0.1217
     32 C28        -1.3406    1.2409    3.2213 C.ar      1 <0>        -0.1179
     33 C29        -0.9721    0.8165    1.9584 C.ar      1 <0>        -0.1139
     34 H3          0.9552    1.0161   -8.4799 H         1 <0>         0.1030
     35 H4         -0.4376    0.6729   -7.4262 H         1 <0>         0.0569
     36 H5          0.2551    2.3116   -7.4800 H         1 <0>         0.0547
     37 H6         -0.9624    1.9127   -5.8147 H         1 <0>         0.1280
     38 H7         -1.7390    2.3199   -3.5211 H         1 <0>         0.1209
     39 H8          2.7247    0.4057   -4.2786 H         1 <0>         0.1315
     40 H9          3.2454    1.0036   -1.9406 H         1 <0>         0.0818
     41 H10         2.2152   -0.3876   -1.5390 H         1 <0>         0.0847
     42 H11         1.9681    2.4575   -0.4797 H         1 <0>         0.0755
     43 H12         2.3780    0.9889    0.4431 H         1 <0>         0.0754
     44 H13        -2.2944    3.4559    0.0056 H         1 <0>         0.1258
     45 H14        -2.1280    5.8667    0.4742 H         1 <0>         0.1237
     46 H15         1.7154    5.9567   -1.3928 H         1 <0>         0.1297
     47 H16         1.5454    3.5439   -1.8492 H         1 <0>         0.1365
     48 H17        -2.1105    7.8821   -0.0942 H         1 <0>         0.0849
     49 H18        -1.3410    7.5320    1.4722 H         1 <0>         0.1072
     50 H19        -1.7204    9.9435    1.2881 H         1 <0>         0.1459
     51 H20         0.0286    9.6221    1.2118 H         1 <0>         0.1419
     52 H21        -1.9773    8.8899   -1.9106 H         1 <0>         0.1355
     53 H22        -2.9640    9.8958   -0.8007 H         1 <0>         0.1332
     54 H23        -3.0969   11.1667   -2.8440 H         1 <0>         0.1159
     55 H24        -1.4027   10.7807   -3.2910 H         1 <0>         0.0983
     56 H25        -2.4426   12.8104   -1.3111 H         1 <0>         0.1035
     57 H26        -0.9316   12.8374   -2.2697 H         1 <0>         0.1051
     58 H27        -1.3091   11.9184    0.4671 H         1 <0>         0.1310
     59 H28         0.2065   11.9802   -0.4735 H         1 <0>         0.1339
     60 H29         1.1182    3.3316    1.1320 H         1 <0>         0.1181
     61 H30         0.4550    4.0920    3.3781 H         1 <0>         0.1146
     62 H31        -1.1159    2.7505    4.7182 H         1 <0>         0.1188
     63 H32        -2.0296    0.6525    3.8091 H         1 <0>         0.1218
     64 H33        -1.3730   -0.1037    1.5596 H         1 <0>         0.1216
     65 N1         -0.8672   10.1760   -0.6350 N.4       1 <0>        -0.3956
     66 H34        -0.0299    9.8613   -1.1390 H         1 <0>         0.4365
@<TRIPOS>BOND
     1    1    2 1
     2    1   34 1
     3    1   35 1
     4    1   36 1
     5    2    3 1
     6    3    8 ar
     7    3    4 ar
     8    4    5 ar
     9    4   37 1
    10    5    6 ar
    11    5   38 1
    12    6   13 1
    13    6    7 ar
    14    7    8 ar
    15    7    9 1
    16    8   39 1
    17    9   10 1
    18    9   40 1
    19    9   41 1
    20   10   11 1
    21   10   42 1
    22   10   43 1
    23   11   12 1
    24   11   13 1
    25   11   28 1
    26   13   14 1
    27   13   15 1
    28   15   20 ar
    29   15   16 ar
    30   16   17 ar
    31   16   44 1
    32   17   18 ar
    33   17   45 1
    34   18   19 ar
    35   18   21 1
    36   19   20 ar
    37   19   46 1
    38   20   47 1
    39   21   22 1
    40   22   23 1
    41   22   48 1
    42   22   49 1
    43   23   50 1
    44   23   51 1
    45   23   65 1
    46   24   25 1
    47   24   52 1
    48   24   53 1
    49   24   65 1
    50   25   26 1
    51   25   54 1
    52   25   55 1
    53   26   27 1
    54   26   56 1
    55   26   57 1
    56   27   58 1
    57   27   59 1
    58   27   65 1
    59   28   33 ar
    60   28   29 ar
    61   29   30 ar
    62   29   60 1
    63   30   31 ar
    64   30   61 1
    65   31   32 ar
    66   31   62 1
    67   32   33 ar
    68   32   63 1
    69   33   64 1
    70   65   66 1
@<TRIPOS>MOLECULE
ZINC03817763
   30    32     0     0     0
SMALL
USER_CHARGES

@<TRIPOS>ATOM
      1 C1         -0.0159    1.3221    0.0093 C.2       1 <0>        -0.1591
      2 C2          0.0021   -0.0041    0.0020 C.2       1 <0>        -0.1281
      3 C3          1.2912   -0.7252   -0.0142 C.ar      1 <0>        -0.0066
      4 C4          2.4903   -0.0156   -0.0160 C.ar      1 <0>        -0.1156
      5 C5          3.7031   -0.6909   -0.0313 C.ar      1 <0>         0.1171
      6 C6          3.7359   -2.0733   -0.0452 C.ar      1 <0>        -0.0900
      7 C7          2.5423   -2.8003   -0.0435 C.ar      1 <0>         0.0456
      8 C8          1.3141   -2.1234   -0.0219 C.ar      1 <0>         0.0133
      9 O1          0.3530   -3.0735   -0.0178 O.3       1 <0>        -0.1999
     10 C9          0.9549   -4.2778   -0.0300 C.2       1 <0>         0.2963
     11 N1          2.2557   -4.1281   -0.0539 N.2       1 <0>        -0.4620
     12 C10         0.2514   -5.5765   -0.0303 C.ar      1 <0>        -0.0126
     13 C11        -1.1446   -5.6165   -0.0230 C.ar      1 <0>        -0.0728
     14 C12        -1.7982   -6.8298   -0.0237 C.ar      1 <0>        -0.1183
     15 C13        -1.0713   -8.0128   -0.0312 C.ar      1 <0>         0.1045
     16 C14         0.3193   -7.9786   -0.0385 C.ar      1 <0>         0.0748
     17 C15         0.9806   -6.7676   -0.0437 C.ar      1 <0>        -0.0848
     18 F1          1.0228   -9.1319   -0.0454 F         1 <0>        -0.1229
     19 O2         -1.7197   -9.2065   -0.0310 O.3       1 <0>        -0.4845
     20 O3          4.8670    0.0119   -0.0330 O.3       1 <0>        -0.4893
     21 H1          0.9119    1.8747    0.0034 H         1 <0>         0.1053
     22 H2         -0.9584    1.8493    0.0166 H         1 <0>         0.1124
     23 H3         -0.9258   -0.5567    0.0079 H         1 <0>         0.1245
     24 H4          2.4761    1.0643   -0.0060 H         1 <0>         0.1519
     25 H5          4.6836   -2.5910   -0.0577 H         1 <0>         0.1462
     26 H6         -1.7115   -4.6972   -0.0164 H         1 <0>         0.1468
     27 H7         -2.8778   -6.8605   -0.0180 H         1 <0>         0.1523
     28 H8          2.0602   -6.7409   -0.0539 H         1 <0>         0.1587
     29 H9         -1.9124   -9.5496   -0.9143 H         1 <0>         0.4003
     30 H10         5.2101    0.2068    0.8499 H         1 <0>         0.3966
@<TRIPOS>BOND
     1    1    2 2
     2    1   21 1
     3    1   22 1
     4    2    3 1
     5    2   23 1
     6    3    8 ar
     7    3    4 ar
     8    4    5 ar
     9    4   24 1
    10    5    6 ar
    11    5   20 1
    12    6    7 ar
    13    6   25 1
    14    7   11 1
    15    7    8 ar
    16    8    9 1
    17    9   10 1
    18   10   11 2
    19   10   12 1
    20   12   17 ar
    21   12   13 ar
    22   13   14 ar
    23   13   26 1
    24   14   15 ar
    25   14   27 1
    26   15   16 ar
    27   15   19 1
    28   16   17 ar
    29   16   18 1
    30   17   28 1
    31   19   29 1
    32   20   30 1
@<TRIPOS>MOLECULE
ZINC00902197
   59    61     0     0     0
SMALL
USER_CHARGES

@<TRIPOS>ATOM
      1 C1          0.8254   -1.1911    0.5458 C.3       1 <0>        -0.1467
      2 C2          0.0049   -0.0175    0.0070 C.3       1 <0>        -0.0930
      3 C3         -1.4365   -0.4345   -0.1329 C.2       1 <0>        -0.0412
      4 C4         -1.8945   -0.9031   -1.3201 C.2       1 <0>        -0.0542
      5 C5         -1.0207   -0.8745   -2.5135 C.ar      1 <0>        -0.0505
      6 C6         -0.5927    0.3462   -3.0382 C.ar      1 <0>        -0.0904
      7 C7          0.2219    0.3688   -4.1500 C.ar      1 <0>        -0.1432
      8 C8          0.6163   -0.8208   -4.7483 C.ar      1 <0>         0.1114
      9 C9          0.1922   -2.0372   -4.2295 C.ar      1 <0>        -0.1430
     10 C10        -0.6173   -2.0682   -3.1143 C.ar      1 <0>        -0.0865
     11 O1          1.4188   -0.7945   -5.8442 O.3       1 <0>        -0.4998
     12 C11        -3.2681   -1.4431   -1.4219 C.ar      1 <0>        -0.0476
     13 C12        -3.6201   -2.5973   -0.7200 C.ar      1 <0>        -0.0585
     14 C13        -4.9009   -3.0973   -0.8174 C.ar      1 <0>        -0.1372
     15 C14        -5.8406   -2.4544   -1.6126 C.ar      1 <0>         0.1115
     16 C15        -5.4943   -1.3060   -2.3124 C.ar      1 <0>        -0.1995
     17 C16        -4.2171   -0.7965   -2.2156 C.ar      1 <0>        -0.0636
     18 O2         -7.1019   -2.9506   -1.7064 O.3       1 <0>        -0.3290
     19 C17        -8.0181   -2.2400   -2.5417 C.3       1 <0>         0.0246
     20 C18        -9.3768   -2.9431   -2.5220 C.3       1 <0>        -0.0017
     21 N1         -9.9465   -2.8699   -1.1700 N.4       1 <0>        -0.3886
     22 C19       -10.2293   -1.4683   -0.8330 C.3       1 <0>        -0.0545
     23 C20       -11.1926   -3.6463   -1.1210 C.3       1 <0>        -0.0476
     24 C21        -2.3462   -0.3332    1.0179 C.ar      1 <0>        -0.0458
     25 C22        -3.4325    0.5475    0.9802 C.ar      1 <0>        -0.1002
     26 C23        -4.2808    0.6367    2.0634 C.ar      1 <0>        -0.1203
     27 C24        -4.0597   -0.1419    3.1862 C.ar      1 <0>        -0.1181
     28 C25        -2.9870   -1.0154    3.2316 C.ar      1 <0>        -0.1170
     29 C26        -2.1333   -1.1212    2.1541 C.ar      1 <0>        -0.1062
     30 H1          1.8836   -0.9299    0.5351 H         1 <0>         0.0624
     31 H2          0.5160   -1.4121    1.5673 H         1 <0>         0.0568
     32 H3          0.6611   -2.0675   -0.0812 H         1 <0>         0.0566
     33 H4          0.0747    0.8224    0.6983 H         1 <0>         0.0736
     34 H5          0.3931    0.2804   -0.9670 H         1 <0>         0.0821
     35 H6         -0.8996    1.2717   -2.5739 H         1 <0>         0.1277
     36 H7          0.5534    1.3128   -4.5565 H         1 <0>         0.1319
     37 H8          0.5005   -2.9602   -4.6979 H         1 <0>         0.1307
     38 H9         -0.9431   -3.0147   -2.7087 H         1 <0>         0.1250
     39 H10         2.3639   -0.8127   -5.6402 H         1 <0>         0.3948
     40 H11        -2.8897   -3.0979   -0.1017 H         1 <0>         0.1325
     41 H12        -5.1738   -3.9904   -0.2749 H         1 <0>         0.1321
     42 H13        -6.2278   -0.8088   -2.9298 H         1 <0>         0.1265
     43 H14        -3.9499    0.0993   -2.7563 H         1 <0>         0.1290
     44 H15        -8.1310   -1.2207   -2.1723 H         1 <0>         0.0864
     45 H16        -7.6360   -2.2163   -3.5623 H         1 <0>         0.1085
     46 H17       -10.0493   -2.4539   -3.2267 H         1 <0>         0.1492
     47 H18        -9.2496   -3.9876   -2.8066 H         1 <0>         0.1425
     48 H19       -10.9410   -1.0587   -1.5499 H         1 <0>         0.1246
     49 H20       -10.6520   -1.4139    0.1702 H         1 <0>         0.1273
     50 H21        -9.3047   -0.8922   -0.8694 H         1 <0>         0.1214
     51 H22       -10.9828   -4.6863   -1.3710 H         1 <0>         0.1248
     52 H23       -11.6153   -3.5919   -0.1177 H         1 <0>         0.1258
     53 H24       -11.9043   -3.2367   -1.8378 H         1 <0>         0.1231
     54 H25        -3.6059    1.1562    0.1051 H         1 <0>         0.1183
     55 H26        -5.1199    1.3161    2.0359 H         1 <0>         0.1196
     56 H27        -4.7277   -0.0673    4.0316 H         1 <0>         0.1206
     57 H28        -2.8211   -1.6193    4.1115 H         1 <0>         0.1239
     58 H29        -1.2997   -1.8070    2.1889 H         1 <0>         0.1249
     59 H30        -9.2877   -3.2489   -0.5064 H         1 <0>         0.4339
@<TRIPOS>BOND
     1    1    2 1
     2    1   30 1
     3    1   31 1
     4    1   32 1
     5    2    3 1
     6    2   33 1
     7    2   34 1
     8    3    4 2
     9    3   24 1
    10    4    5 1
    11    4   12 1
    12    5   10 ar
    13    5    6 ar
    14    6    7 ar
    15    6   35 1
    16    7    8 ar
    17    7   36 1
    18    8    9 ar
    19    8   11 1
    20    9   10 ar
    21    9   37 1
    22   10   38 1
    23   11   39 1
    24   12   17 ar
    25   12   13 ar
    26   13   14 ar
    27   13   40 1
    28   14   15 ar
    29   14   41 1
    30   15   16 ar
    31   15   18 1
    32   16   17 ar
    33   16   42 1
    34   17   43 1
    35   18   19 1
    36   19   20 1
    37   19   44 1
    38   19   45 1
    39   20   21 1
    40   20   46 1
    41   20   47 1
    42   21   22 1
    43   21   23 1
    44   21   59 1
    45   22   48 1
    46   22   49 1
    47   22   50 1
    48   23   51 1
    49   23   52 1
    50   23   53 1
    51   24   29 ar
    52   24   25 ar
    53   25   26 ar
    54   25   54 1
    55   26   27 ar
    56   26   55 1
    57   27   28 ar
    58   27   56 1
    59   28   29 ar
    60   28   57 1
    61   29   58 1
@<TRIPOS>MOLECULE
ZINC00056546
   42    43     0     0     0
SMALL
USER_CHARGES

@<TRIPOS>ATOM
      1 C1         -0.0187    1.5258    0.0104 C.3       1 <0>        -0.1532
      2 C2          0.0021   -0.0041    0.0020 C.3       1 <0>        -0.1198
      3 C3          0.7182   -0.4975   -1.2568 C.3       1 <0>        -0.0408
      4 H1          0.2444   -0.0644   -2.1377 H         1 <0>         0.0807
      5 C4          2.1652   -0.0794   -1.2080 C.ar      1 <0>        -0.0708
      6 C5          2.9750   -0.5150   -0.1754 C.ar      1 <0>        -0.0984
      7 C6          4.3017   -0.1328   -0.1282 C.ar      1 <0>        -0.1420
      8 C7          4.8215    0.6884   -1.1182 C.ar      1 <0>         0.0981
      9 C8          4.0070    1.1237   -2.1535 C.ar      1 <0>        -0.1423
     10 C9          2.6823    0.7345   -2.1990 C.ar      1 <0>        -0.0969
     11 O1          6.1261    1.0662   -1.0737 O.3       1 <0>        -0.5010
     12 C10         0.6303   -2.0233   -1.3286 C.3       1 <0>        -0.0409
     13 H2          1.1041   -2.4564   -0.4477 H         1 <0>         0.0807
     14 C11        -0.8388   -2.4477   -1.3781 C.3       1 <0>        -0.1198
     15 C12        -0.9308   -3.9740   -1.3242 C.3       1 <0>        -0.1532
     16 C13         1.3357   -2.5093   -2.5685 C.ar      1 <0>        -0.0708
     17 C14         0.9116   -2.0859   -3.8145 C.ar      1 <0>        -0.0984
     18 C15         1.5563   -2.5303   -4.9526 C.ar      1 <0>        -0.1420
     19 C16         2.6303   -3.4018   -4.8446 C.ar      1 <0>         0.0981
     20 C17         3.0541   -3.8248   -3.5931 C.ar      1 <0>        -0.1423
     21 C18         2.4094   -3.3734   -2.4578 C.ar      1 <0>        -0.0969
     22 O2          3.2658   -3.8408   -5.9627 O.3       1 <0>        -0.5010
     23 H3          1.0039    1.9031    0.0027 H         1 <0>         0.0556
     24 H4         -0.5459    1.8868   -0.8726 H         1 <0>         0.0534
     25 H5         -0.5289    1.8773    0.9072 H         1 <0>         0.0543
     26 H6          0.5293   -0.3651    0.8851 H         1 <0>         0.0647
     27 H7         -1.0205   -0.3814    0.0098 H         1 <0>         0.0718
     28 H8          2.5699   -1.1542    0.5951 H         1 <0>         0.1235
     29 H9          4.9337   -0.4727    0.6790 H         1 <0>         0.1260
     30 H10         4.4092    1.7631   -2.9253 H         1 <0>         0.1254
     31 H11         2.0489    1.0695   -3.0071 H         1 <0>         0.1223
     32 H12         6.7260    0.4637   -1.5345 H         1 <0>         0.3894
     33 H13        -1.3691   -2.0214   -0.5265 H         1 <0>         0.0718
     34 H14        -1.2896   -2.0891   -2.3034 H         1 <0>         0.0647
     35 H15        -0.4005   -4.4003   -2.1757 H         1 <0>         0.0556
     36 H16        -0.4799   -4.3327   -0.3988 H         1 <0>         0.0534
     37 H17        -1.9774   -4.2764   -1.3594 H         1 <0>         0.0543
     38 H18         0.0755   -1.4074   -3.8981 H         1 <0>         0.1235
     39 H19         1.2242   -2.1999   -5.9258 H         1 <0>         0.1260
     40 H20         3.8899   -4.5032   -3.5064 H         1 <0>         0.1254
     41 H21         2.7418   -3.6989   -1.4831 H         1 <0>         0.1223
     42 H22         4.0029   -3.2805   -6.2417 H         1 <0>         0.3894
@<TRIPOS>BOND
     1    1    2 1
     2    1   23 1
     3    1   24 1
     4    1   25 1
     5    2    3 1
     6    2   26 1
     7    2   27 1
     8    3    4 1
     9    3    5 1
    10    3   12 1
    11    5   10 ar
    12    5    6 ar
    13    6    7 ar
    14    6   28 1
    15    7    8 ar
    16    7   29 1
    17    8    9 ar
    18    8   11 1
    19    9   10 ar
    20    9   30 1
    21   10   31 1
    22   11   32 1
    23   12   13 1
    24   12   14 1
    25   12   16 1
    26   14   15 1
    27   14   33 1
    28   14   34 1
    29   15   35 1
    30   15   36 1
    31   15   37 1
    32   16   21 ar
    33   16   17 ar
    34   17   18 ar
    35   17   38 1
    36   18   19 ar
    37   18   39 1
    38   19   20 ar
    39   19   22 1
    40   20   21 ar
    41   20   40 1
    42   21   41 1
    43   22   42 1
@<TRIPOS>MOLECULE
ZINC00056547
   42    43     0     0     0
SMALL
USER_CHARGES

@<TRIPOS>ATOM
      1 C1         -1.5467   -0.2880   -0.3561 C.3       1 <0>        -0.1522
      2 C2         -0.0510   -0.1076   -0.0889 C.3       1 <0>        -0.1157
      3 C3          0.7461   -0.5985   -1.2992 C.3       1 <0>        -0.0399
      4 H1          0.3928   -0.0912   -2.1969 H         1 <0>         0.0808
      5 C4          0.5575   -2.0855   -1.4553 C.ar      1 <0>        -0.0744
      6 C5          0.9307   -2.9395   -0.4340 C.ar      1 <0>        -0.0986
      7 C6          0.7593   -4.3030   -0.5748 C.ar      1 <0>        -0.1417
      8 C7          0.2117   -4.8152   -1.7420 C.ar      1 <0>         0.0986
      9 C8         -0.1625   -3.9561   -2.7651 C.ar      1 <0>        -0.1420
     10 C9          0.0063   -2.5930   -2.6173 C.ar      1 <0>        -0.1007
     11 O1          0.0424   -6.1562   -1.8832 O.3       1 <0>        -0.5008
     12 C10         2.2304   -0.2918   -1.0907 C.3       1 <0>        -0.0398
     13 H2          2.5801   -0.7871   -0.1849 H         1 <0>         0.0808
     14 C11         3.0300   -0.8012   -2.2915 C.3       1 <0>        -0.1161
     15 C12         4.5247   -0.6074   -2.0283 C.3       1 <0>        -0.1524
     16 C13         2.4216    1.1969   -0.9549 C.ar      1 <0>        -0.0743
     17 C14         2.0600    2.0365   -1.9922 C.ar      1 <0>        -0.0987
     18 C15         2.2347    3.4015   -1.8704 C.ar      1 <0>        -0.1418
     19 C16         2.7728    3.9296   -0.7059 C.ar      1 <0>         0.0985
     20 C17         3.1343    3.0850    0.3337 C.ar      1 <0>        -0.1420
     21 C18         2.9529    1.7212    0.2089 C.ar      1 <0>        -0.1006
     22 O2          2.9460    5.2719   -0.5838 O.3       1 <0>        -0.5008
     23 H3         -1.8430    0.3362   -1.1991 H         1 <0>         0.0527
     24 H4         -1.7508   -1.3332   -0.5884 H         1 <0>         0.0553
     25 H5         -2.1117    0.0046    0.5289 H         1 <0>         0.0531
     26 H6          0.1627    0.9473    0.0833 H         1 <0>         0.0682
     27 H7          0.2330   -0.6843    0.7913 H         1 <0>         0.0632
     28 H8          1.3570   -2.5403    0.4745 H         1 <0>         0.1246
     29 H9          1.0516   -4.9697    0.2230 H         1 <0>         0.1270
     30 H10        -0.5889   -4.3524   -3.6748 H         1 <0>         0.1272
     31 H11        -0.2889   -1.9235   -3.4117 H         1 <0>         0.1247
     32 H12        -0.8148   -6.4792   -1.5734 H         1 <0>         0.3903
     33 H13         2.8222   -1.8604   -2.4435 H         1 <0>         0.0689
     34 H14         2.7426   -0.2431   -3.1826 H         1 <0>         0.0632
     35 H15         4.7325    0.4518   -1.8764 H         1 <0>         0.0553
     36 H16         4.8121   -1.1655   -1.1373 H         1 <0>         0.0529
     37 H17         5.0943   -0.9703   -2.8839 H         1 <0>         0.0535
     38 H18         1.6411    1.6249   -2.8986 H         1 <0>         0.1247
     39 H19         1.9528    4.0569   -2.6812 H         1 <0>         0.1270
     40 H20         3.5535    3.4937    1.2412 H         1 <0>         0.1272
     41 H21         3.2301    1.0636    1.0196 H         1 <0>         0.1247
     42 H22         2.1847    5.7341   -0.2069 H         1 <0>         0.3902
@<TRIPOS>BOND
     1    1    2 1
     2    1   23 1
     3    1   24 1
     4    1   25 1
     5    2    3 1
     6    2   26 1
     7    2   27 1
     8    3    4 1
     9    3    5 1
    10    3   12 1
    11    5   10 ar
    12    5    6 ar
    13    6    7 ar
    14    6   28 1
    15    7    8 ar
    16    7   29 1
    17    8    9 ar
    18    8   11 1
    19    9   10 ar
    20    9   30 1
    21   10   31 1
    22   11   32 1
    23   12   13 1
    24   12   14 1
    25   12   16 1
    26   14   15 1
    27   14   33 1
    28   14   34 1
    29   15   35 1
    30   15   36 1
    31   15   37 1
    32   16   21 ar
    33   16   17 ar
    34   17   18 ar
    35   17   38 1
    36   18   19 ar
    37   18   39 1
    38   19   20 ar
    39   19   22 1
    40   20   21 ar
    41   20   40 1
    42   21   41 1
    43   22   42 1
@<TRIPOS>MOLECULE
ZINC00056549
   42    43     0     0     0
SMALL
USER_CHARGES

@<TRIPOS>ATOM
      1 C1          2.4043   -1.9636    0.6837 C.3       1 <0>        -0.1543
      2 C2          1.7340   -2.0137   -0.6907 C.3       1 <0>        -0.1233
      3 C3          0.9100   -0.7421   -0.9029 C.3       1 <0>        -0.0407
      4 H1          0.2162   -0.6158   -0.0718 H         1 <0>         0.0875
      5 C4          0.1358   -0.8543   -2.1910 C.ar      1 <0>        -0.0818
      6 C5          0.6957   -1.4984   -3.2788 C.ar      1 <0>        -0.0845
      7 C6         -0.0118   -1.6022   -4.4608 C.ar      1 <0>        -0.1440
      8 C7         -1.2851   -1.0598   -4.5557 C.ar      1 <0>         0.1009
      9 C8         -1.8448   -0.4144   -3.4626 C.ar      1 <0>        -0.1470
     10 C9         -1.1353   -0.3179   -2.2812 C.ar      1 <0>        -0.1006
     11 O1         -1.9829   -1.1602   -5.7175 O.3       1 <0>        -0.5012
     12 C10         1.8460    0.4661   -0.9740 C.3       1 <0>        -0.0403
     13 H2          2.4713    0.4943   -0.0816 H         1 <0>         0.0871
     14 C11         1.0169    1.7493   -1.0566 C.3       1 <0>        -0.1233
     15 C12         0.2449    1.9427    0.2502 C.3       1 <0>        -0.1553
     16 C13         2.7200    0.3532   -2.1965 C.ar      1 <0>        -0.0816
     17 C14         2.2518    0.7891   -3.4222 C.ar      1 <0>        -0.0845
     18 C15         3.0509    0.6863   -4.5444 C.ar      1 <0>        -0.1440
     19 C16         4.3243    0.1456   -4.4406 C.ar      1 <0>         0.1008
     20 C17         4.7919   -0.2906   -3.2095 C.ar      1 <0>        -0.1470
     21 C18         3.9908   -0.1808   -2.0893 C.ar      1 <0>        -0.1008
     22 O2          5.1121    0.0430   -5.5432 O.3       1 <0>        -0.5012
     23 H3          3.1290   -1.1497    0.7051 H         1 <0>         0.0557
     24 H4          1.6481   -1.7971    1.4509 H         1 <0>         0.0552
     25 H5          2.9133   -2.9084    0.8743 H         1 <0>         0.0552
     26 H6          2.4977   -2.0852   -1.4651 H         1 <0>         0.0695
     27 H7          1.0796   -2.8838   -0.7443 H         1 <0>         0.0643
     28 H8          1.6870   -1.9205   -3.2045 H         1 <0>         0.1240
     29 H9          0.4263   -2.1048   -5.3105 H         1 <0>         0.1247
     30 H10        -2.8359    0.0087   -3.5339 H         1 <0>         0.1261
     31 H11        -1.5723    0.1806   -1.4286 H         1 <0>         0.1246
     32 H12        -2.5312   -1.9544   -5.7797 H         1 <0>         0.3898
     33 H13         1.6791    2.6002   -1.2166 H         1 <0>         0.0644
     34 H14         0.3139    1.6750   -1.8863 H         1 <0>         0.0693
     35 H15        -0.3576    1.0568    0.4507 H         1 <0>         0.0570
     36 H16         0.9484    2.0966    1.0684 H         1 <0>         0.0547
     37 H17        -0.4061    2.8126    0.1623 H         1 <0>         0.0552
     38 H18         1.2604    1.2099   -3.5025 H         1 <0>         0.1240
     39 H19         2.6844    1.0263   -5.5018 H         1 <0>         0.1247
     40 H20         5.7828   -0.7119   -3.1261 H         1 <0>         0.1261
     41 H21         4.3560   -0.5162   -1.1299 H         1 <0>         0.1246
     42 H22         5.6686    0.8177   -5.7024 H         1 <0>         0.3898
@<TRIPOS>BOND
     1    1    2 1
     2    1   23 1
     3    1   24 1
     4    1   25 1
     5    2    3 1
     6    2   26 1
     7    2   27 1
     8    3    4 1
     9    3    5 1
    10    3   12 1
    11    5   10 ar
    12    5    6 ar
    13    6    7 ar
    14    6   28 1
    15    7    8 ar
    16    7   29 1
    17    8    9 ar
    18    8   11 1
    19    9   10 ar
    20    9   30 1
    21   10   31 1
    22   11   32 1
    23   12   13 1
    24   12   14 1
    25   12   16 1
    26   14   15 1
    27   14   33 1
    28   14   34 1
    29   15   35 1
    30   15   36 1
    31   15   37 1
    32   16   21 ar
    33   16   17 ar
    34   17   18 ar
    35   17   38 1
    36   18   19 ar
    37   18   39 1
    38   19   20 ar
    39   19   22 1
    40   20   21 ar
    41   20   40 1
    42   21   41 1
    43   22   42 1
