@<TRIPOS>MOLECULE
ZINC08602413
   59    61     0     0     0
SMALL
USER_CHARGES

@<TRIPOS>ATOM
      1 C1         -0.8619   -1.2098    0.4197 C.3       1 <0>        -0.1466
      2 C2         -0.0026   -0.0150    0.0013 C.3       1 <0>        -0.0935
      3 C3          0.8450   -0.3966   -1.1848 C.2       1 <0>        -0.0419
      4 C4          2.1088   -0.8506   -0.9971 C.2       1 <0>        -0.0535
      5 C5          2.7054   -0.8397    0.3571 C.ar      1 <0>        -0.0419
      6 C6          2.9273    0.3706    1.0153 C.ar      1 <0>        -0.1080
      7 C7          3.4834    0.3739    2.2778 C.ar      1 <0>        -0.1171
      8 C8          3.8208   -0.8194    2.8915 C.ar      1 <0>        -0.1149
      9 C9          3.6033   -2.0228    2.2443 C.ar      1 <0>        -0.1170
     10 C10         3.0431   -2.0400    0.9837 C.ar      1 <0>        -0.1041
     11 C11         2.8913   -1.3568   -2.1461 C.ar      1 <0>        -0.0470
     12 C12         2.4762   -2.5040   -2.8244 C.ar      1 <0>        -0.0595
     13 C13         3.2077   -2.9723   -3.8948 C.ar      1 <0>        -0.1380
     14 C14         4.3563   -2.3043   -4.2986 C.ar      1 <0>         0.1110
     15 C15         4.7726   -1.1627   -3.6263 C.ar      1 <0>        -0.1994
     16 C16         4.0435   -0.6851   -2.5583 C.ar      1 <0>        -0.0636
     17 O1          5.0749   -2.7692   -5.3538 O.3       1 <0>        -0.3291
     18 C17         6.2456   -2.0339   -5.7158 C.3       1 <0>         0.0246
     19 C18         6.9175   -2.7036   -6.9162 C.3       1 <0>        -0.0018
     20 N1          6.0298   -2.6204   -8.0837 N.4       1 <0>        -0.3886
     21 C19         5.8585   -1.2133   -8.4693 C.3       1 <0>        -0.0545
     22 C20         6.6212   -3.3663   -9.2026 C.3       1 <0>        -0.0476
     23 C21         0.3015   -0.2768   -2.5456 C.ar      1 <0>        -0.0535
     24 C22         0.8652    0.6307   -3.4494 C.ar      1 <0>        -0.0836
     25 C23         0.3521    0.7390   -4.7232 C.ar      1 <0>        -0.1448
     26 C24        -0.7231   -0.0506   -5.1111 C.ar      1 <0>         0.1063
     27 C25        -1.2866   -0.9532   -4.2178 C.ar      1 <0>        -0.1418
     28 C26        -0.7776   -1.0738   -2.9434 C.ar      1 <0>        -0.0893
     29 O2         -1.2256    0.0605   -6.3684 O.3       1 <0>        -0.4973
     30 H1         -1.5891   -1.4261   -0.3629 H         1 <0>         0.0562
     31 H2         -0.2239   -2.0801    0.5734 H         1 <0>         0.0567
     32 H3         -1.3849   -0.9744    1.3466 H         1 <0>         0.0628
     33 H4         -0.6486    0.8208   -0.2675 H         1 <0>         0.0736
     34 H5          0.6426    0.2765    0.8302 H         1 <0>         0.0835
     35 H6          2.6647    1.3028    0.5372 H         1 <0>         0.1225
     36 H7          3.6560    1.3100    2.7882 H         1 <0>         0.1252
     37 H8          4.2562   -0.8114    3.8798 H         1 <0>         0.1238
     38 H9          3.8689   -2.9508    2.7287 H         1 <0>         0.1239
     39 H10         2.8699   -2.9802    0.4812 H         1 <0>         0.1196
     40 H11         1.5832   -3.0243   -2.5107 H         1 <0>         0.1328
     41 H12         2.8874   -3.8600   -4.4199 H         1 <0>         0.1321
     42 H13         5.6666   -0.6461   -3.9431 H         1 <0>         0.1266
     43 H14         4.3654    0.2053   -2.0388 H         1 <0>         0.1293
     44 H15         5.9669   -1.0133   -5.9781 H         1 <0>         0.0864
     45 H16         6.9384   -2.0166   -4.8745 H         1 <0>         0.1085
     46 H17         7.8566   -2.1960   -7.1368 H         1 <0>         0.1492
     47 H18         7.1159   -3.7501   -6.6844 H         1 <0>         0.1426
     48 H19         6.8289   -0.7844   -8.7193 H         1 <0>         0.1248
     49 H20         5.1998   -1.1516   -9.3355 H         1 <0>         0.1273
     50 H21         5.4197   -0.6599   -7.6390 H         1 <0>         0.1213
     51 H22         6.7483   -4.4103   -8.9165 H         1 <0>         0.1248
     52 H23         5.9625   -3.3045  -10.0689 H         1 <0>         0.1259
     53 H24         7.5916   -2.9373   -9.4527 H         1 <0>         0.1232
     54 H25         1.7009    1.2453   -3.1487 H         1 <0>         0.1238
     55 H26         0.7861    1.4393   -5.4214 H         1 <0>         0.1266
     56 H27        -2.1226   -1.5644   -4.5245 H         1 <0>         0.1309
     57 H28        -1.2134   -1.7791   -2.2513 H         1 <0>         0.1303
     58 H29        -0.8119   -0.5318   -7.0111 H         1 <0>         0.3880
     59 H30         5.1316   -3.0175   -7.8522 H         1 <0>         0.4337
@<TRIPOS>BOND
     1    1    2 1
     2    1   30 1
     3    1   31 1
     4    1   32 1
     5    2    3 1
     6    2   33 1
     7    2   34 1
     8    3    4 2
     9    3   23 1
    10    4    5 1
    11    4   11 1
    12    5   10 ar
    13    5    6 ar
    14    6    7 ar
    15    6   35 1
    16    7    8 ar
    17    7   36 1
    18    8    9 ar
    19    8   37 1
    20    9   10 ar
    21    9   38 1
    22   10   39 1
    23   11   16 ar
    24   11   12 ar
    25   12   13 ar
    26   12   40 1
    27   13   14 ar
    28   13   41 1
    29   14   15 ar
    30   14   17 1
    31   15   16 ar
    32   15   42 1
    33   16   43 1
    34   17   18 1
    35   18   19 1
    36   18   44 1
    37   18   45 1
    38   19   20 1
    39   19   46 1
    40   19   47 1
    41   20   21 1
    42   20   22 1
    43   20   59 1
    44   21   48 1
    45   21   49 1
    46   21   50 1
    47   22   51 1
    48   22   52 1
    49   22   53 1
    50   23   28 ar
    51   23   24 ar
    52   24   25 ar
    53   24   54 1
    54   25   26 ar
    55   25   55 1
    56   26   27 ar
    57   26   29 1
    58   27   28 ar
    59   27   56 1
    60   28   57 1
    61   29   58 1
@<TRIPOS>MOLECULE
ZINC13520815
   44    47     0     0     0
SMALL
USER_CHARGES

@<TRIPOS>ATOM
      1 C1         -0.0187    1.5258    0.0104 C.3       1 <0>        -0.1354
      2 C2          0.0021   -0.0041    0.0020 C.3       1 <0>        -0.0564
      3 C3         -1.4142   -0.5425    0.0489 C.3       1 <0>        -0.1016
      4 C4         -2.0973    0.0441    1.2987 C.3       1 <0>        -0.1130
      5 C5         -1.3125   -0.3073    2.5542 C.3       1 <0>        -0.0424
      6 H1         -1.3075   -1.3927    2.6533 H         1 <0>         0.0765
      7 C6         -1.9424    0.2651    3.7900 C.ar      1 <0>        -0.0773
      8 C7         -3.3273    0.3484    3.8443 C.ar      1 <0>        -0.1030
      9 C8         -3.9576    0.8569    4.9598 C.ar      1 <0>        -0.1472
     10 C9         -3.2003    1.2884    6.0396 C.ar      1 <0>         0.1024
     11 C10        -1.8198    1.2087    5.9840 C.ar      1 <0>        -0.1480
     12 C11        -1.1856    0.7013    4.8579 C.ar      1 <0>        -0.0577
     13 C12         0.3200    0.6669    4.8604 C.3       1 <0>        -0.0825
     14 C13         0.8561   -0.2331    3.7476 C.3       1 <0>        -0.1135
     15 C14         0.1446    0.1628    2.4542 C.3       1 <0>        -0.0739
     16 H2          0.1741    1.2443    2.3212 H         1 <0>         0.0865
     17 C15         0.7512   -0.5345    1.2564 C.3       1 <0>        -0.0835
     18 H3          0.6224   -1.6140    1.3350 H         1 <0>         0.0754
     19 C16         2.2091   -0.2046    0.9567 C.3       1 <0>        -0.1120
     20 C17         2.3296   -0.2454   -0.5872 C.3       1 <0>        -0.1564
     21 C18         0.8992   -0.5108   -1.1319 C.3       1 <0>         0.1090
     22 H4          0.7424   -1.5760   -1.3012 H         1 <0>         0.0609
     23 O1          0.6684    0.2327   -2.3302 O.3       1 <0>        -0.5588
     24 O2         -3.8114    1.7874    7.1461 O.3       1 <0>        -0.5003
     25 H5          1.0039    1.9031    0.0027 H         1 <0>         0.0539
     26 H6         -0.5459    1.8868   -0.8726 H         1 <0>         0.0599
     27 H7         -0.5289    1.8773    0.9072 H         1 <0>         0.0606
     28 H8         -1.9557   -0.2363   -0.8462 H         1 <0>         0.0693
     29 H9         -1.3938   -1.6303    0.1152 H         1 <0>         0.0628
     30 H10        -2.1534    1.1283    1.2019 H         1 <0>         0.0698
     31 H11        -3.1059   -0.3612    1.3804 H         1 <0>         0.0659
     32 H12        -3.9166    0.0119    3.0041 H         1 <0>         0.1276
     33 H13        -5.0353    0.9194    4.9932 H         1 <0>         0.1275
     34 H14        -1.2303    1.5447    6.8243 H         1 <0>         0.1259
     35 H15         0.7005    1.6781    4.7162 H         1 <0>         0.0774
     36 H16         0.6668    0.2900    5.8226 H         1 <0>         0.0749
     37 H17         1.9304   -0.0841    3.6397 H         1 <0>         0.0720
     38 H18         0.6512   -1.2764    3.9877 H         1 <0>         0.0665
     39 H19         2.4554    0.7900    1.3285 H         1 <0>         0.0683
     40 H20         2.8651   -0.9498    1.4065 H         1 <0>         0.0656
     41 H21         2.7000    0.7100   -0.9588 H         1 <0>         0.0739
     42 H22         3.0000   -1.0500   -0.8889 H         1 <0>         0.0643
     43 H23         1.2119   -0.0490   -3.0787 H         1 <0>         0.3759
     44 H24        -4.0214    1.1203    7.8140 H         1 <0>         0.3901
@<TRIPOS>BOND
     1    1    2 1
     2    1   25 1
     3    1   26 1
     4    1   27 1
     5    2   17 1
     6    2   21 1
     7    2    3 1
     8    3    4 1
     9    3   28 1
    10    3   29 1
    11    4    5 1
    12    4   30 1
    13    4   31 1
    14    5    6 1
    15    5   15 1
    16    5    7 1
    17    7   12 ar
    18    7    8 ar
    19    8    9 ar
    20    8   32 1
    21    9   10 ar
    22    9   33 1
    23   10   11 ar
    24   10   24 1
    25   11   12 ar
    26   11   34 1
    27   12   13 1
    28   13   14 1
    29   13   35 1
    30   13   36 1
    31   14   15 1
    32   14   37 1
    33   14   38 1
    34   15   16 1
    35   15   17 1
    36   17   18 1
    37   17   19 1
    38   19   20 1
    39   19   39 1
    40   19   40 1
    41   20   21 1
    42   20   41 1
    43   20   42 1
    44   21   22 1
    45   21   23 1
    46   23   43 1
    47   24   44 1
@<TRIPOS>MOLECULE
ZINC13583640
   26    28     0     0     0
SMALL
USER_CHARGES
7-bromo-2-(3-fluoro-4-hydroxy-phenyl)-1,3-benzoxazol-5-ol
@<TRIPOS>ATOM
      1 C1         -1.1370    3.5650    0.0323 C.ar      1 <0>        -0.0528
      2 C2         -2.2789    4.3375    0.0372 C.ar      1 <0>        -0.1192
      3 C3         -3.5286    3.7332    0.0405 C.ar      1 <0>         0.1073
      4 C4         -3.6343    2.3458    0.0336 C.ar      1 <0>         0.0748
      5 C5         -2.4963    1.5665    0.0233 C.ar      1 <0>        -0.1006
      6 C6         -1.2376    2.1725    0.0199 C.ar      1 <0>        -0.0167
      7 C7         -0.0162    1.3422    0.0094 C.2       1 <0>         0.3053
      8 N1          1.2080    1.8073    0.0002 N.2       1 <0>        -0.4588
      9 C8          2.0728    0.7604   -0.0136 C.ar      1 <0>         0.0524
     10 C9          3.4665    0.6624   -0.0275 C.ar      1 <0>        -0.0717
     11 C10         4.0649   -0.5825   -0.0399 C.ar      1 <0>         0.1185
     12 C11         3.2865   -1.7359   -0.0382 C.ar      1 <0>        -0.0840
     13 C12         1.9093   -1.6497   -0.0254 C.ar      1 <0>        -0.0528
     14 C13         1.2933   -0.4071   -0.0125 C.ar      1 <0>         0.0261
     15 O1          0.0021   -0.0041    0.0020 O.3       1 <0>        -0.1938
     16 Br1         0.8628   -3.2247   -0.0233 Br        1 <0>        -0.0172
     17 O2          5.4209   -0.6813   -0.0534 O.3       1 <0>        -0.4840
     18 F1         -4.8525    1.7617    0.0373 F         1 <0>        -0.1234
     19 O3         -4.6511    4.4982    0.0511 O.3       1 <0>        -0.4842
     20 H1         -0.1655    4.0367    0.0342 H         1 <0>         0.1546
     21 H2         -2.2010    5.4146    0.0427 H         1 <0>         0.1543
     22 H3         -2.5782    0.4896    0.0175 H         1 <0>         0.1526
     23 H4          4.0732    1.5559   -0.0288 H         1 <0>         0.1535
     24 H5          3.7634   -2.7049   -0.0472 H         1 <0>         0.1597
     25 H6          5.8216   -0.7146    0.8261 H         1 <0>         0.3994
     26 H7         -4.9711    4.7149    0.9375 H         1 <0>         0.4008
@<TRIPOS>BOND
     1    1    6 ar
     2    1    2 ar
     3    1   20 1
     4    2    3 ar
     5    2   21 1
     6    3    4 ar
     7    3   19 1
     8    4    5 ar
     9    4   18 1
    10    5    6 ar
    11    5   22 1
    12    6    7 1
    13    7   15 1
    14    7    8 2
    15    8    9 1
    16    9   14 ar
    17    9   10 ar
    18   10   11 ar
    19   10   23 1
    20   11   12 ar
    21   11   17 1
    22   12   13 ar
    23   12   24 1
    24   13   14 ar
    25   13   16 1
    26   14   15 1
    27   17   25 1
    28   19   26 1
@<TRIPOS>MOLECULE
ZINC00009308
   26    28     0     0     0
SMALL
USER_CHARGES

@<TRIPOS>ATOM
      1 C1          5.3638    4.6176   -0.0274 C.ar      1 <0>        -0.0418
      2 C2          6.7413    4.6465   -0.0341 C.ar      1 <0>        -0.1497
      3 C3          7.4628    3.4594   -0.0463 C.ar      1 <0>         0.1396
      4 C4          6.7993    2.2388   -0.0464 C.ar      1 <0>        -0.1489
      5 C5          5.4220    2.2014   -0.0344 C.ar      1 <0>        -0.0594
      6 C6          4.6930    3.3926   -0.0221 C.ar      1 <0>        -0.0501
      7 C7          3.2165    3.3570   -0.0098 C.2       1 <0>         0.3105
      8 N1          2.4401    4.4115    0.0025 N.2       1 <0>        -0.4671
      9 C8          1.1457    4.0007    0.0121 C.ar      1 <0>         0.0540
     10 C9         -0.0786    4.6737    0.0265 C.ar      1 <0>        -0.0739
     11 C10        -1.2563    3.9521    0.0335 C.ar      1 <0>         0.1182
     12 C11        -1.2276    2.5608    0.0218 C.ar      1 <0>        -0.0869
     13 C12        -0.0236    1.8867    0.0124 C.ar      1 <0>        -0.0516
     14 C13         1.1678    2.5970    0.0049 C.ar      1 <0>         0.0228
     15 O1          2.4713    2.2357   -0.0087 O.3       1 <0>        -0.1951
     16 Br1         0.0021   -0.0041    0.0020 Br        1 <0>        -0.0189
     17 O2         -2.4493    4.6041    0.0475 O.3       1 <0>        -0.4844
     18 O3          8.8204    3.4921   -0.0586 O.3       1 <0>        -0.4964
     19 H1          4.8036    5.5409   -0.0225 H         1 <0>         0.1465
     20 H2          7.2609    5.5933   -0.0337 H         1 <0>         0.1426
     21 H3          7.3637    1.3181   -0.0563 H         1 <0>         0.1413
     22 H4          4.9069    1.2521   -0.0349 H         1 <0>         0.1399
     23 H5         -0.1040    5.7534    0.0326 H         1 <0>         0.1524
     24 H6         -2.1536    2.0051    0.0235 H         1 <0>         0.1589
     25 H7         -2.8024    4.7972   -0.8318 H         1 <0>         0.3988
     26 H8          9.2054    3.5061   -0.9455 H         1 <0>         0.3987
@<TRIPOS>BOND
     1    1    6 ar
     2    1    2 ar
     3    1   19 1
     4    2    3 ar
     5    2   20 1
     6    3    4 ar
     7    3   18 1
     8    4    5 ar
     9    4   21 1
    10    5    6 ar
    11    5   22 1
    12    6    7 1
    13    7   15 1
    14    7    8 2
    15    8    9 1
    16    9   14 ar
    17    9   10 ar
    18   10   11 ar
    19   10   23 1
    20   11   12 ar
    21   11   17 1
    22   12   13 ar
    23   12   24 1
    24   13   14 ar
    25   13   16 1
    26   14   15 1
    27   17   25 1
    28   18   26 1
@<TRIPOS>MOLECULE
ZINC03817763
   30    32     0     0     0
SMALL
USER_CHARGES

@<TRIPOS>ATOM
      1 C1         -0.0159    1.3221    0.0093 C.2       1 <0>        -0.1591
      2 C2          0.0021   -0.0041    0.0020 C.2       1 <0>        -0.1281
      3 C3          1.2912   -0.7252   -0.0142 C.ar      1 <0>        -0.0066
      4 C4          2.4903   -0.0156   -0.0160 C.ar      1 <0>        -0.1156
      5 C5          3.7031   -0.6909   -0.0313 C.ar      1 <0>         0.1171
      6 C6          3.7359   -2.0733   -0.0452 C.ar      1 <0>        -0.0900
      7 C7          2.5423   -2.8003   -0.0435 C.ar      1 <0>         0.0456
      8 C8          1.3141   -2.1234   -0.0219 C.ar      1 <0>         0.0133
      9 O1          0.3530   -3.0735   -0.0178 O.3       1 <0>        -0.1999
     10 C9          0.9549   -4.2778   -0.0300 C.2       1 <0>         0.2963
     11 N1          2.2557   -4.1281   -0.0539 N.2       1 <0>        -0.4620
     12 C10         0.2514   -5.5765   -0.0303 C.ar      1 <0>        -0.0126
     13 C11        -1.1446   -5.6165   -0.0230 C.ar      1 <0>        -0.0728
     14 C12        -1.7982   -6.8298   -0.0237 C.ar      1 <0>        -0.1183
     15 C13        -1.0713   -8.0128   -0.0312 C.ar      1 <0>         0.1045
     16 C14         0.3193   -7.9786   -0.0385 C.ar      1 <0>         0.0748
     17 C15         0.9806   -6.7676   -0.0437 C.ar      1 <0>        -0.0848
     18 F1          1.0228   -9.1319   -0.0454 F         1 <0>        -0.1229
     19 O2         -1.7197   -9.2065   -0.0310 O.3       1 <0>        -0.4845
     20 O3          4.8670    0.0119   -0.0330 O.3       1 <0>        -0.4893
     21 H1          0.9119    1.8747    0.0034 H         1 <0>         0.1053
     22 H2         -0.9584    1.8493    0.0166 H         1 <0>         0.1124
     23 H3         -0.9258   -0.5567    0.0079 H         1 <0>         0.1245
     24 H4          2.4761    1.0643   -0.0060 H         1 <0>         0.1519
     25 H5          4.6836   -2.5910   -0.0577 H         1 <0>         0.1462
     26 H6         -1.7115   -4.6972   -0.0164 H         1 <0>         0.1468
     27 H7         -2.8778   -6.8605   -0.0180 H         1 <0>         0.1523
     28 H8          2.0602   -6.7409   -0.0539 H         1 <0>         0.1587
     29 H9         -1.9124   -9.5496   -0.9143 H         1 <0>         0.4003
     30 H10         5.2101    0.2068    0.8499 H         1 <0>         0.3966
@<TRIPOS>BOND
     1    1    2 2
     2    1   21 1
     3    1   22 1
     4    2    3 1
     5    2   23 1
     6    3    8 ar
     7    3    4 ar
     8    4    5 ar
     9    4   24 1
    10    5    6 ar
    11    5   20 1
    12    6    7 ar
    13    6   25 1
    14    7   11 1
    15    7    8 ar
    16    8    9 1
    17    9   10 1
    18   10   11 2
    19   10   12 1
    20   12   17 ar
    21   12   13 ar
    22   13   14 ar
    23   13   26 1
    24   14   15 ar
    25   14   27 1
    26   15   16 ar
    27   15   19 1
    28   16   17 ar
    29   16   18 1
    30   17   28 1
    31   19   29 1
    32   20   30 1
@<TRIPOS>MOLECULE
ZINC04959591
   39    43     0     0     0
SMALL
USER_CHARGES

@<TRIPOS>ATOM
      1 C1         -0.0166    1.3761    0.0096 C.ar      1 <0>        -0.1735
      2 C2          1.1700    2.0866    0.0021 C.ar      1 <0>        -0.0756
      3 C3          2.3732    1.4121   -0.0195 C.ar      1 <0>        -0.1920
      4 C4          2.3939    0.0198   -0.0312 C.ar      1 <0>         0.2218
      5 C5          1.2076   -0.6912   -0.0121 C.ar      1 <0>        -0.1424
      6 C6          0.0021   -0.0041    0.0020 C.ar      1 <0>        -0.0689
      7 C7          1.1722   -2.1934    0.0122 C.3       1 <0>        -0.0067
      8 H1          0.7971   -2.5785   -0.9360 H         1 <0>         0.0867
      9 C8          0.2622   -2.6186    1.1538 C.2       1 <0>        -0.1547
     10 C9          0.9666   -2.9971    2.1883 C.2       1 <0>        -0.1614
     11 C10         2.4498   -2.8963    1.8992 C.3       1 <0>        -0.0914
     12 C11         2.5242   -2.8202    0.3418 C.3       1 <0>        -0.0948
     13 H2          2.5532   -3.8323   -0.0618 H         1 <0>         0.0957
     14 C12         3.7311   -2.0804   -0.1527 C.3       1 <0>         0.2146
     15 H3          3.9170   -2.3748   -1.1856 H         1 <0>         0.0872
     16 N1          3.6188   -0.6372   -0.0684 N.pl3     1 <0>        -0.7375
     17 C13         4.9176   -2.4928    0.6798 C.ar      1 <0>        -0.0589
     18 C14         5.2892   -1.7346    1.7748 C.ar      1 <0>        -0.0846
     19 C15         6.3796   -2.1113    2.5412 C.ar      1 <0>         0.0542
     20 C16         7.1002   -3.2555    2.2065 C.ar      1 <0>         0.0403
     21 C17         6.7229   -4.0108    1.1085 C.ar      1 <0>        -0.0699
     22 C18         5.6292   -3.6319    0.3505 C.ar      1 <0>        -0.0793
     23 Br1         5.1116   -4.6691   -1.1436 Br        1 <0>        -0.0213
     24 O1          8.1160   -3.4097    3.1051 O.3       1 <0>        -0.3022
     25 C19         8.2584   -2.1292    3.7480 C.3       1 <0>         0.2120
     26 O2          6.9443   -1.5490    3.6497 O.3       1 <0>        -0.3025
     27 H4         -0.9597    1.9021    0.0259 H         1 <0>         0.1178
     28 H5          1.1546    3.1665    0.0127 H         1 <0>         0.1206
     29 H6          3.3009    1.9649   -0.0276 H         1 <0>         0.1194
     30 H7         -0.9280   -0.5530    0.0071 H         1 <0>         0.1191
     31 H8         -0.8170   -2.6093    1.1154 H         1 <0>         0.1282
     32 H9          0.5468   -3.3362    3.1238 H         1 <0>         0.1258
     33 H10         2.8667   -1.9940    2.3467 H         1 <0>         0.0781
     34 H11         2.9718   -3.7814    2.2628 H         1 <0>         0.0706
     35 H12         4.4310   -0.1068   -0.0609 H         1 <0>         0.4014
     36 H13         4.7290   -0.8479    2.0324 H         1 <0>         0.1477
     37 H14         7.2800   -4.8982    0.8466 H         1 <0>         0.1489
     38 H15         8.5446   -2.2546    4.7922 H         1 <0>         0.1375
     39 H16         8.9885   -1.5152    3.2208 H         1 <0>         0.0900
@<TRIPOS>BOND
     1    1    6 ar
     2    1    2 ar
     3    1   27 1
     4    2    3 ar
     5    2   28 1
     6    3    4 ar
     7    3   29 1
     8    4   16 1
     9    4    5 ar
    10    5    6 ar
    11    5    7 1
    12    6   30 1
    13    7    8 1
    14    7   12 1
    15    7    9 1
    16    9   10 2
    17    9   31 1
    18   10   11 1
    19   10   32 1
    20   11   12 1
    21   11   33 1
    22   11   34 1
    23   12   13 1
    24   12   14 1
    25   14   15 1
    26   14   16 1
    27   14   17 1
    28   16   35 1
    29   17   22 ar
    30   17   18 ar
    31   18   19 ar
    32   18   36 1
    33   19   26 1
    34   19   20 ar
    35   20   21 ar
    36   20   24 1
    37   21   22 ar
    38   21   37 1
    39   22   23 1
    40   24   25 1
    41   25   26 1
    42   25   38 1
    43   25   39 1
