@<TRIPOS>MOLECULE
ZINC08214587
   25    24     0     0     0
SMALL
USER_CHARGES
2-(fluoro-isopropoxy-phosphoryl)oxypropane
@<TRIPOS>ATOM
      1 C1         -1.0941    1.3223   -3.5258 C.3       1 <0>        -0.1744
      2 C2         -0.2274    2.1810   -2.6026 C.3       1 <0>         0.1375
      3 C3         -0.1593    3.6085   -3.1491 C.3       1 <0>        -0.1672
      4 O1         -0.7993    2.1991   -1.2931 O.3       1 <0>        -0.7235
      5 P1         -0.0206    1.6658    0.0112 P.3       1 <0>         2.1887
      6 O2          1.3679    2.1780    0.0007 O.2       1 <0>        -1.0004
      7 O3         -0.7742    2.1850    1.3358 O.3       1 <0>        -0.7136
      8 C4         -0.5286    1.6416    2.6345 C.3       1 <0>         0.1321
      9 C5         -0.0214    2.7472    3.5624 C.3       1 <0>        -0.1688
     10 C6         -1.8266    1.0589    3.1972 C.3       1 <0>        -0.1736
     11 F1          0.0021   -0.0041    0.0020 F         1 <0>        -0.3757
     12 H1         -0.6579    1.3085   -4.5246 H         1 <0>         0.0849
     13 H2         -1.1426    0.3054   -3.1365 H         1 <0>         0.0634
     14 H3         -2.0992    1.7412   -3.5741 H         1 <0>         0.0744
     15 H4          0.7777    1.7621   -2.5544 H         1 <0>         0.0744
     16 H5          0.4582    4.2203   -2.4914 H         1 <0>         0.0688
     17 H6          0.2769    3.5947   -4.1479 H         1 <0>         0.0819
     18 H7         -1.1644    4.0274   -3.1973 H         1 <0>         0.0714
     19 H8          0.2220    0.8545    2.5630 H         1 <0>         0.0679
     20 H9          0.1658    2.3328    4.5530 H         1 <0>         0.0824
     21 H10         0.9033    3.1623    3.1615 H         1 <0>         0.0715
     22 H11        -0.7721    3.5344    3.6339 H         1 <0>         0.0737
     23 H12        -2.1879    0.2712    2.5362 H         1 <0>         0.0628
     24 H13        -1.6393    0.6444    4.1878 H         1 <0>         0.0853
     25 H14        -2.5772    1.8460    3.2687 H         1 <0>         0.0759
@<TRIPOS>BOND
     1    1    2 1
     2    1   12 1
     3    1   13 1
     4    1   14 1
     5    2    3 1
     6    2    4 1
     7    2   15 1
     8    3   16 1
     9    3   17 1
    10    3   18 1
    11    4    5 1
    12    5    6 2
    13    5    7 1
    14    5   11 1
    15    7    8 1
    16    8    9 1
    17    8   10 1
    18    8   19 1
    19    9   20 1
    20    9   21 1
    21    9   22 1
    22   10   23 1
    23   10   24 1
    24   10   25 1
@<TRIPOS>MOLECULE
ZINC01672966
   26    27     0     0     0
SMALL
USER_CHARGES
1,2-diphenylethane-1,2-dione
@<TRIPOS>ATOM
      1 C1          1.6146   -1.2472    3.6201 C.ar      1 <0>        -0.0783
      2 C2          2.8063   -0.5425    3.6076 C.ar      1 <0>        -0.1296
      3 C3          3.4876   -0.3543    2.4240 C.ar      1 <0>        -0.0651
      4 C4          2.9718   -0.8776    1.2335 C.ar      1 <0>        -0.1721
      5 C5          1.7671   -1.5885    1.2545 C.ar      1 <0>        -0.0527
      6 C6          1.0977   -1.7681    2.4462 C.ar      1 <0>        -0.1314
      7 C7          3.6938   -0.6805   -0.0367 C.2       1 <0>         0.3775
      8 O1          3.2958   -1.2164   -1.0505 O.2       1 <0>        -0.4140
      9 C8          4.9132    0.1773   -0.0760 C.2       1 <0>         0.3768
     10 O2          4.8068    1.3857   -0.0349 O.2       1 <0>        -0.4129
     11 C9          6.2481   -0.4425   -0.1649 C.ar      1 <0>        -0.1730
     12 C10         6.3714   -1.8282   -0.3125 C.ar      1 <0>        -0.0654
     13 C11         7.6229   -2.3996   -0.4001 C.ar      1 <0>        -0.1297
     14 C12         8.7560   -1.6072   -0.3308 C.ar      1 <0>        -0.0783
     15 C13         8.6424   -0.2358   -0.1794 C.ar      1 <0>        -0.1315
     16 C14         7.3979    0.3513   -0.0961 C.ar      1 <0>        -0.0531
     17 H1          1.0833   -1.3874    4.5498 H         1 <0>         0.1322
     18 H2          3.2032   -0.1392    4.5274 H         1 <0>         0.1338
     19 H3          4.4172    0.1953    2.4158 H         1 <0>         0.1280
     20 H4          1.3624   -1.9952    0.3395 H         1 <0>         0.1376
     21 H5          0.1674   -2.3164    2.4640 H         1 <0>         0.1344
     22 H6          5.4884   -2.4481   -0.3623 H         1 <0>         0.1292
     23 H7          7.7197   -3.4687   -0.5186 H         1 <0>         0.1338
     24 H8          9.7338   -2.0613   -0.3954 H         1 <0>         0.1321
     25 H9          9.5310    0.3758   -0.1268 H         1 <0>         0.1344
     26 H10         7.3108    1.4213    0.0224 H         1 <0>         0.1376
@<TRIPOS>BOND
     1    1    6 ar
     2    1    2 ar
     3    1   17 1
     4    2    3 ar
     5    2   18 1
     6    3    4 ar
     7    3   19 1
     8    4    5 ar
     9    4    7 1
    10    5    6 ar
    11    5   20 1
    12    6   21 1
    13    7    8 2
    14    7    9 1
    15    9   10 2
    16    9   11 1
    17   11   16 ar
    18   11   12 ar
    19   12   13 ar
    20   12   22 1
    21   13   14 ar
    22   13   23 1
    23   14   15 ar
    24   14   24 1
    25   15   16 ar
    26   15   25 1
    27   16   26 1
