@<TRIPOS>MOLECULE
ZINC04265681
   32    33     0     0     0
SMALL
USER_CHARGES

@<TRIPOS>ATOM
      1 C1         -0.0167    1.3781    0.0096 C.ar      1 <0>        -0.1031
      2 C2          1.1709    2.0855    0.0021 C.ar      1 <0>        -0.1175
      3 C3          2.3773    1.4107   -0.0130 C.ar      1 <0>        -0.0922
      4 C4          2.3960    0.0285   -0.0201 C.ar      1 <0>        -0.0986
      5 C5          1.2084   -0.6789   -0.0117 C.ar      1 <0>        -0.1016
      6 C6          0.0021   -0.0041    0.0020 C.ar      1 <0>        -0.1145
      7 C7          3.7112   -0.7071   -0.0376 C.3       1 <0>        -0.0555
      8 H1          4.5290    0.0085    0.0470 H         1 <0>         0.1460
      9 C8          3.8429   -1.4700   -1.3305 C.2       1 <0>         0.3284
     10 O1          4.4337   -0.9801   -2.2633 O.2       1 <0>        -0.3531
     11 C9          3.2458   -2.8252   -1.4580 C.2       1 <0>         0.3285
     12 O2          2.6550   -3.3150   -0.5253 O.2       1 <0>        -0.3530
     13 C10         3.3776   -3.5880   -2.7510 C.3       1 <0>        -0.0556
     14 H2          3.3008   -4.6569   -2.5517 H         1 <0>         0.1460
     15 C11         2.2776   -3.1726   -3.6937 C.ar      1 <0>        -0.0987
     16 C12         2.2355   -1.8791   -4.1794 C.ar      1 <0>        -0.1016
     17 C13         1.2266   -1.4980   -5.0441 C.ar      1 <0>        -0.1145
     18 C14         0.2600   -2.4105   -5.4234 C.ar      1 <0>        -0.1031
     19 C15         0.3027   -3.7043   -4.9385 C.ar      1 <0>        -0.1175
     20 C16         1.3141   -4.0866   -4.0771 C.ar      1 <0>        -0.0921
     21 Br1         5.1228   -3.1973   -3.5675 Br        1 <0>        -0.0868
     22 Br2         3.7800   -1.9625    1.4739 Br        1 <0>        -0.0868
     23 H3         -0.9591    1.9053    0.0259 H         1 <0>         0.1278
     24 H4          1.1563    3.1654    0.0076 H         1 <0>         0.1299
     25 H5          3.3051    1.9634   -0.0196 H         1 <0>         0.1289
     26 H6          1.2231   -1.7588   -0.0179 H         1 <0>         0.1334
     27 H7         -0.9258   -0.5567    0.0082 H         1 <0>         0.1283
     28 H8          2.9907   -1.1661   -3.8830 H         1 <0>         0.1335
     29 H9          1.1933   -0.4872   -5.4230 H         1 <0>         0.1283
     30 H10        -0.5286   -2.1126   -6.0985 H         1 <0>         0.1278
     31 H11        -0.4527   -4.4172   -5.2345 H         1 <0>         0.1299
     32 H12         1.3495   -5.0984   -3.7011 H         1 <0>         0.1289
@<TRIPOS>BOND
     1    1    6 ar
     2    1    2 ar
     3    1   23 1
     4    2    3 ar
     5    2   24 1
     6    3    4 ar
     7    3   25 1
     8    4    5 ar
     9    4    7 1
    10    5    6 ar
    11    5   26 1
    12    6   27 1
    13    7    8 1
    14    7    9 1
    15    7   22 1
    16    9   10 2
    17    9   11 1
    18   11   12 2
    19   11   13 1
    20   13   14 1
    21   13   15 1
    22   13   21 1
    23   15   20 ar
    24   15   16 ar
    25   16   17 ar
    26   16   28 1
    27   17   18 ar
    28   17   29 1
    29   18   19 ar
    30   18   30 1
    31   19   20 ar
    32   19   31 1
    33   20   32 1
@<TRIPOS>MOLECULE
ZINC04265684
   32    33     0     0     0
SMALL
USER_CHARGES
1,4-dibromo-1,4-diphenyl-butane-2,3-dione
@<TRIPOS>ATOM
      1 C1         -2.0114    2.4634    3.5230 C.ar      1 <0>        -0.1013
      2 C2         -1.9597    1.1107    3.2425 C.ar      1 <0>        -0.1177
      3 C3         -1.3126    0.6649    2.1052 C.ar      1 <0>        -0.0870
      4 C4         -0.7181    1.5718    1.2479 C.ar      1 <0>        -0.1039
      5 C5         -0.7657    2.9241    1.5308 C.ar      1 <0>        -0.0955
      6 C6         -1.4165    3.3702    2.6659 C.ar      1 <0>        -0.1158
      7 C7         -0.0127    1.0858    0.0080 C.3       1 <0>        -0.0401
      8 H1          0.0009    0.0859    0.0025 H         1 <0>         0.1282
      9 C8         -0.7416    1.5850   -1.2129 C.2       1 <0>         0.3347
     10 O1         -0.3828    2.6022   -1.7566 O.2       1 <0>        -0.3616
     11 C9         -1.9020    0.8257   -1.7480 C.2       1 <0>         0.3347
     12 O2         -2.2608   -0.1914   -1.2042 O.2       1 <0>        -0.3616
     13 C10        -2.6309    1.3249   -2.9689 C.3       1 <0>        -0.0401
     14 H2         -1.9787    1.7524   -3.5949 H         1 <0>         0.1282
     15 C11        -3.6681    2.3372   -2.5558 C.ar      1 <0>        -0.1039
     16 C12        -4.7411    1.9484   -1.7758 C.ar      1 <0>        -0.0955
     17 C13        -5.6902    2.8779   -1.3933 C.ar      1 <0>        -0.1158
     18 C14        -5.5713    4.1941   -1.7987 C.ar      1 <0>        -0.1013
     19 C15        -4.5008    4.5818   -2.5827 C.ar      1 <0>        -0.1177
     20 C16        -3.5495    3.6533   -2.9617 C.ar      1 <0>        -0.0871
     21 Br1        -3.5109   -0.1848   -3.8697 Br        1 <0>        -0.0874
     22 Br2         1.8317    1.7663   -0.0059 Br        1 <0>        -0.0874
     23 H3         -2.5170    2.8117    4.4115 H         1 <0>         0.1282
     24 H4         -2.4245    0.4023    3.9121 H         1 <0>         0.1304
     25 H5         -1.2719   -0.3918    1.8863 H         1 <0>         0.1306
     26 H6         -0.2973    3.6322    0.8634 H         1 <0>         0.1290
     27 H7         -1.4572    4.4270    2.8848 H         1 <0>         0.1292
     28 H8         -4.8361    0.9193   -1.4625 H         1 <0>         0.1290
     29 H9         -6.5263    2.5750   -0.7805 H         1 <0>         0.1292
     30 H10        -6.3146    4.9195   -1.5027 H         1 <0>         0.1282
     31 H11        -4.4080    5.6101   -2.8995 H         1 <0>         0.1304
     32 H12        -2.7133    3.9562   -3.5745 H         1 <0>         0.1306
@<TRIPOS>BOND
     1    1    6 ar
     2    1    2 ar
     3    1   23 1
     4    2    3 ar
     5    2   24 1
     6    3    4 ar
     7    3   25 1
     8    4    5 ar
     9    4    7 1
    10    5    6 ar
    11    5   26 1
    12    6   27 1
    13    7    8 1
    14    7    9 1
    15    7   22 1
    16    9   10 2
    17    9   11 1
    18   11   12 2
    19   11   13 1
    20   13   14 1
    21   13   15 1
    22   13   21 1
    23   15   20 ar
    24   15   16 ar
    25   16   17 ar
    26   16   28 1
    27   17   18 ar
    28   17   29 1
    29   18   19 ar
    30   18   30 1
    31   19   20 ar
    32   19   31 1
    33   20   32 1
@<TRIPOS>MOLECULE
ZINC04265685
   32    33     0     0     0
SMALL
USER_CHARGES
1,4-dibromo-1,4-diphenyl-butane-2,3-dione
@<TRIPOS>ATOM
      1 C1          0.0399   -2.7685   -0.0133 C.ar      1 <0>        -0.1020
      2 C2         -0.4861   -2.0784   -1.0895 C.ar      1 <0>        -0.1173
      3 C3         -0.5048   -0.6962   -1.0819 C.ar      1 <0>        -0.0919
      4 C4          0.0021   -0.0041    0.0020 C.ar      1 <0>        -0.1028
      5 C5          0.5328   -0.6940    1.0759 C.ar      1 <0>        -0.1003
      6 C6          0.5476   -2.0763    1.0702 C.ar      1 <0>        -0.1140
      7 C7         -0.0184    1.5028    0.0103 C.3       1 <0>        -0.0430
      8 H1         -0.5021    1.8340   -0.7998 H         1 <0>         0.1291
      9 C8          1.3954    2.0244   -0.0004 C.2       1 <0>         0.3438
     10 O1          1.9205    2.3246   -1.0459 O.2       1 <0>        -0.3717
     11 C9          2.1438    2.1695    1.2757 C.2       1 <0>         0.3179
     12 O2          1.6187    1.8693    2.3212 O.2       1 <0>        -0.3420
     13 C10         3.5576    2.6911    1.2650 C.3       1 <0>        -0.0397
     14 H2          3.6537    3.3789    0.5455 H         1 <0>         0.1252
     15 C11         4.5107    1.5536    1.0031 C.ar      1 <0>        -0.1023
     16 C12         4.6371    0.5315    1.9252 C.ar      1 <0>        -0.0959
     17 C13         5.5082   -0.5141    1.6828 C.ar      1 <0>        -0.1157
     18 C14         6.2599   -0.5328    0.5229 C.ar      1 <0>        -0.1022
     19 C15         6.1371    0.4917   -0.3970 C.ar      1 <0>        -0.1178
     20 C16         5.2628    1.5351   -0.1567 C.ar      1 <0>        -0.0887
     21 Br1         3.9696    3.5034    3.0073 Br        1 <0>        -0.0878
     22 Br2        -0.9386    2.1368    1.6278 Br        1 <0>        -0.0792
     23 H3          0.0539   -3.8484   -0.0190 H         1 <0>         0.1284
     24 H4         -0.8827   -2.6192   -1.9360 H         1 <0>         0.1303
     25 H5         -0.9157   -0.1571   -1.9227 H         1 <0>         0.1287
     26 H6          0.9328   -0.1532    1.9208 H         1 <0>         0.1350
     27 H7          0.9582   -2.6154    1.9111 H         1 <0>         0.1293
     28 H8          4.0528    0.5482    2.8333 H         1 <0>         0.1299
     29 H9          5.6040   -1.3148    2.4013 H         1 <0>         0.1292
     30 H10         6.9430   -1.3481    0.3351 H         1 <0>         0.1279
     31 H11         6.7244    0.4771   -1.3032 H         1 <0>         0.1299
     32 H12         5.1670    2.3358   -0.8752 H         1 <0>         0.1296
@<TRIPOS>BOND
     1    1    6 ar
     2    1    2 ar
     3    1   23 1
     4    2    3 ar
     5    2   24 1
     6    3    4 ar
     7    3   25 1
     8    4    5 ar
     9    4    7 1
    10    5    6 ar
    11    5   26 1
    12    6   27 1
    13    7    8 1
    14    7    9 1
    15    7   22 1
    16    9   10 2
    17    9   11 1
    18   11   12 2
    19   11   13 1
    20   13   14 1
    21   13   15 1
    22   13   21 1
    23   15   20 ar
    24   15   16 ar
    25   16   17 ar
    26   16   28 1
    27   17   18 ar
    28   17   29 1
    29   18   19 ar
    30   18   30 1
    31   19   20 ar
    32   19   31 1
    33   20   32 1
@<TRIPOS>MOLECULE
ZINC03844702
   32    33     0     0     0
SMALL
USER_CHARGES
1-bromo-1,4-diphenyl-butane-2,3-dione
@<TRIPOS>ATOM
      1 C1         -0.0167    1.3781    0.0096 C.ar      1 <0>        -0.1154
      2 C2          1.1709    2.0855    0.0021 C.ar      1 <0>        -0.1170
      3 C3          2.3773    1.4107   -0.0141 C.ar      1 <0>        -0.1050
      4 C4          2.3960    0.0285   -0.0212 C.ar      1 <0>        -0.0845
      5 C5          1.2084   -0.6789   -0.0136 C.ar      1 <0>        -0.1055
      6 C6          0.0021   -0.0041    0.0020 C.ar      1 <0>        -0.1174
      7 C7          3.7112   -0.7071   -0.0378 C.3       1 <0>        -0.1073
      8 C8          4.1359   -0.9447   -1.4640 C.2       1 <0>         0.3130
      9 O1          3.4422   -0.5566   -2.3734 O.2       1 <0>        -0.3617
     10 C9          5.4087   -1.6567   -1.7517 C.2       1 <0>         0.3339
     11 O2          6.1025   -2.0448   -0.8423 O.2       1 <0>        -0.3799
     12 C10         5.8335   -1.8943   -3.1779 C.3       1 <0>        -0.0466
     13 H1          6.8277   -1.9939   -3.2174 H         1 <0>         0.1257
     14 C11         5.1818   -3.1515   -3.6934 C.ar      1 <0>        -0.1010
     15 C12         3.8073   -3.2128   -3.8268 C.ar      1 <0>        -0.1021
     16 C13         3.2098   -4.3646   -4.3037 C.ar      1 <0>        -0.1156
     17 C14         3.9862   -5.4582   -4.6386 C.ar      1 <0>        -0.1036
     18 C15         5.3603   -5.3987   -4.5002 C.ar      1 <0>        -0.1177
     19 C16         5.9581   -4.2454   -4.0274 C.ar      1 <0>        -0.0934
     20 Br1         5.2831   -0.3682   -4.2885 Br        1 <0>        -0.0832
     21 H2         -0.9592    1.9054    0.0170 H         1 <0>         0.1230
     22 H3          1.1563    3.1654    0.0081 H         1 <0>         0.1238
     23 H4          3.3051    1.9634   -0.0204 H         1 <0>         0.1210
     24 H5          1.2231   -1.7588   -0.0196 H         1 <0>         0.1209
     25 H6         -0.9258   -0.5567    0.0079 H         1 <0>         0.1237
     26 H7          4.4052   -0.1597    0.4299 H         1 <0>         0.1032
     27 H8          3.5987   -1.6640    0.4720 H         1 <0>         0.1161
     28 H9          3.2004   -2.3597   -3.5616 H         1 <0>         0.1370
     29 H10         2.1363   -4.4109   -4.4121 H         1 <0>         0.1291
     30 H11         3.5192   -6.3589   -5.0087 H         1 <0>         0.1281
     31 H12         5.9669   -6.2531   -4.7618 H         1 <0>         0.1300
     32 H13         7.0317   -4.1990   -3.9193 H         1 <0>         0.1283
@<TRIPOS>BOND
     1    1    6 ar
     2    1    2 ar
     3    1   21 1
     4    2    3 ar
     5    2   22 1
     6    3    4 ar
     7    3   23 1
     8    4    5 ar
     9    4    7 1
    10    5    6 ar
    11    5   24 1
    12    6   25 1
    13    7    8 1
    14    7   26 1
    15    7   27 1
    16    8    9 2
    17    8   10 1
    18   10   11 2
    19   10   12 1
    20   12   13 1
    21   12   14 1
    22   12   20 1
    23   14   19 ar
    24   14   15 ar
    25   15   16 ar
    26   15   28 1
    27   16   17 ar
    28   16   29 1
    29   17   18 ar
    30   17   30 1
    31   18   19 ar
    32   18   31 1
    33   19   32 1
@<TRIPOS>MOLECULE
ZINC03844703
   32    33     0     0     0
SMALL
USER_CHARGES
1-bromo-1,4-diphenyl-butane-2,3-dione
@<TRIPOS>ATOM
      1 C1         -1.4714    4.8118    6.8459 C.ar      1 <0>        -0.1149
      2 C2         -0.7064    3.6754    6.6608 C.ar      1 <0>        -0.1170
      3 C3          0.2618    3.6470    5.6746 C.ar      1 <0>        -0.1059
      4 C4          0.4652    4.7552    4.8737 C.ar      1 <0>        -0.0872
      5 C5         -0.2959    5.8936    5.0625 C.ar      1 <0>        -0.1059
      6 C6         -1.2679    5.9200    6.0450 C.ar      1 <0>        -0.1172
      7 C7          1.5210    4.7244    3.7987 C.3       1 <0>        -0.1075
      8 C8          0.9154    4.2205    2.5141 C.2       1 <0>         0.3307
      9 O1         -0.2533    3.9176    2.4754 O.2       1 <0>        -0.3828
     10 C9          1.7561    4.0963    1.2946 C.2       1 <0>         0.3248
     11 O2          2.9248    4.3992    1.3333 O.2       1 <0>        -0.3693
     12 C10         1.1505    3.5924    0.0099 C.3       1 <0>        -0.0434
     13 H1          0.2061    3.9134   -0.0618 H         1 <0>         0.1265
     14 C11         1.1709    2.0855    0.0021 C.ar      1 <0>        -0.1019
     15 C12        -0.0167    1.3781    0.0096 C.ar      1 <0>        -0.0874
     16 C13         0.0021   -0.0041    0.0020 C.ar      1 <0>        -0.1181
     17 C14         1.2084   -0.6789   -0.0136 C.ar      1 <0>        -0.1029
     18 C15         2.3961    0.0285   -0.0212 C.ar      1 <0>        -0.1167
     19 C16         2.3773    1.4107   -0.0136 C.ar      1 <0>        -0.0979
     20 Br1         2.1904    4.2698   -1.5148 Br        1 <0>        -0.0937
     21 H2         -2.2283    4.8338    7.6160 H         1 <0>         0.1238
     22 H3         -0.8654    2.8096    7.2866 H         1 <0>         0.1244
     23 H4          0.8594    2.7592    5.5299 H         1 <0>         0.1209
     24 H5         -0.1339    6.7609    4.4397 H         1 <0>         0.1220
     25 H6         -1.8658    6.8077    6.1894 H         1 <0>         0.1247
     26 H7          2.2637    4.1159    4.0783 H         1 <0>         0.1054
     27 H8          1.9131    5.7299    3.6457 H         1 <0>         0.1193
     28 H9         -0.9592    1.9054    0.0170 H         1 <0>         0.1300
     29 H10        -0.9258   -0.5567    0.0079 H         1 <0>         0.1300
     30 H11         1.2231   -1.7588   -0.0196 H         1 <0>         0.1281
     31 H12         3.3386   -0.4987   -0.0327 H         1 <0>         0.1294
     32 H13         3.3052    1.9634   -0.0192 H         1 <0>         0.1295
@<TRIPOS>BOND
     1    1    6 ar
     2    1    2 ar
     3    1   21 1
     4    2    3 ar
     5    2   22 1
     6    3    4 ar
     7    3   23 1
     8    4    5 ar
     9    4    7 1
    10    5    6 ar
    11    5   24 1
    12    6   25 1
    13    7    8 1
    14    7   26 1
    15    7   27 1
    16    8    9 2
    17    8   10 1
    18   10   11 2
    19   10   12 1
    20   12   13 1
    21   12   14 1
    22   12   20 1
    23   14   19 ar
    24   14   15 ar
    25   15   16 ar
    26   15   28 1
    27   16   17 ar
    28   16   29 1
    29   17   18 ar
    30   17   30 1
    31   18   19 ar
    32   18   31 1
    33   19   32 1
@<TRIPOS>MOLECULE
ZINC05510194
   30    29     0     0     0
SMALL
USER_CHARGES
decane-5,6-dione
@<TRIPOS>ATOM
      1 C1         -4.9634    0.6664    0.0292 C.3       1 <0>        -0.1540
      2 C2         -3.8141    1.6763    0.0292 C.3       1 <0>        -0.1256
      3 C3         -2.4788    0.9294    0.0189 C.3       1 <0>        -0.1158
      4 C4         -1.3295    1.9394    0.0189 C.3       1 <0>        -0.1557
      5 C5         -0.0143    1.2037    0.0087 C.2       1 <0>         0.3182
      6 O1          0.0021   -0.0041    0.0020 O.2       1 <0>        -0.4029
      7 C6          1.2627    1.9643    0.0006 C.2       1 <0>         0.3182
      8 O2          1.2464    3.1721    0.0072 O.2       1 <0>        -0.4029
      9 C7          2.5779    1.2287   -0.0160 C.3       1 <0>        -0.1557
     10 C8          3.7272    2.2387   -0.0215 C.3       1 <0>        -0.1158
     11 C9          5.0624    1.4918   -0.0383 C.3       1 <0>        -0.1256
     12 C10         6.2116    2.5017   -0.0438 C.3       1 <0>        -0.1540
     13 H1         -4.9014    0.0454   -0.8645 H         1 <0>         0.0550
     14 H2         -4.8929    0.0357    0.9155 H         1 <0>         0.0549
     15 H3         -5.9146    1.1985    0.0366 H         1 <0>         0.0560
     16 H4         -3.8761    2.2973    0.9229 H         1 <0>         0.0636
     17 H5         -3.8845    2.3070   -0.8570 H         1 <0>         0.0639
     18 H6         -2.4168    0.3085   -0.8748 H         1 <0>         0.0703
     19 H7         -2.4083    0.2988    0.9051 H         1 <0>         0.0700
     20 H8         -1.3864    2.5091    0.8388 H         1 <0>         0.0955
     21 H9         -1.3999    2.5700   -0.8673 H         1 <0>         0.1066
     22 H10         2.6465    0.6502    0.7968 H         1 <0>         0.0955
     23 H11         2.6356    0.6077   -0.9099 H         1 <0>         0.1066
     24 H12         3.6524    2.8692   -0.9074 H         1 <0>         0.0703
     25 H13         3.6694    2.8597    0.8724 H         1 <0>         0.0700
     26 H14         5.1371    0.8612    0.8477 H         1 <0>         0.0636
     27 H15         5.1201    0.8707   -0.9322 H         1 <0>         0.0639
     28 H16         6.1539    3.1228    0.8501 H         1 <0>         0.0549
     29 H17         7.1629    1.9696   -0.0558 H         1 <0>         0.0559
     30 H18         6.1369    3.1323   -0.9298 H         1 <0>         0.0550
@<TRIPOS>BOND
     1    1    2 1
     2    1   13 1
     3    1   14 1
     4    1   15 1
     5    2    3 1
     6    2   16 1
     7    2   17 1
     8    3    4 1
     9    3   18 1
    10    3   19 1
    11    4    5 1
    12    4   20 1
    13    4   21 1
    14    5    6 2
    15    5    7 1
    16    7    8 2
    17    7    9 1
    18    9   10 1
    19    9   22 1
    20    9   23 1
    21   10   11 1
    22   10   24 1
    23   10   25 1
    24   11   12 1
    25   11   26 1
    26   11   27 1
    27   12   28 1
    28   12   29 1
    29   12   30 1
@<TRIPOS>MOLECULE
ZINC34596664
   25    25     0     0     0
SMALL
USER_CHARGES

@<TRIPOS>ATOM
      1 C1          0.0473    1.5312    0.0381 C.3       1 <0>        -0.1541
      2 C2          0.0625    0.0013    0.0298 C.3       1 <0>        -0.1183
      3 C3          0.7502   -0.4949   -1.2437 C.3       1 <0>        -0.1632
      4 C4          0.7652   -2.0018   -1.2519 C.2       1 <0>         0.3337
      5 O1          0.2762   -2.6157   -0.3338 O.2       1 <0>        -0.4041
      6 C5          1.3828   -2.7340   -2.3920 C.2       1 <0>         0.3603
      7 O2          1.7890   -2.1215   -3.3580 O.2       1 <0>        -0.4073
      8 C6          1.5008   -4.2030   -2.3475 C.ar      1 <0>        -0.1813
      9 C7          0.9124   -4.9244   -1.3029 C.ar      1 <0>        -0.0735
     10 C8          1.0273   -6.2976   -1.2684 C.ar      1 <0>        -0.1386
     11 C9          1.7230   -6.9631   -2.2635 C.ar      1 <0>        -0.0790
     12 C10         2.3081   -6.2563   -3.3005 C.ar      1 <0>        -0.1385
     13 C11         2.1969   -4.8833   -3.3526 C.ar      1 <0>        -0.0558
     14 H1          1.0708    1.9049    0.0087 H         1 <0>         0.0567
     15 H2         -0.4972    1.8939   -0.8337 H         1 <0>         0.0568
     16 H3         -0.4426    1.8848    0.9454 H         1 <0>         0.0598
     17 H4          0.6070   -0.3614    0.9016 H         1 <0>         0.0699
     18 H5         -0.9610   -0.3724    0.0592 H         1 <0>         0.0699
     19 H6          0.2057   -0.1322   -2.1156 H         1 <0>         0.1093
     20 H7          1.7737   -0.1212   -1.2732 H         1 <0>         0.1081
     21 H8          0.3700   -4.4067   -0.5256 H         1 <0>         0.1629
     22 H9          0.5737   -6.8559   -0.4628 H         1 <0>         0.1313
     23 H10         1.8101   -8.0390   -2.2305 H         1 <0>         0.1292
     24 H11         2.8491   -6.7826   -4.0729 H         1 <0>         0.1315
     25 H12         2.6496   -4.3339   -4.1647 H         1 <0>         0.1344
@<TRIPOS>BOND
     1    1    2 1
     2    1   14 1
     3    1   15 1
     4    1   16 1
     5    2    3 1
     6    2   17 1
     7    2   18 1
     8    3    4 1
     9    3   19 1
    10    3   20 1
    11    4    5 2
    12    4    6 1
    13    6    7 2
    14    6    8 1
    15    8   13 ar
    16    8    9 ar
    17    9   10 ar
    18    9   21 1
    19   10   11 ar
    20   10   22 1
    21   11   12 ar
    22   11   23 1
    23   12   13 ar
    24   12   24 1
    25   13   25 1
@<TRIPOS>MOLECULE
ZINC36448414
   28    28     0     0     0
SMALL
USER_CHARGES

@<TRIPOS>ATOM
      1 C1         -0.0076    1.5187    0.1134 C.3       1 <0>        -0.1542
      2 C2          0.0101   -0.0107    0.0730 C.3       1 <0>        -0.1253
      3 C3         -1.4263   -0.5376    0.0791 C.3       1 <0>        -0.1143
      4 C4         -1.4086   -2.0670    0.0387 C.3       1 <0>        -0.1631
      5 C5         -2.8234   -2.5860    0.0447 C.2       1 <0>         0.3339
      6 O1         -3.7504   -1.8124    0.0779 O.2       1 <0>        -0.4039
      7 C6         -3.0786   -4.0526    0.0097 C.2       1 <0>         0.3603
      8 O2         -2.1526   -4.8268   -0.1190 O.2       1 <0>        -0.4073
      9 C7         -4.4560   -4.5644    0.1314 C.ar      1 <0>        -0.1813
     10 C8         -5.5376   -3.6769    0.1413 C.ar      1 <0>        -0.0735
     11 C9         -6.8223   -4.1632    0.2554 C.ar      1 <0>        -0.1386
     12 C10        -7.0439   -5.5259    0.3606 C.ar      1 <0>        -0.0790
     13 C11        -5.9789   -6.4106    0.3516 C.ar      1 <0>        -0.1386
     14 C12        -4.6886   -5.9404    0.2318 C.ar      1 <0>        -0.0559
     15 H1          1.0157    1.8941    0.1091 H         1 <0>         0.0557
     16 H2         -0.5379    1.8991   -0.7596 H         1 <0>         0.0549
     17 H3         -0.5132    1.8524    1.0196 H         1 <0>         0.0548
     18 H4          0.5157   -0.3443   -0.8332 H         1 <0>         0.0639
     19 H5          0.5404   -0.3911    0.9460 H         1 <0>         0.0638
     20 H6         -1.9319   -0.2039    0.9853 H         1 <0>         0.0704
     21 H7         -1.9566   -0.1572   -0.7939 H         1 <0>         0.0704
     22 H8         -0.9031   -2.4007   -0.8675 H         1 <0>         0.1093
     23 H9         -0.8783   -2.4474    0.9117 H         1 <0>         0.1081
     24 H10        -5.3663   -2.6137    0.0601 H         1 <0>         0.1629
     25 H11        -7.6583   -3.4795    0.2632 H         1 <0>         0.1313
     26 H12        -8.0528   -5.9007    0.4505 H         1 <0>         0.1291
     27 H13        -6.1598   -7.4721    0.4340 H         1 <0>         0.1315
     28 H14        -3.8592   -6.6320    0.2200 H         1 <0>         0.1344
@<TRIPOS>BOND
     1    1    2 1
     2    1   15 1
     3    1   16 1
     4    1   17 1
     5    2    3 1
     6    2   18 1
     7    2   19 1
     8    3    4 1
     9    3   20 1
    10    3   21 1
    11    4    5 1
    12    4   22 1
    13    4   23 1
    14    5    6 2
    15    5    7 1
    16    7    8 2
    17    7    9 1
    18    9   14 ar
    19    9   10 ar
    20   10   11 ar
    21   10   24 1
    22   11   12 ar
    23   11   25 1
    24   12   13 ar
    25   12   26 1
    26   13   14 ar
    27   13   27 1
    28   14   28 1
@<TRIPOS>MOLECULE
ZINC05307767
   31    31     0     0     0
SMALL
USER_CHARGES

@<TRIPOS>ATOM
      1 C1          0.0813    1.5341    0.0528 C.3       1 <0>        -0.1544
      2 C2          0.0965    0.0042    0.0444 C.3       1 <0>        -0.1257
      3 C3          0.7842   -0.4920   -1.2291 C.3       1 <0>        -0.1211
      4 C4          0.7994   -2.0219   -1.2374 C.3       1 <0>        -0.1141
      5 C5          1.4870   -2.5181   -2.5109 C.3       1 <0>        -0.1628
      6 C6          1.5020   -4.0251   -2.5192 C.2       1 <0>         0.3339
      7 O1          1.0131   -4.6389   -1.6010 O.2       1 <0>        -0.4038
      8 C7          2.1197   -4.7572   -3.6592 C.2       1 <0>         0.3603
      9 O2          2.5259   -4.1447   -4.6252 O.2       1 <0>        -0.4072
     10 C8          2.2377   -6.2263   -3.6147 C.ar      1 <0>        -0.1812
     11 C9          1.6493   -6.9477   -2.5702 C.ar      1 <0>        -0.0735
     12 C10         1.7642   -8.3209   -2.5356 C.ar      1 <0>        -0.1385
     13 C11         2.4599   -8.9863   -3.5307 C.ar      1 <0>        -0.0791
     14 C12         3.0450   -8.2796   -4.5677 C.ar      1 <0>        -0.1385
     15 C13         2.9338   -6.9066   -4.6198 C.ar      1 <0>        -0.0560
     16 H1          1.1048    1.9078    0.0233 H         1 <0>         0.0539
     17 H2         -0.4632    1.8968   -0.8191 H         1 <0>         0.0539
     18 H3         -0.4086    1.8876    0.9600 H         1 <0>         0.0543
     19 H4          0.6410   -0.3585    0.9163 H         1 <0>         0.0619
     20 H5         -0.9270   -0.3695    0.0739 H         1 <0>         0.0619
     21 H6          0.2397   -0.1293   -2.1009 H         1 <0>         0.0643
     22 H7          1.8077   -0.1183   -1.2586 H         1 <0>         0.0642
     23 H8          1.3439   -2.3846   -0.3656 H         1 <0>         0.0704
     24 H9         -0.2241   -2.3956   -1.2080 H         1 <0>         0.0705
     25 H10         0.9426   -2.1555   -3.3828 H         1 <0>         0.1092
     26 H11         2.5106   -2.1444   -2.5404 H         1 <0>         0.1080
     27 H12         1.1069   -6.4300   -1.7929 H         1 <0>         0.1629
     28 H13         1.3106   -8.8792   -1.7300 H         1 <0>         0.1313
     29 H14         2.5470  -10.0623   -3.4977 H         1 <0>         0.1291
     30 H15         3.5860   -8.8058   -5.3402 H         1 <0>         0.1315
     31 H16         3.3865   -6.3571   -5.4319 H         1 <0>         0.1344
@<TRIPOS>BOND
     1    1    2 1
     2    1   16 1
     3    1   17 1
     4    1   18 1
     5    2    3 1
     6    2   19 1
     7    2   20 1
     8    3    4 1
     9    3   21 1
    10    3   22 1
    11    4    5 1
    12    4   23 1
    13    4   24 1
    14    5    6 1
    15    5   25 1
    16    5   26 1
    17    6    7 2
    18    6    8 1
    19    8    9 2
    20    8   10 1
    21   10   15 ar
    22   10   11 ar
    23   11   12 ar
    24   11   27 1
    25   12   13 ar
    26   12   28 1
    27   13   14 ar
    28   13   29 1
    29   14   15 ar
    30   14   30 1
    31   15   31 1
@<TRIPOS>MOLECULE
ZINC05705162
   38    41     0     0     0
SMALL
USER_CHARGES
1,2-bis(2-naphthyl)ethane-1,2-dione
@<TRIPOS>ATOM
      1 C1         -2.0952    4.6404   -4.8367 C.ar      1 <0>        -0.0973
      2 C2         -2.8078    4.4378   -3.6565 C.ar      1 <0>        -0.1188
      3 C3         -2.3489    4.9219   -2.4701 C.ar      1 <0>        -0.0924
      4 C4         -1.1434    5.6468   -2.4335 C.ar      1 <0>        -0.0710
      5 C5         -0.6457    6.1640   -1.2293 C.ar      1 <0>        -0.0185
      6 C6          0.5476    6.8754   -1.2336 C.ar      1 <0>        -0.1705
      7 C7          1.2542    7.0767   -2.4358 C.ar      1 <0>        -0.0786
      8 C8          0.7857    6.5823   -3.6082 C.ar      1 <0>        -0.1085
      9 C9         -0.4213    5.8573   -3.6363 C.ar      1 <0>        -0.0233
     10 C10        -0.9248    5.3373   -4.8392 C.ar      1 <0>        -0.1150
     11 C11         1.0780    7.4224    0.0273 C.2       1 <0>         0.3762
     12 O1          0.4264    7.3362    1.0481 O.2       1 <0>        -0.4153
     13 C12         2.4147    8.0816    0.0499 C.2       1 <0>         0.3769
     14 O2          3.4243    7.4088    0.0038 O.2       1 <0>        -0.4105
     15 C13         2.5108    9.5496    0.1281 C.ar      1 <0>        -0.1672
     16 C14         3.7715   10.1737    0.0479 C.ar      1 <0>        -0.0675
     17 C15         3.8838   11.5234    0.1125 C.ar      1 <0>        -0.1115
     18 C16         2.7339   12.3205    0.2726 C.ar      1 <0>        -0.0234
     19 C17         2.8283   13.7192    0.3482 C.ar      1 <0>        -0.1149
     20 C18         1.6992   14.4653    0.5033 C.ar      1 <0>        -0.0978
     21 C19         0.4461   13.8619    0.5896 C.ar      1 <0>        -0.1184
     22 C20         0.3146   12.5089    0.5208 C.ar      1 <0>        -0.0937
     23 C21         1.4586   11.7055    0.3603 C.ar      1 <0>        -0.0687
     24 C22         1.3583   10.3091    0.2863 C.ar      1 <0>        -0.0332
     25 H1         -2.4791    4.2425   -5.7645 H         1 <0>         0.1283
     26 H2         -3.7353    3.8852   -3.6829 H         1 <0>         0.1287
     27 H3         -2.9091    4.7541   -1.5621 H         1 <0>         0.1329
     28 H4         -1.1856    6.0113   -0.3064 H         1 <0>         0.1441
     29 H5          2.1807    7.6316   -2.4233 H         1 <0>         0.1283
     30 H6          1.3386    6.7449   -4.5215 H         1 <0>         0.1368
     31 H7         -0.3865    5.4895   -5.7630 H         1 <0>         0.1325
     32 H8          4.6589    9.5698   -0.0705 H         1 <0>         0.1379
     33 H9          4.8567   11.9875    0.0453 H         1 <0>         0.1372
     34 H10         3.7922   14.2018    0.2829 H         1 <0>         0.1325
     35 H11         1.7764   15.5410    0.5606 H         1 <0>         0.1282
     36 H12        -0.4332   14.4766    0.7131 H         1 <0>         0.1285
     37 H13        -0.6627   12.0544    0.5894 H         1 <0>         0.1319
     38 H14         0.3936    9.8281    0.3520 H         1 <0>         0.1352
@<TRIPOS>BOND
     1    1   10 ar
     2    1    2 ar
     3    1   25 1
     4    2    3 ar
     5    2   26 1
     6    3    4 ar
     7    3   27 1
     8    4    9 ar
     9    4    5 ar
    10    5    6 ar
    11    5   28 1
    12    6    7 ar
    13    6   11 1
    14    7    8 ar
    15    7   29 1
    16    8    9 ar
    17    8   30 1
    18    9   10 ar
    19   10   31 1
    20   11   12 2
    21   11   13 1
    22   13   14 2
    23   13   15 1
    24   15   24 ar
    25   15   16 ar
    26   16   17 ar
    27   16   32 1
    28   17   18 ar
    29   17   33 1
    30   18   23 ar
    31   18   19 ar
    32   19   20 ar
    33   19   34 1
    34   20   21 ar
    35   20   35 1
    36   21   22 ar
    37   21   36 1
    38   22   23 ar
    39   22   37 1
    40   23   24 ar
    41   24   38 1
@<TRIPOS>MOLECULE
ZINC01672966
   26    27     0     0     0
SMALL
USER_CHARGES
1,2-diphenylethane-1,2-dione
@<TRIPOS>ATOM
      1 C1          1.6146   -1.2472    3.6201 C.ar      1 <0>        -0.0783
      2 C2          2.8063   -0.5425    3.6076 C.ar      1 <0>        -0.1296
      3 C3          3.4876   -0.3543    2.4240 C.ar      1 <0>        -0.0651
      4 C4          2.9718   -0.8776    1.2335 C.ar      1 <0>        -0.1721
      5 C5          1.7671   -1.5885    1.2545 C.ar      1 <0>        -0.0527
      6 C6          1.0977   -1.7681    2.4462 C.ar      1 <0>        -0.1314
      7 C7          3.6938   -0.6805   -0.0367 C.2       1 <0>         0.3775
      8 O1          3.2958   -1.2164   -1.0505 O.2       1 <0>        -0.4140
      9 C8          4.9132    0.1773   -0.0760 C.2       1 <0>         0.3768
     10 O2          4.8068    1.3857   -0.0349 O.2       1 <0>        -0.4129
     11 C9          6.2481   -0.4425   -0.1649 C.ar      1 <0>        -0.1730
     12 C10         6.3714   -1.8282   -0.3125 C.ar      1 <0>        -0.0654
     13 C11         7.6229   -2.3996   -0.4001 C.ar      1 <0>        -0.1297
     14 C12         8.7560   -1.6072   -0.3308 C.ar      1 <0>        -0.0783
     15 C13         8.6424   -0.2358   -0.1794 C.ar      1 <0>        -0.1315
     16 C14         7.3979    0.3513   -0.0961 C.ar      1 <0>        -0.0531
     17 H1          1.0833   -1.3874    4.5498 H         1 <0>         0.1322
     18 H2          3.2032   -0.1392    4.5274 H         1 <0>         0.1338
     19 H3          4.4172    0.1953    2.4158 H         1 <0>         0.1280
     20 H4          1.3624   -1.9952    0.3395 H         1 <0>         0.1376
     21 H5          0.1674   -2.3164    2.4640 H         1 <0>         0.1344
     22 H6          5.4884   -2.4481   -0.3623 H         1 <0>         0.1292
     23 H7          7.7197   -3.4687   -0.5186 H         1 <0>         0.1338
     24 H8          9.7338   -2.0613   -0.3954 H         1 <0>         0.1321
     25 H9          9.5310    0.3758   -0.1268 H         1 <0>         0.1344
     26 H10         7.3108    1.4213    0.0224 H         1 <0>         0.1376
@<TRIPOS>BOND
     1    1    6 ar
     2    1    2 ar
     3    1   17 1
     4    2    3 ar
     5    2   18 1
     6    3    4 ar
     7    3   19 1
     8    4    5 ar
     9    4    7 1
    10    5    6 ar
    11    5   20 1
    12    6   21 1
    13    7    8 2
    14    7    9 1
    15    9   10 2
    16    9   11 1
    17   11   16 ar
    18   11   12 ar
    19   12   13 ar
    20   12   22 1
    21   13   14 ar
    22   13   23 1
    23   14   15 ar
    24   14   24 1
    25   15   16 ar
    26   15   25 1
    27   16   26 1
@<TRIPOS>MOLECULE
ZINC01566855
   34    35     0     0     0
SMALL
USER_CHARGES
1,2-bis(4-methoxyphenyl)ethane-1,2-dione
@<TRIPOS>ATOM
      1 C1          0.7369    3.5776   -5.9486 C.3       1 <0>         0.0220
      2 O1          0.6577    4.3389   -4.7419 O.3       1 <0>        -0.3086
      3 C2          0.4933    3.6471   -3.5870 C.ar      1 <0>         0.1722
      4 C3          0.4088    4.3284   -2.3765 C.ar      1 <0>        -0.1650
      5 C4          0.2432    3.6363   -1.2106 C.ar      1 <0>        -0.0096
      6 C5          0.1581    2.2381   -1.2349 C.ar      1 <0>        -0.2153
      7 C6          0.2487    1.5567   -2.4556 C.ar      1 <0>        -0.0196
      8 C7          0.4094    2.2584   -3.6165 C.ar      1 <0>        -0.2213
      9 C8         -0.0198    1.4876    0.0180 C.2       1 <0>         0.3799
     10 O2         -0.1902    2.0822    1.0629 O.2       1 <0>        -0.4195
     11 C9          0.0032   -0.0030    0.0037 C.2       1 <0>         0.3801
     12 O3          1.0586   -0.5929   -0.1090 O.2       1 <0>        -0.4216
     13 C10        -1.2529   -0.7593    0.1261 C.ar      1 <0>        -0.2155
     14 C11        -1.2255   -2.1569    0.2195 C.ar      1 <0>        -0.0075
     15 C12        -2.3942   -2.8541    0.3374 C.ar      1 <0>        -0.2234
     16 C13        -3.6111   -2.1792    0.3545 C.ar      1 <0>         0.1721
     17 C14        -3.6439   -0.7915    0.2571 C.ar      1 <0>        -0.1627
     18 C15        -2.4806   -0.0847    0.1437 C.ar      1 <0>        -0.0221
     19 O4         -4.7691   -2.8765    0.4668 O.3       1 <0>        -0.3088
     20 C16        -4.6635   -4.2983    0.5627 C.3       1 <0>         0.0221
     21 H1          1.5851    2.8952   -5.8927 H         1 <0>         0.0610
     22 H2         -0.1817    3.0054   -6.0782 H         1 <0>         0.0609
     23 H3          0.8678    4.2513   -6.7954 H         1 <0>         0.1059
     24 H4          0.4745    5.4063   -2.3589 H         1 <0>         0.1427
     25 H5          0.1777    4.1660   -0.2717 H         1 <0>         0.1453
     26 H6          0.1881    0.4786   -2.4791 H         1 <0>         0.1314
     27 H7          0.4752    1.7342   -4.5585 H         1 <0>         0.1388
     28 H8         -0.2819   -2.6819    0.2018 H         1 <0>         0.1405
     29 H9         -2.3740   -3.9312    0.4136 H         1 <0>         0.1393
     30 H10        -4.5909   -0.2724    0.2708 H         1 <0>         0.1423
     31 H11        -2.5071    0.9924    0.0682 H         1 <0>         0.1363
     32 H12        -4.0771   -4.5606    1.4433 H         1 <0>         0.0612
     33 H13        -5.6600   -4.7317    0.6475 H         1 <0>         0.1060
     34 H14        -4.1729   -4.6872   -0.3296 H         1 <0>         0.0609
@<TRIPOS>BOND
     1    1    2 1
     2    1   21 1
     3    1   22 1
     4    1   23 1
     5    2    3 1
     6    3    8 ar
     7    3    4 ar
     8    4    5 ar
     9    4   24 1
    10    5    6 ar
    11    5   25 1
    12    6    7 ar
    13    6    9 1
    14    7    8 ar
    15    7   26 1
    16    8   27 1
    17    9   10 2
    18    9   11 1
    19   11   12 2
    20   11   13 1
    21   13   18 ar
    22   13   14 ar
    23   14   15 ar
    24   14   28 1
    25   15   16 ar
    26   15   29 1
    27   16   17 ar
    28   16   19 1
    29   17   18 ar
    30   17   30 1
    31   18   31 1
    32   19   20 1
    33   20   32 1
    34   20   33 1
    35   20   34 1
@<TRIPOS>MOLECULE
ZINC01648377
   42    43     0     0     0
SMALL
USER_CHARGES
1,2-bis(4-dimethylaminophenyl)ethane-1,2-dione
@<TRIPOS>ATOM
      1 C1          0.7488    5.8162   -4.7403 C.3       1 <0>         0.0846
      2 N1          0.6601    4.3542   -4.7684 N.pl3     1 <0>        -0.6239
      3 C2          0.7488    3.6394   -6.0442 C.3       1 <0>         0.0846
      4 C3          0.4921    3.6464   -3.5867 C.ar      1 <0>         0.2560
      5 C4          0.4079    4.3285   -2.3738 C.ar      1 <0>        -0.2160
      6 C5          0.2427    3.6361   -1.2093 C.ar      1 <0>         0.0018
      7 C6          0.1576    2.2371   -1.2340 C.ar      1 <0>        -0.2391
      8 C7          0.2481    1.5548   -2.4551 C.ar      1 <0>        -0.0090
      9 C8          0.4075    2.2551   -3.6158 C.ar      1 <0>        -0.2134
     10 C9         -0.0198    1.4872    0.0180 C.2       1 <0>         0.3809
     11 O1         -0.1902    2.0820    1.0632 O.2       1 <0>        -0.4337
     12 C10         0.0032   -0.0030    0.0038 C.2       1 <0>         0.3809
     13 O2          1.0589   -0.5929   -0.1090 O.2       1 <0>        -0.4337
     14 C11        -1.2518   -0.7588    0.1262 C.ar      1 <0>        -0.2390
     15 C12        -2.4797   -0.0830    0.1497 C.ar      1 <0>        -0.0090
     16 C13        -3.6429   -0.7888    0.2582 C.ar      1 <0>        -0.2133
     17 C14        -3.6103   -2.1790    0.3573 C.ar      1 <0>         0.2559
     18 C15        -2.3910   -2.8546    0.3396 C.ar      1 <0>        -0.2160
     19 C16        -1.2235   -2.1567    0.2256 C.ar      1 <0>         0.0018
     20 N2         -4.7950   -2.8924    0.4733 N.pl3     1 <0>        -0.6240
     21 C17        -4.7631   -4.3534    0.5770 C.3       1 <0>         0.0847
     22 C18        -6.0775   -2.1845    0.4921 C.3       1 <0>         0.0846
     23 H1          1.7909    6.1149   -4.6266 H         1 <0>         0.0554
     24 H2          0.3540    6.2222   -5.6717 H         1 <0>         0.0718
     25 H3          0.1674    6.1994   -3.9017 H         1 <0>         0.0740
     26 H4         -0.2493    3.5260   -6.4673 H         1 <0>         0.0553
     27 H5          1.3742    4.2051   -6.7349 H         1 <0>         0.0719
     28 H6          1.1876    2.6553   -5.8795 H         1 <0>         0.0739
     29 H7          0.4739    5.4063   -2.3556 H         1 <0>         0.1316
     30 H8          0.1772    4.1653   -0.2701 H         1 <0>         0.1351
     31 H9          0.1871    0.4768   -2.4781 H         1 <0>         0.1271
     32 H10         0.4728    1.7305   -4.5575 H         1 <0>         0.1312
     33 H11        -2.5056    0.9943    0.0776 H         1 <0>         0.1271
     34 H12        -4.5896   -0.2693    0.2720 H         1 <0>         0.1312
     35 H13        -2.3700   -3.9316    0.4165 H         1 <0>         0.1316
     36 H14        -0.2794   -2.6809    0.2116 H         1 <0>         0.1351
     37 H15        -4.6994   -4.6418    1.6262 H         1 <0>         0.0554
     38 H16        -5.6715   -4.7685    0.1406 H         1 <0>         0.0718
     39 H17        -3.8946   -4.7368    0.0415 H         1 <0>         0.0740
     40 H18        -6.4513   -2.0829   -0.5267 H         1 <0>         0.0553
     41 H19        -6.7951   -2.7486    1.0879 H         1 <0>         0.0719
     42 H20        -5.9402   -1.1955    0.9292 H         1 <0>         0.0739
@<TRIPOS>BOND
     1    1    2 1
     2    1   23 1
     3    1   24 1
     4    1   25 1
     5    2    3 1
     6    2    4 1
     7    3   26 1
     8    3   27 1
     9    3   28 1
    10    4    9 ar
    11    4    5 ar
    12    5    6 ar
    13    5   29 1
    14    6    7 ar
    15    6   30 1
    16    7    8 ar
    17    7   10 1
    18    8    9 ar
    19    8   31 1
    20    9   32 1
    21   10   11 2
    22   10   12 1
    23   12   13 2
    24   12   14 1
    25   14   19 ar
    26   14   15 ar
    27   15   16 ar
    28   15   33 1
    29   16   17 ar
    30   16   34 1
    31   17   18 ar
    32   17   20 1
    33   18   19 ar
    34   18   35 1
    35   19   36 1
    36   20   21 1
    37   20   22 1
    38   21   37 1
    39   21   38 1
    40   21   39 1
    41   22   40 1
    42   22   41 1
    43   22   42 1
@<TRIPOS>MOLECULE
ZINC03152345
   30    31     0     0     0
SMALL
USER_CHARGES
1,2-bis(4-bromo-3-nitro-phenyl)ethane-1,2-dione
@<TRIPOS>ATOM
      1 C1         -0.8298   -0.7465    2.4629 C.ar      1 <0>        -0.0139
      2 C2         -0.6296   -0.0629    3.6425 C.ar      1 <0>        -0.0949
      3 C3         -0.6439    1.3227    3.6553 C.ar      1 <0>        -0.0131
      4 C4         -0.8585    2.0311    2.4838 C.ar      1 <0>        -0.0341
      5 C5         -1.0602    1.3612    1.2967 C.ar      1 <0>         0.0172
      6 C6         -1.0475   -0.0380    1.2760 C.ar      1 <0>        -0.1585
      7 C7         -1.2620   -0.7618    0.0103 C.2       1 <0>         0.3804
      8 O1         -1.5462   -0.1494   -0.9985 O.2       1 <0>        -0.3840
      9 C8         -1.1299   -2.2467   -0.0312 C.2       1 <0>         0.3793
     10 O2         -0.0296   -2.7589   -0.0108 O.2       1 <0>        -0.3823
     11 C9         -2.3352   -3.0922   -0.0969 C.ar      1 <0>        -0.1597
     12 C10        -3.5996   -2.5056   -0.2208 C.ar      1 <0>        -0.0138
     13 C11        -4.7216   -3.3027   -0.2879 C.ar      1 <0>        -0.0949
     14 C12        -4.6010   -4.6816   -0.2204 C.ar      1 <0>        -0.0132
     15 C13        -3.3527   -5.2694   -0.0919 C.ar      1 <0>        -0.0343
     16 C14        -2.2213   -4.4853   -0.0298 C.ar      1 <0>         0.0166
     17 N1         -3.2343   -6.7432   -0.0217 N.pl3     1 <0>         0.0195
     18 O3         -2.1378   -7.2614    0.0909 O.2       1 <0>        -0.1488
     19 O4         -4.2334   -7.4377   -0.0764 O.3       1 <0>        -0.1187
     20 Br1        -6.1476   -5.7665   -0.3048 Br        1 <0>         0.0435
     21 N2         -0.8710    3.5111    2.5076 N.pl3     1 <0>         0.0195
     22 O5         -1.0595    4.1352    1.4788 O.2       1 <0>        -0.1486
     23 O6         -0.6929    4.1048    3.5561 O.3       1 <0>        -0.1187
     24 Br2        -0.3682    2.2515    5.2793 Br        1 <0>         0.0436
     25 H1         -0.8191   -1.8264    2.4545 H         1 <0>         0.1573
     26 H2         -0.4614   -0.6084    4.5593 H         1 <0>         0.1704
     27 H3         -1.2232    1.9146    0.3837 H         1 <0>         0.1775
     28 H4         -3.6954   -1.4309   -0.2683 H         1 <0>         0.1588
     29 H5         -5.6977   -2.8516   -0.3884 H         1 <0>         0.1704
     30 H6         -1.2491   -4.9447    0.0707 H         1 <0>         0.1775
@<TRIPOS>BOND
     1    1    6 ar
     2    1    2 ar
     3    1   25 1
     4    2    3 ar
     5    2   26 1
     6    3    4 ar
     7    3   24 1
     8    4    5 ar
     9    4   21 1
    10    5    6 ar
    11    5   27 1
    12    6    7 1
    13    7    8 2
    14    7    9 1
    15    9   10 2
    16    9   11 1
    17   11   16 ar
    18   11   12 ar
    19   12   13 ar
    20   12   28 1
    21   13   14 ar
    22   13   29 1
    23   14   15 ar
    24   14   20 1
    25   15   16 ar
    26   15   17 1
    27   16   30 1
    28   17   18 2
    29   17   19 1
    30   21   22 2
    31   21   23 1
@<TRIPOS>MOLECULE
ZINC01601014
   30    31     0     0     0
SMALL
USER_CHARGES
1,2-bis(3-nitrophenyl)ethane-1,2-dione
@<TRIPOS>ATOM
      1 C1         -0.4043    4.4500   -3.6067 C.ar      1 <0>        -0.1202
      2 C2          0.0958    4.9680   -2.4311 C.ar      1 <0>        -0.0205
      3 C3         -0.5978    4.7690   -1.2326 C.ar      1 <0>        -0.1685
      4 C4         -1.7947    4.0449   -1.2374 C.ar      1 <0>         0.0099
      5 C5         -2.2849    3.5386   -2.4223 C.ar      1 <0>        -0.0516
      6 C6         -1.5898    3.7349   -3.6034 C.ar      1 <0>        -0.0158
      7 N1         -3.5548    2.7782   -2.4308 N.pl3     1 <0>         0.0240
      8 O1         -3.9869    2.3261   -3.4760 O.2       1 <0>        -0.1462
      9 O2         -4.1676    2.6045   -1.3926 O.3       1 <0>        -0.1460
     10 C7         -0.0702    5.3200    0.0291 C.2       1 <0>         0.3749
     11 O3         -0.7209    5.2300    1.0497 O.2       1 <0>        -0.3881
     12 C8          1.2632    5.9880    0.0513 C.2       1 <0>         0.3831
     13 O4          2.2766    5.3217    0.0049 O.2       1 <0>        -0.3910
     14 C9          1.3502    7.4577    0.1296 C.ar      1 <0>        -0.1704
     15 C10         2.5931    8.0940    0.0447 C.ar      1 <0>        -0.0039
     16 C11         2.6661    9.4686    0.1182 C.ar      1 <0>        -0.1212
     17 C12         1.5135   10.2193    0.2752 C.ar      1 <0>        -0.0161
     18 C13         0.2796    9.5970    0.3600 C.ar      1 <0>        -0.0506
     19 C14         0.1896    8.2235    0.2832 C.ar      1 <0>        -0.0065
     20 N2         -0.9466   10.4089    0.5273 N.pl3     1 <0>         0.0236
     21 O5         -0.8694   11.6229    0.5901 O.2       1 <0>        -0.1438
     22 O6         -2.0329    9.8631    0.6020 O.3       1 <0>        -0.1492
     23 H1          0.1300    4.6028   -4.5328 H         1 <0>         0.1618
     24 H2          1.0207    5.5256   -2.4353 H         1 <0>         0.1482
     25 H3         -2.3360    3.8875   -0.3162 H         1 <0>         0.1701
     26 H4         -1.9766    3.3319   -4.5277 H         1 <0>         0.1655
     27 H5          3.4931    7.5098   -0.0785 H         1 <0>         0.1605
     28 H6          3.6250    9.9613    0.0529 H         1 <0>         0.1630
     29 H7          1.5771   11.2959    0.3314 H         1 <0>         0.1655
     30 H8         -0.7740    7.7398    0.3451 H         1 <0>         0.1595
@<TRIPOS>BOND
     1    1    6 ar
     2    1    2 ar
     3    1   23 1
     4    2    3 ar
     5    2   24 1
     6    3    4 ar
     7    3   10 1
     8    4    5 ar
     9    4   25 1
    10    5    6 ar
    11    5    7 1
    12    6   26 1
    13    7    8 2
    14    7    9 1
    15   10   11 2
    16   10   12 1
    17   12   13 2
    18   12   14 1
    19   14   19 ar
    20   14   15 ar
    21   15   16 ar
    22   15   27 1
    23   16   17 ar
    24   16   28 1
    25   17   18 ar
    26   17   29 1
    27   18   19 ar
    28   18   20 1
    29   19   30 1
    30   20   21 2
    31   20   22 1
@<TRIPOS>MOLECULE
ZINC02384868
   34    35     0     0     0
SMALL
USER_CHARGES
1-(2-chlorophenyl)-2-(3,4-dimethoxyphenyl)-ethane-1,2-dione
@<TRIPOS>ATOM
      1 C1          8.8067   -1.1758   -0.5437 C.3       1 <0>         0.0210
      2 O1          8.7605    0.2439   -0.3876 O.3       1 <0>        -0.2975
      3 C2          7.5322    0.8151   -0.3060 C.ar      1 <0>         0.1464
      4 C3          6.3929    0.0216   -0.3747 C.ar      1 <0>        -0.1873
      5 C4          5.1448    0.5944   -0.2862 C.ar      1 <0>        -0.0527
      6 C5          5.0202    1.9821   -0.1387 C.ar      1 <0>        -0.1752
      7 C6          6.1689    2.7810   -0.0696 C.ar      1 <0>        -0.1078
      8 C7          7.4165    2.1978   -0.1528 C.ar      1 <0>         0.0880
      9 O2          8.5337    2.9702   -0.0861 O.3       1 <0>        -0.3024
     10 C8          8.3411    4.3775    0.0704 C.3       1 <0>         0.0222
     11 C9          3.6871    2.5978   -0.0507 C.2       1 <0>         0.3825
     12 O3          3.5781    3.8065   -0.0094 O.2       1 <0>        -0.4158
     13 C10         2.4698    1.7378   -0.0121 C.2       1 <0>         0.3698
     14 O4          2.0732    1.2013   -1.0262 O.2       1 <0>        -0.3916
     15 C11         1.7481    1.5390    1.2572 C.ar      1 <0>        -0.1643
     16 C12         2.2635    2.0611    2.4489 C.ar      1 <0>        -0.0540
     17 C13         1.5826    1.8714    3.6316 C.ar      1 <0>        -0.1255
     18 C14         0.3905    1.1660    3.6442 C.ar      1 <0>        -0.0666
     19 C15        -0.1297    0.6505    2.4706 C.ar      1 <0>        -0.1237
     20 C16         0.5425    0.8270    1.2775 C.ar      1 <0>         0.0189
     21 Cl1        -0.1084    0.1745   -0.1936 Cl        1 <0>        -0.0301
     22 H1          8.3187   -1.6510    0.3073 H         1 <0>         0.0603
     23 H2          8.2912   -1.4574   -1.4619 H         1 <0>         0.0605
     24 H3          9.8454   -1.5021   -0.5955 H         1 <0>         0.1063
     25 H4          6.4876   -1.0477   -0.4928 H         1 <0>         0.1472
     26 H5          4.2614   -0.0250   -0.3354 H         1 <0>         0.1355
     27 H6          6.0781    3.8506    0.0489 H         1 <0>         0.1507
     28 H7          9.3103    4.8747    0.1095 H         1 <0>         0.1055
     29 H8          7.7691    4.7621   -0.7740 H         1 <0>         0.0582
     30 H9          7.7969    4.5690    0.9953 H         1 <0>         0.0577
     31 H10         3.1926    2.6117    2.4415 H         1 <0>         0.1371
     32 H11         1.9794    2.2742    4.5517 H         1 <0>         0.1405
     33 H12        -0.1379    1.0211    4.5749 H         1 <0>         0.1420
     34 H13        -1.0618    0.1053    2.4882 H         1 <0>         0.1444
@<TRIPOS>BOND
     1    1    2 1
     2    1   22 1
     3    1   23 1
     4    1   24 1
     5    2    3 1
     6    3    8 ar
     7    3    4 ar
     8    4    5 ar
     9    4   25 1
    10    5    6 ar
    11    5   26 1
    12    6    7 ar
    13    6   11 1
    14    7    8 ar
    15    7   27 1
    16    8    9 1
    17    9   10 1
    18   10   28 1
    19   10   29 1
    20   10   30 1
    21   11   12 2
    22   11   13 1
    23   13   14 2
    24   13   15 1
    25   15   20 ar
    26   15   16 ar
    27   16   17 ar
    28   16   31 1
    29   17   18 ar
    30   17   32 1
    31   18   19 ar
    32   18   33 1
    33   19   20 ar
    34   19   34 1
    35   20   21 1
@<TRIPOS>MOLECULE
ZINC03132327
   31    32     0     0     0
SMALL
USER_CHARGES
1-(4-methyl-3-nitro-phenyl)-2-phenyl-ethane-1,2-dione
@<TRIPOS>ATOM
      1 C1         10.0580   -2.3500   -0.5219 C.3       1 <0>        -0.1423
      2 C2          8.7261   -1.6596   -0.3790 C.ar      1 <0>         0.0234
      3 C3          7.5602   -2.3434   -0.6795 C.ar      1 <0>        -0.1292
      4 C4          6.3378   -1.7205   -0.5462 C.ar      1 <0>        -0.0128
      5 C5          6.2779   -0.3900   -0.1175 C.ar      1 <0>        -0.1767
      6 C6          7.4602    0.2938    0.1842 C.ar      1 <0>         0.0133
      7 C7          8.6748   -0.3450    0.0517 C.ar      1 <0>        -0.0603
      8 N1          9.9272    0.3768    0.3704 N.pl3     1 <0>         0.0298
      9 O1          9.8948    1.5656    0.6335 O.2       1 <0>        -0.1559
     10 O2         10.9900   -0.2181    0.3694 O.3       1 <0>        -0.1474
     11 C8          4.9749    0.2858    0.0214 C.2       1 <0>         0.3780
     12 O3          4.9300    1.4639    0.3098 O.2       1 <0>        -0.3979
     13 C9          3.7120   -0.4783   -0.1925 C.2       1 <0>         0.3802
     14 O4          3.3564   -0.7600   -1.3183 O.2       1 <0>        -0.4089
     15 C10         2.8955   -0.8914    0.9635 C.ar      1 <0>        -0.1745
     16 C11         1.6569   -1.5104    0.7642 C.ar      1 <0>        -0.0503
     17 C12         0.8991   -1.8933    1.8503 C.ar      1 <0>        -0.1304
     18 C13         1.3609   -1.6667    3.1356 C.ar      1 <0>        -0.0752
     19 C14         2.5857   -1.0546    3.3412 C.ar      1 <0>        -0.1286
     20 C15         3.3552   -0.6659    2.2654 C.ar      1 <0>        -0.0663
     21 H1         10.3754   -2.7318    0.4485 H         1 <0>         0.0985
     22 H2          9.9646   -3.1776   -1.2251 H         1 <0>         0.0813
     23 H3         10.7974   -1.6400   -0.8925 H         1 <0>         0.1045
     24 H4          7.6083   -3.3689   -1.0146 H         1 <0>         0.1596
     25 H5          5.4290   -2.2565   -0.7767 H         1 <0>         0.1500
     26 H6          7.4217    1.3195    0.5203 H         1 <0>         0.1678
     27 H7          1.2951   -1.6875   -0.2379 H         1 <0>         0.1389
     28 H8         -0.0575   -2.3709    1.6981 H         1 <0>         0.1358
     29 H9          0.7607   -1.9649    3.9825 H         1 <0>         0.1335
     30 H10         2.9391   -0.8813    4.3468 H         1 <0>         0.1348
     31 H11         4.3102   -0.1883    2.4273 H         1 <0>         0.1272
@<TRIPOS>BOND
     1    1    2 1
     2    1   21 1
     3    1   22 1
     4    1   23 1
     5    2    7 ar
     6    2    3 ar
     7    3    4 ar
     8    3   24 1
     9    4    5 ar
    10    4   25 1
    11    5    6 ar
    12    5   11 1
    13    6    7 ar
    14    6   26 1
    15    7    8 1
    16    8    9 2
    17    8   10 1
    18   11   12 2
    19   11   13 1
    20   13   14 2
    21   13   15 1
    22   15   20 ar
    23   15   16 ar
    24   16   17 ar
    25   16   27 1
    26   17   18 ar
    27   17   28 1
    28   18   19 ar
    29   18   29 1
    30   19   20 ar
    31   19   30 1
    32   20   31 1
@<TRIPOS>MOLECULE
ZINC01555402
   26    27     0     0     0
SMALL
USER_CHARGES
1,2-bis(4-chlorophenyl)ethane-1,2-dione
@<TRIPOS>ATOM
      1 C1         -0.4874   -0.9398    1.2786 C.ar      1 <0>        -0.0383
      2 C2         -0.9680   -0.4445    2.4711 C.ar      1 <0>        -0.1214
      3 C3         -0.2462   -0.6235    3.6409 C.ar      1 <0>         0.0021
      4 C4          0.9630   -1.3010    3.6204 C.ar      1 <0>        -0.1198
      5 C5          1.4558   -1.8017    2.4353 C.ar      1 <0>        -0.0518
      6 C6          0.7326   -1.6249    1.2503 C.ar      1 <0>        -0.1693
      7 C7          1.2534   -2.1571   -0.0213 C.2       1 <0>         0.3780
      8 O1          0.5806   -2.0878   -1.0292 O.2       1 <0>        -0.4071
      9 C8          2.6071   -2.7810   -0.0698 C.2       1 <0>         0.3772
     10 O2          3.5990   -2.0818   -0.0420 O.2       1 <0>        -0.4059
     11 C9          2.7406   -4.2463   -0.1516 C.ar      1 <0>        -0.1703
     12 C10         1.6024   -5.0496   -0.2842 C.ar      1 <0>        -0.0519
     13 C11         1.7353   -6.4185   -0.3659 C.ar      1 <0>        -0.1199
     14 C12         2.9916   -7.0011   -0.3055 C.ar      1 <0>         0.0021
     15 C13         4.1230   -6.2120   -0.1685 C.ar      1 <0>        -0.1216
     16 C14         4.0058   -4.8414   -0.0913 C.ar      1 <0>        -0.0387
     17 Cl1         3.1490   -8.7273   -0.4025 Cl        1 <0>        -0.0517
     18 Cl2        -0.8595    0.0040    5.1389 Cl        1 <0>        -0.0517
     19 H1         -1.0509   -0.8000    0.3680 H         1 <0>         0.1487
     20 H2         -1.9071    0.0883    2.4937 H         1 <0>         0.1464
     21 H3          1.5200   -1.4367    4.5357 H         1 <0>         0.1458
     22 H4          2.3979   -2.3297    2.4208 H         1 <0>         0.1386
     23 H5          0.6226   -4.5973   -0.3269 H         1 <0>         0.1398
     24 H6          0.8581   -7.0395   -0.4727 H         1 <0>         0.1458
     25 H7          5.0988   -6.6727   -0.1224 H         1 <0>         0.1463
     26 H8          4.8881   -4.2278    0.0151 H         1 <0>         0.1487
@<TRIPOS>BOND
     1    1    6 ar
     2    1    2 ar
     3    1   19 1
     4    2    3 ar
     5    2   20 1
     6    3    4 ar
     7    3   18 1
     8    4    5 ar
     9    4   21 1
    10    5    6 ar
    11    5   22 1
    12    6    7 1
    13    7    8 2
    14    7    9 1
    15    9   10 2
    16    9   11 1
    17   11   16 ar
    18   11   12 ar
    19   12   13 ar
    20   12   23 1
    21   13   14 ar
    22   13   24 1
    23   14   15 ar
    24   14   17 1
    25   15   16 ar
    26   15   25 1
    27   16   26 1
@<TRIPOS>MOLECULE
ZINC02170331
   26    27     0     0     0
SMALL
USER_CHARGES
1-(4-chlorophenyl)-2-phenyl-ethane-1,2-dione
@<TRIPOS>ATOM
      1 C1          2.9918   -7.0016   -0.3055 C.ar      1 <0>        -0.0774
      2 C2          4.1220   -6.2137   -0.1687 C.ar      1 <0>        -0.1313
      3 C3          4.0053   -4.8423   -0.0914 C.ar      1 <0>        -0.0524
      4 C4          2.7408   -4.2471   -0.1517 C.ar      1 <0>        -0.1739
      5 C5          1.6032   -5.0504   -0.2842 C.ar      1 <0>        -0.0655
      6 C6          1.7368   -6.4200   -0.3659 C.ar      1 <0>        -0.1295
      7 C7          2.6072   -2.7810   -0.0698 C.2       1 <0>         0.3767
      8 O1          3.5990   -2.0819   -0.0420 O.2       1 <0>        -0.4109
      9 C8          1.2534   -2.1571   -0.0213 C.2       1 <0>         0.3780
     10 O2          0.5806   -2.0878   -1.0292 O.2       1 <0>        -0.4090
     11 C9          0.7326   -1.6249    1.2503 C.ar      1 <0>        -0.1683
     12 C10        -0.4873   -0.9398    1.2786 C.ar      1 <0>        -0.0391
     13 C11        -0.9679   -0.4445    2.4711 C.ar      1 <0>        -0.1216
     14 C12        -0.2462   -0.6234    3.6409 C.ar      1 <0>         0.0014
     15 C13         0.9630   -1.3009    3.6204 C.ar      1 <0>        -0.1200
     16 C14         1.4559   -1.8017    2.4353 C.ar      1 <0>        -0.0516
     17 Cl1        -0.8595    0.0040    5.1389 Cl        1 <0>        -0.0524
     18 H1          3.0896   -8.0754   -0.3658 H         1 <0>         0.1324
     19 H2          5.0975   -6.6747   -0.1227 H         1 <0>         0.1346
     20 H3          4.8879   -4.2290    0.0157 H         1 <0>         0.1380
     21 H4          0.6232   -4.5984   -0.3269 H         1 <0>         0.1293
     22 H5          0.8599   -7.0413   -0.4727 H         1 <0>         0.1340
     23 H6         -1.0509   -0.8000    0.3680 H         1 <0>         0.1484
     24 H7         -1.9071    0.0883    2.4937 H         1 <0>         0.1461
     25 H8          1.5201   -1.4366    4.5357 H         1 <0>         0.1455
     26 H9          2.3979   -2.3297    2.4208 H         1 <0>         0.1386
@<TRIPOS>BOND
     1    1    6 ar
     2    1    2 ar
     3    1   18 1
     4    2    3 ar
     5    2   19 1
     6    3    4 ar
     7    3   20 1
     8    4    5 ar
     9    4    7 1
    10    5    6 ar
    11    5   21 1
    12    6   22 1
    13    7    8 2
    14    7    9 1
    15    9   10 2
    16    9   11 1
    17   11   16 ar
    18   11   12 ar
    19   12   13 ar
    20   12   23 1
    21   13   14 ar
    22   13   24 1
    23   14   15 ar
    24   14   17 1
    25   15   16 ar
    26   15   25 1
    27   16   26 1
@<TRIPOS>MOLECULE
ZINC02559787
   29    30     0     0     0
SMALL
USER_CHARGES
1-[4-(bromomethyl)phenyl]-2-phenyl-ethane-1,2-dione
@<TRIPOS>ATOM
      1 C1          1.6146   -1.2472    3.6201 C.ar      1 <0>        -0.0778
      2 C2          2.8063   -0.5425    3.6076 C.ar      1 <0>        -0.1294
      3 C3          3.4876   -0.3543    2.4240 C.ar      1 <0>        -0.0649
      4 C4          2.9717   -0.8776    1.2335 C.ar      1 <0>        -0.1726
      5 C5          1.7671   -1.5885    1.2545 C.ar      1 <0>        -0.0524
      6 C6          1.0977   -1.7681    2.4462 C.ar      1 <0>        -0.1314
      7 C7          3.6938   -0.6805   -0.0367 C.2       1 <0>         0.3776
      8 O1          3.2958   -1.2164   -1.0505 O.2       1 <0>        -0.4135
      9 C8          4.9132    0.1773   -0.0760 C.2       1 <0>         0.3763
     10 O2          4.8068    1.3857   -0.0349 O.2       1 <0>        -0.4102
     11 C9          6.2481   -0.4425   -0.1649 C.ar      1 <0>        -0.1653
     12 C10         6.3714   -1.8282   -0.3125 C.ar      1 <0>        -0.0614
     13 C11         7.6229   -2.3996   -0.4006 C.ar      1 <0>        -0.1121
     14 C12         8.7560   -1.6072   -0.3312 C.ar      1 <0>        -0.0561
     15 C13         8.6424   -0.2358   -0.1794 C.ar      1 <0>        -0.1139
     16 C14         7.3979    0.3513   -0.0961 C.ar      1 <0>        -0.0491
     17 C15        10.1204   -2.2407   -0.4220 C.3       1 <0>        -0.0487
     18 Br1        10.7426   -2.7178    1.3809 Br        1 <0>        -0.1390
     19 H1          1.0833   -1.3874    4.5498 H         1 <0>         0.1323
     20 H2          3.2031   -0.1389    4.5274 H         1 <0>         0.1339
     21 H3          4.4168    0.1959    2.4157 H         1 <0>         0.1280
     22 H4          1.3624   -1.9952    0.3395 H         1 <0>         0.1377
     23 H5          0.1674   -2.3164    2.4640 H         1 <0>         0.1344
     24 H6          5.4884   -2.4481   -0.3620 H         1 <0>         0.1332
     25 H7          7.7197   -3.4686   -0.5194 H         1 <0>         0.1365
     26 H8          9.5310    0.3757   -0.1264 H         1 <0>         0.1370
     27 H9          7.3108    1.4214    0.0217 H         1 <0>         0.1416
     28 H10        10.0636   -3.1393   -1.0363 H         1 <0>         0.1145
     29 H11        10.8190   -1.5359   -0.8728 H         1 <0>         0.1146
@<TRIPOS>BOND
     1    1    6 ar
     2    1    2 ar
     3    1   19 1
     4    2    3 ar
     5    2   20 1
     6    3    4 ar
     7    3   21 1
     8    4    5 ar
     9    4    7 1
    10    5    6 ar
    11    5   22 1
    12    6   23 1
    13    7    8 2
    14    7    9 1
    15    9   10 2
    16    9   11 1
    17   11   16 ar
    18   11   12 ar
    19   12   13 ar
    20   12   24 1
    21   13   14 ar
    22   13   25 1
    23   14   15 ar
    24   14   17 1
    25   15   16 ar
    26   15   26 1
    27   16   27 1
    28   17   18 1
    29   17   28 1
    30   17   29 1
@<TRIPOS>MOLECULE
ZINC02510245
   29    30     0     0     0
SMALL
USER_CHARGES
1-(4-chlorophenyl)-2-(p-tolyl)ethane-1,2-dione
@<TRIPOS>ATOM
      1 C1          3.1281   -8.5002   -0.3866 C.3       1 <0>        -0.1246
      2 C2          2.9917   -7.0017   -0.3040 C.ar      1 <0>        -0.0420
      3 C3          4.1219   -6.2137   -0.1681 C.ar      1 <0>        -0.1338
      4 C4          4.0053   -4.8423   -0.0914 C.ar      1 <0>        -0.0467
      5 C5          2.7408   -4.2471   -0.1517 C.ar      1 <0>        -0.1809
      6 C6          1.6032   -5.0504   -0.2841 C.ar      1 <0>        -0.0599
      7 C7          1.7367   -6.4201   -0.3648 C.ar      1 <0>        -0.1319
      8 C8          2.6072   -2.7810   -0.0698 C.2       1 <0>         0.3773
      9 O1          3.5990   -2.0819   -0.0420 O.2       1 <0>        -0.4126
     10 C9          1.2534   -2.1571   -0.0213 C.2       1 <0>         0.3779
     11 O2          0.5806   -2.0878   -1.0292 O.2       1 <0>        -0.4094
     12 C10         0.7326   -1.6249    1.2503 C.ar      1 <0>        -0.1681
     13 C11        -0.4873   -0.9398    1.2786 C.ar      1 <0>        -0.0392
     14 C12        -0.9679   -0.4445    2.4711 C.ar      1 <0>        -0.1217
     15 C13        -0.2462   -0.6234    3.6409 C.ar      1 <0>         0.0013
     16 C14         0.9630   -1.3009    3.6204 C.ar      1 <0>        -0.1200
     17 C15         1.4559   -1.8017    2.4353 C.ar      1 <0>        -0.0515
     18 Cl1        -0.8592    0.0045    5.1388 Cl        1 <0>        -0.0526
     19 H1          3.0824   -8.9250    0.6161 H         1 <0>         0.0793
     20 H2          2.3166   -8.9062   -0.9906 H         1 <0>         0.0728
     21 H3          4.0840   -8.7533   -0.8452 H         1 <0>         0.0729
     22 H4          5.0975   -6.6748   -0.1218 H         1 <0>         0.1341
     23 H5          4.8880   -4.2289    0.0146 H         1 <0>         0.1382
     24 H6          0.6233   -4.5984   -0.3272 H         1 <0>         0.1294
     25 H7          0.8598   -7.0414   -0.4712 H         1 <0>         0.1335
     26 H8         -1.0509   -0.8000    0.3680 H         1 <0>         0.1483
     27 H9         -1.9071    0.0883    2.4937 H         1 <0>         0.1460
     28 H10         1.5199   -1.4369    4.5357 H         1 <0>         0.1454
     29 H11         2.3979   -2.3297    2.4208 H         1 <0>         0.1387
@<TRIPOS>BOND
     1    1    2 1
     2    1   19 1
     3    1   20 1
     4    1   21 1
     5    2    7 ar
     6    2    3 ar
     7    3    4 ar
     8    3   22 1
     9    4    5 ar
    10    4   23 1
    11    5    6 ar
    12    5    8 1
    13    6    7 ar
    14    6   24 1
    15    7   25 1
    16    8    9 2
    17    8   10 1
    18   10   11 2
    19   10   12 1
    20   12   17 ar
    21   12   13 ar
    22   13   14 ar
    23   13   26 1
    24   14   15 ar
    25   14   27 1
    26   15   16 ar
    27   15   18 1
    28   16   17 ar
    29   16   28 1
    30   17   29 1
@<TRIPOS>MOLECULE
ZINC01683675
   19    19     0     0     0
SMALL
USER_CHARGES
1-phenylpropane-1,2-dione
@<TRIPOS>ATOM
      1 C1         -1.2423   -2.2696    0.2277 C.3       1 <0>        -0.1866
      2 C2         -1.2712   -0.7666    0.1225 C.2       1 <0>         0.3322
      3 O1         -2.3272   -0.1804    0.1359 O.2       1 <0>        -0.4084
      4 C3          0.0021   -0.0041    0.0020 C.2       1 <0>         0.3599
      5 O2          1.0561   -0.5961   -0.1067 O.2       1 <0>        -0.4068
      6 C4         -0.0175    1.4701    0.0147 C.ar      1 <0>        -0.1818
      7 C5         -1.2361    2.1574    0.0007 C.ar      1 <0>        -0.0737
      8 C6         -1.2461    3.5357    0.0181 C.ar      1 <0>        -0.1385
      9 C7         -0.0542    4.2401    0.0382 C.ar      1 <0>        -0.0788
     10 C8          1.1560    3.5673    0.0464 C.ar      1 <0>        -0.1385
     11 C9          1.1826    2.1892    0.0351 C.ar      1 <0>        -0.0556
     12 H1         -0.7229   -2.5370    1.0393 H         1 <0>         0.0905
     13 H2         -2.2614   -2.6479    0.3076 H         1 <0>         0.0932
     14 H3         -0.7685   -2.6870   -0.6608 H         1 <0>         0.1036
     15 H4         -2.1666    1.6094   -0.0195 H         1 <0>         0.1626
     16 H5         -2.1859    4.0677    0.0114 H         1 <0>         0.1315
     17 H6         -0.0685    5.3199    0.0471 H         1 <0>         0.1293
     18 H7          2.0814    4.1238    0.0621 H         1 <0>         0.1316
     19 H8          2.1273    1.6659    0.0415 H         1 <0>         0.1346
@<TRIPOS>BOND
     1    1    2 1
     2    1   12 1
     3    1   13 1
     4    1   14 1
     5    2    3 2
     6    2    4 1
     7    4    5 2
     8    4    6 1
     9    6   11 ar
    10    6    7 ar
    11    7    8 ar
    12    7   15 1
    13    8    9 ar
    14    8   16 1
    15    9   10 ar
    16    9   17 1
    17   10   11 ar
    18   10   18 1
    19   11   19 1
@<TRIPOS>MOLECULE
ZINC02504724
   26    27     0     0     0
SMALL
USER_CHARGES
1,2-bis(4-fluorophenyl)ethane-1,2-dione
@<TRIPOS>ATOM
      1 C1         -0.4874   -0.9389    1.2777 C.ar      1 <0>        -0.0212
      2 C2         -0.9681   -0.4434    2.4692 C.ar      1 <0>        -0.1652
      3 C3         -0.2458   -0.6227    3.6406 C.ar      1 <0>         0.1429
      4 C4          0.9644   -1.3016    3.6197 C.ar      1 <0>        -0.1635
      5 C5          1.4563   -1.8021    2.4349 C.ar      1 <0>        -0.0346
      6 C6          0.7326   -1.6247    1.2497 C.ar      1 <0>        -0.1854
      7 C7          1.2530   -2.1569   -0.0213 C.2       1 <0>         0.3793
      8 O1          0.5801   -2.0872   -1.0293 O.2       1 <0>        -0.4098
      9 C8          2.6063   -2.7814   -0.0698 C.2       1 <0>         0.3785
     10 O2          3.5986   -2.0826   -0.0420 O.2       1 <0>        -0.4085
     11 C9          2.7390   -4.2460   -0.1516 C.ar      1 <0>        -0.1865
     12 C10         1.5999   -5.0487   -0.2842 C.ar      1 <0>        -0.0347
     13 C11         1.7314   -6.4171   -0.3663 C.ar      1 <0>        -0.1635
     14 C12         2.9888   -7.0013   -0.3054 C.ar      1 <0>         0.1429
     15 C13         4.1216   -6.2115   -0.1683 C.ar      1 <0>        -0.1654
     16 C14         4.0045   -4.8416   -0.0912 C.ar      1 <0>        -0.0215
     17 F1          3.1105   -8.3447   -0.3805 F         1 <0>        -0.1279
     18 F2         -0.7227   -0.1338    4.8062 F         1 <0>        -0.1278
     19 H1         -1.0506   -0.7990    0.3668 H         1 <0>         0.1494
     20 H2         -1.9070    0.0899    2.4914 H         1 <0>         0.1485
     21 H3          1.5215   -1.4381    4.5348 H         1 <0>         0.1479
     22 H4          2.3980   -2.3306    2.4200 H         1 <0>         0.1395
     23 H5          0.6204   -4.5956   -0.3269 H         1 <0>         0.1407
     24 H6          0.8538   -7.0372   -0.4738 H         1 <0>         0.1479
     25 H7          5.0973   -6.6723   -0.1222 H         1 <0>         0.1484
     26 H8          4.8869   -4.2281    0.0152 H         1 <0>         0.1495
@<TRIPOS>BOND
     1    1    6 ar
     2    1    2 ar
     3    1   19 1
     4    2    3 ar
     5    2   20 1
     6    3    4 ar
     7    3   18 1
     8    4    5 ar
     9    4   21 1
    10    5    6 ar
    11    5   22 1
    12    6    7 1
    13    7    8 2
    14    7    9 1
    15    9   10 2
    16    9   11 1
    17   11   16 ar
    18   11   12 ar
    19   12   13 ar
    20   12   23 1
    21   13   14 ar
    22   13   24 1
    23   14   15 ar
    24   14   17 1
    25   15   16 ar
    26   15   25 1
    27   16   26 1
@<TRIPOS>MOLECULE
ZINC01671392
   30    31     0     0     0
SMALL
USER_CHARGES
1-(4-methoxyphenyl)-2-phenyl-ethane-1,2-dione
@<TRIPOS>ATOM
      1 C1          9.3917   -4.3870    0.1084 C.3       1 <0>         0.0220
      2 O1          9.5395   -2.9686    0.1985 O.3       1 <0>        -0.3085
      3 C2          8.4052   -2.2268    0.1474 C.ar      1 <0>         0.1728
      4 C3          8.4795   -0.8396    0.2298 C.ar      1 <0>        -0.1628
      5 C4          7.3402   -0.0880    0.1784 C.ar      1 <0>        -0.0223
      6 C5          6.0951   -0.7160    0.0424 C.ar      1 <0>        -0.2163
      7 C6          6.0254   -2.1132   -0.0348 C.ar      1 <0>        -0.0070
      8 C7          7.1710   -2.8554    0.0122 C.ar      1 <0>        -0.2235
      9 C8          4.8647    0.0886   -0.0131 C.2       1 <0>         0.3807
     10 O2          3.7815   -0.4595   -0.0388 O.2       1 <0>        -0.4201
     11 C9          4.9479    1.5773   -0.0377 C.2       1 <0>         0.3771
     12 O3          5.2125    2.1872    0.9778 O.2       1 <0>        -0.4149
     13 C10         4.7086    2.3083   -1.2956 C.ar      1 <0>        -0.1717
     14 C11         4.6752    3.7067   -1.3006 C.ar      1 <0>        -0.0531
     15 C12         4.4505    4.3830   -2.4807 C.ar      1 <0>        -0.1316
     16 C13         4.2582    3.6817   -3.6588 C.ar      1 <0>        -0.0789
     17 C14         4.2899    2.2976   -3.6621 C.ar      1 <0>        -0.1301
     18 C15         4.5134    1.6069   -2.4901 C.ar      1 <0>        -0.0648
     19 H1          8.7729   -4.7410    0.9330 H         1 <0>         0.0612
     20 H2          8.9165   -4.6434   -0.8385 H         1 <0>         0.0612
     21 H3         10.3729   -4.8587    0.1620 H         1 <0>         0.1061
     22 H4          9.4397   -0.3565    0.3350 H         1 <0>         0.1425
     23 H5          7.3989    0.9885    0.2421 H         1 <0>         0.1365
     24 H6          5.0677   -2.6023   -0.1353 H         1 <0>         0.1408
     25 H7          7.1187   -3.9323   -0.0513 H         1 <0>         0.1397
     26 H8          4.8246    4.2552   -0.3823 H         1 <0>         0.1375
     27 H9          4.4240    5.4627   -2.4862 H         1 <0>         0.1340
     28 H10         4.0781    4.2170   -4.5794 H         1 <0>         0.1317
     29 H11         4.1387    1.7576   -4.5851 H         1 <0>         0.1333
     30 H12         4.5375    0.5272   -2.4942 H         1 <0>         0.1284
@<TRIPOS>BOND
     1    1    2 1
     2    1   19 1
     3    1   20 1
     4    1   21 1
     5    2    3 1
     6    3    8 ar
     7    3    4 ar
     8    4    5 ar
     9    4   22 1
    10    5    6 ar
    11    5   23 1
    12    6    7 ar
    13    6    9 1
    14    7    8 ar
    15    7   24 1
    16    8   25 1
    17    9   10 2
    18    9   11 1
    19   11   12 2
    20   11   13 1
    21   13   18 ar
    22   13   14 ar
    23   14   15 ar
    24   14   26 1
    25   15   16 ar
    26   15   27 1
    27   16   17 ar
    28   16   28 1
    29   17   18 ar
    30   17   29 1
    31   18   30 1
@<TRIPOS>MOLECULE
ZINC02555760
   28    29     0     0     0
SMALL
USER_CHARGES
1-(4-nitrophenyl)-2-phenyl-ethane-1,2-dione
@<TRIPOS>ATOM
      1 C1          1.6149   -1.2480    3.6194 C.ar      1 <0>        -0.0749
      2 C2          2.8065   -0.5433    3.6069 C.ar      1 <0>        -0.1286
      3 C3          3.4879   -0.3551    2.4234 C.ar      1 <0>        -0.0667
      4 C4          2.9719   -0.8780    1.2328 C.ar      1 <0>        -0.1749
      5 C5          1.7672   -1.5889    1.2538 C.ar      1 <0>        -0.0499
      6 C6          1.0980   -1.7690    2.4454 C.ar      1 <0>        -0.1300
      7 C7          3.6938   -0.6805   -0.0375 C.2       1 <0>         0.3783
      8 O1          3.2957   -1.2160   -1.0513 O.2       1 <0>        -0.4071
      9 C8          4.9132    0.1773   -0.0767 C.2       1 <0>         0.3733
     10 O2          4.8068    1.3857   -0.0351 O.2       1 <0>        -0.3916
     11 C9          6.2480   -0.4425   -0.1659 C.ar      1 <0>        -0.1211
     12 C10         6.3713   -1.8281   -0.3141 C.ar      1 <0>        -0.0652
     13 C11         7.6228   -2.3995   -0.4021 C.ar      1 <0>        -0.0619
     14 C12         8.7560   -1.6071   -0.3331 C.ar      1 <0>        -0.0108
     15 C13         8.6423   -0.2357   -0.1812 C.ar      1 <0>        -0.0635
     16 C14         7.3979    0.3514   -0.0970 C.ar      1 <0>        -0.0534
     17 N1         10.0960   -2.2293   -0.4227 N.pl3     1 <0>         0.0198
     18 O3         11.0950   -1.5352   -0.3627 O.2       1 <0>        -0.1458
     19 O4         10.1997   -3.4355   -0.5564 O.3       1 <0>        -0.1460
     20 H1          1.0835   -1.3882    4.5491 H         1 <0>         0.1337
     21 H2          3.2034   -0.1399    4.5268 H         1 <0>         0.1349
     22 H3          4.4172    0.1951    2.4152 H         1 <0>         0.1271
     23 H4          1.3624   -1.9953    0.3387 H         1 <0>         0.1390
     24 H5          0.1679   -2.3175    2.4633 H         1 <0>         0.1360
     25 H6          5.4884   -2.4480   -0.3632 H         1 <0>         0.1546
     26 H7          7.7196   -3.4686   -0.5210 H         1 <0>         0.1655
     27 H8          9.5310    0.3758   -0.1281 H         1 <0>         0.1660
     28 H9          7.3108    1.4213    0.0215 H         1 <0>         0.1631
@<TRIPOS>BOND
     1    1    6 ar
     2    1    2 ar
     3    1   20 1
     4    2    3 ar
     5    2   21 1
     6    3    4 ar
     7    3   22 1
     8    4    5 ar
     9    4    7 1
    10    5    6 ar
    11    5   23 1
    12    6   24 1
    13    7    8 2
    14    7    9 1
    15    9   10 2
    16    9   11 1
    17   11   16 ar
    18   11   12 ar
    19   12   13 ar
    20   12   25 1
    21   13   14 ar
    22   13   26 1
    23   14   15 ar
    24   14   17 1
    25   15   16 ar
    26   15   27 1
    27   16   28 1
    28   17   18 2
    29   17   19 1
@<TRIPOS>MOLECULE
ZINC01590056
   32    33     0     0     0
SMALL
USER_CHARGES
1,2-bis(p-tolyl)ethane-1,2-dione
@<TRIPOS>ATOM
      1 C1          0.6786    4.4223   -4.8795 C.3       1 <0>        -0.1241
      2 C2          0.4959    3.6535   -3.5963 C.ar      1 <0>        -0.0433
      3 C3          0.4121    4.3325   -2.3927 C.ar      1 <0>        -0.1339
      4 C4          0.2445    3.6364   -1.2146 C.ar      1 <0>        -0.0472
      5 C5          0.1592    2.2403   -1.2375 C.ar      1 <0>        -0.1794
      6 C6          0.2501    1.5611   -2.4572 C.ar      1 <0>        -0.0596
      7 C7          0.4123    2.2719   -3.6272 C.ar      1 <0>        -0.1320
      8 C8         -0.0195    1.4881    0.0179 C.2       1 <0>         0.3773
      9 O1         -0.1901    2.0824    1.0623 O.2       1 <0>        -0.4150
     10 C9          0.0032   -0.0031    0.0035 C.2       1 <0>         0.3773
     11 O2          1.0580   -0.5929   -0.1089 O.2       1 <0>        -0.4150
     12 C10        -1.2557   -0.7608    0.1257 C.ar      1 <0>        -0.1793
     13 C11        -2.4819   -0.0877    0.1491 C.ar      1 <0>        -0.0596
     14 C12        -3.6549   -0.8036    0.2588 C.ar      1 <0>        -0.1320
     15 C13        -3.6210   -2.1842    0.3564 C.ar      1 <0>        -0.0433
     16 C14        -2.4112   -2.8572    0.3393 C.ar      1 <0>        -0.1339
     17 C15        -1.2299   -2.1559    0.2248 C.ar      1 <0>        -0.0473
     18 C16        -4.9078   -2.9586    0.4814 C.3       1 <0>        -0.1241
     19 H1          1.7427    4.5439   -5.0818 H         1 <0>         0.0789
     20 H2          0.2129    3.8761   -5.6997 H         1 <0>         0.0725
     21 H3          0.2123    5.4030   -4.7850 H         1 <0>         0.0726
     22 H4          0.4785    5.4104   -2.3766 H         1 <0>         0.1338
     23 H5          0.1789    4.1676   -0.2765 H         1 <0>         0.1377
     24 H6          0.1892    0.4832   -2.4825 H         1 <0>         0.1284
     25 H7          0.4786    1.7493   -4.5701 H         1 <0>         0.1332
     26 H8         -2.5097    0.9895    0.0772 H         1 <0>         0.1284
     27 H9         -4.6026   -0.2858    0.2729 H         1 <0>         0.1332
     28 H10        -2.3929   -3.9343    0.4162 H         1 <0>         0.1338
     29 H11        -0.2869   -2.6823    0.2112 H         1 <0>         0.1377
     30 H12        -5.1627   -3.0720    1.5350 H         1 <0>         0.0789
     31 H13        -5.7064   -2.4212   -0.0299 H         1 <0>         0.0725
     32 H14        -4.7849   -3.9429    0.0293 H         1 <0>         0.0726
@<TRIPOS>BOND
     1    1    2 1
     2    1   19 1
     3    1   20 1
     4    1   21 1
     5    2    7 ar
     6    2    3 ar
     7    3    4 ar
     8    3   22 1
     9    4    5 ar
    10    4   23 1
    11    5    6 ar
    12    5    8 1
    13    6    7 ar
    14    6   24 1
    15    7   25 1
    16    8    9 2
    17    8   10 1
    18   10   11 2
    19   10   12 1
    20   12   17 ar
    21   12   13 ar
    22   13   14 ar
    23   13   26 1
    24   14   15 ar
    25   14   27 1
    26   15   16 ar
    27   15   18 1
    28   16   17 ar
    29   16   28 1
    30   17   29 1
    31   18   30 1
    32   18   31 1
    33   18   32 1
@<TRIPOS>MOLECULE
ZINC00240941
   12    12     0     0     0
SMALL
USER_CHARGES
2,3,5,6-tetrachloro-1,4-benzoquinone
@<TRIPOS>ATOM
      1 C1         -1.3306    3.9299    0.0350 C.2       1 <0>        -0.0674
      2 C2         -0.1766    4.6173    0.0282 C.2       1 <0>        -0.0674
      3 C3          1.1125    3.8962    0.0119 C.2       1 <0>         0.4278
      4 O1          2.1560    4.5177    0.0053 O.2       1 <0>        -0.3486
      5 C4          1.1326    2.4191    0.0042 C.2       1 <0>        -0.0674
      6 C5         -0.0215    1.7317    0.0116 C.2       1 <0>        -0.0674
      7 C6         -1.3106    2.4529    0.0216 C.2       1 <0>         0.4278
      8 O2         -2.3541    1.8314    0.0232 O.2       1 <0>        -0.3486
      9 Cl1         0.0021   -0.0041    0.0020 Cl        1 <0>         0.0278
     10 Cl2         2.6476    1.5717   -0.0148 Cl        1 <0>         0.0278
     11 Cl3        -0.2001    6.3531    0.0378 Cl        1 <0>         0.0278
     12 Cl4        -2.8456    4.7773    0.0536 Cl        1 <0>         0.0278
@<TRIPOS>BOND
     1    1    7 1
     2    1    2 2
     3    1   12 1
     4    2    3 1
     5    2   11 1
     6    3    4 2
     7    3    5 1
     8    5    6 2
     9    5   10 1
    10    6    7 1
    11    6    9 1
    12    7    8 2
@<TRIPOS>MOLECULE
ZINC03311689
   32    33     0     0     0
SMALL
USER_CHARGES
1-(3,4-dimethylphenyl)-2-phenyl-ethane-1,2-dione
@<TRIPOS>ATOM
      1 C1         10.1204   -2.2407   -0.4220 C.3       1 <0>        -0.1267
      2 C2          8.7560   -1.6072   -0.3312 C.ar      1 <0>        -0.0448
      3 C3          7.6227   -2.3998   -0.3997 C.ar      1 <0>        -0.1272
      4 C4          6.3714   -1.8284   -0.3126 C.ar      1 <0>        -0.0662
      5 C5          6.2481   -0.4425   -0.1649 C.ar      1 <0>        -0.1752
      6 C6          7.3977    0.3512   -0.0961 C.ar      1 <0>        -0.0487
      7 C7          8.6424   -0.2360   -0.1794 C.ar      1 <0>        -0.0998
      8 C8          9.8824    0.6173   -0.1055 C.3       1 <0>        -0.1197
      9 C9          4.9132    0.1773   -0.0760 C.2       1 <0>         0.3776
     10 O1          4.8068    1.3857   -0.0349 O.2       1 <0>        -0.4147
     11 C10         3.6938   -0.6805   -0.0367 C.2       1 <0>         0.3776
     12 O2          3.2958   -1.2164   -1.0505 O.2       1 <0>        -0.4144
     13 C11         2.9718   -0.8776    1.2335 C.ar      1 <0>        -0.1717
     14 C12         1.7671   -1.5885    1.2545 C.ar      1 <0>        -0.0529
     15 C13         1.0977   -1.7681    2.4462 C.ar      1 <0>        -0.1314
     16 C14         1.6146   -1.2472    3.6201 C.ar      1 <0>        -0.0786
     17 C15         2.8063   -0.5425    3.6076 C.ar      1 <0>        -0.1297
     18 C16         3.4876   -0.3543    2.4240 C.ar      1 <0>        -0.0650
     19 H1         10.4653   -2.5052    0.5776 H         1 <0>         0.0789
     20 H2         10.0636   -3.1393   -1.0363 H         1 <0>         0.0718
     21 H3         10.8190   -1.5359   -0.8728 H         1 <0>         0.0765
     22 H4          7.7195   -3.4689   -0.5178 H         1 <0>         0.1334
     23 H5          5.4884   -2.4483   -0.3620 H         1 <0>         0.1289
     24 H6          7.3106    1.4212    0.0224 H         1 <0>         0.1373
     25 H7         10.1971    0.7116    0.9338 H         1 <0>         0.0748
     26 H8         10.6790    0.1515   -0.6856 H         1 <0>         0.0745
     27 H9          9.6678    1.6059   -0.5113 H         1 <0>         0.0697
     28 H10         1.3624   -1.9952    0.3395 H         1 <0>         0.1375
     29 H11         0.1674   -2.3164    2.4640 H         1 <0>         0.1343
     30 H12         1.0833   -1.3874    4.5498 H         1 <0>         0.1321
     31 H13         3.2031   -0.1389    4.5274 H         1 <0>         0.1336
     32 H14         4.4168    0.1959    2.4157 H         1 <0>         0.1280
@<TRIPOS>BOND
     1    1    2 1
     2    1   19 1
     3    1   20 1
     4    1   21 1
     5    2    7 ar
     6    2    3 ar
     7    3    4 ar
     8    3   22 1
     9    4    5 ar
    10    4   23 1
    11    5    6 ar
    12    5    9 1
    13    6    7 ar
    14    6   24 1
    15    7    8 1
    16    8   25 1
    17    8   26 1
    18    8   27 1
    19    9   10 2
    20    9   11 1
    21   11   12 2
    22   11   13 1
    23   13   18 ar
    24   13   14 ar
    25   14   15 ar
    26   14   28 1
    27   15   16 ar
    28   15   29 1
    29   16   17 ar
    30   16   30 1
    31   17   18 ar
    32   17   31 1
    33   18   32 1
@<TRIPOS>MOLECULE
ZINC01699466
   26    27     0     0     0
SMALL
USER_CHARGES
1,2-bis(4-bromophenyl)ethane-1,2-dione
@<TRIPOS>ATOM
      1 C1         -0.4874   -0.9400    1.2788 C.ar      1 <0>        -0.0452
      2 C2         -0.9681   -0.4448    2.4715 C.ar      1 <0>        -0.1016
      3 C3         -0.2464   -0.6236    3.6410 C.ar      1 <0>        -0.0550
      4 C4          0.9624   -1.3008    3.6207 C.ar      1 <0>        -0.1000
      5 C5          1.4556   -1.8016    2.4355 C.ar      1 <0>        -0.0588
      6 C6          0.7325   -1.6249    1.2505 C.ar      1 <0>        -0.1577
      7 C7          1.2536   -2.1572   -0.0212 C.2       1 <0>         0.3771
      8 O1          0.5808   -2.0879   -1.0292 O.2       1 <0>        -0.4048
      9 C8          2.6073   -2.7809   -0.0697 C.2       1 <0>         0.3764
     10 O2          3.5991   -2.0816   -0.0418 O.2       1 <0>        -0.4036
     11 C9          2.7410   -4.2463   -0.1515 C.ar      1 <0>        -0.1588
     12 C10         1.6031   -5.0498   -0.2841 C.ar      1 <0>        -0.0589
     13 C11         1.7363   -6.4188   -0.3663 C.ar      1 <0>        -0.1001
     14 C12         2.9924   -7.0010   -0.3058 C.ar      1 <0>        -0.0549
     15 C13         4.1234   -6.2121   -0.1683 C.ar      1 <0>        -0.1018
     16 C14         4.0061   -4.8413   -0.0911 C.ar      1 <0>        -0.0455
     17 Br1         3.1641   -8.8812   -0.4120 Br        1 <0>        -0.0316
     18 Br2        -0.9147    0.0599    5.2726 Br        1 <0>        -0.0315
     19 H1         -1.0510   -0.8003    0.3682 H         1 <0>         0.1485
     20 H2         -1.9073    0.0879    2.4941 H         1 <0>         0.1458
     21 H3          1.5192   -1.4367    4.5360 H         1 <0>         0.1451
     22 H4          2.3977   -2.3295    2.4211 H         1 <0>         0.1383
     23 H5          0.6232   -4.5977   -0.3269 H         1 <0>         0.1394
     24 H6          0.8593   -7.0399   -0.4738 H         1 <0>         0.1451
     25 H7          5.0991   -6.6728   -0.1218 H         1 <0>         0.1457
     26 H8          4.8885   -4.2277    0.0153 H         1 <0>         0.1485
@<TRIPOS>BOND
     1    1    6 ar
     2    1    2 ar
     3    1   19 1
     4    2    3 ar
     5    2   20 1
     6    3    4 ar
     7    3   18 1
     8    4    5 ar
     9    4   21 1
    10    5    6 ar
    11    5   22 1
    12    6    7 1
    13    7    8 2
    14    7    9 1
    15    9   10 2
    16    9   11 1
    17   11   16 ar
    18   11   12 ar
    19   12   13 ar
    20   12   23 1
    21   13   14 ar
    22   13   24 1
    23   14   15 ar
    24   14   17 1
    25   15   16 ar
    26   15   25 1
    27   16   26 1
@<TRIPOS>MOLECULE
ZINC13642872
   26    27     0     0     0
SMALL
USER_CHARGES
1-(2,3,4,5,6-pentachlorophenyl)-2-(2,3,4,5,6-pentafluorophenyl)ethane-1,2-dione
@<TRIPOS>ATOM
      1 C1         -5.0642    1.6484    0.2591 C.ar      1 <0>        -0.1829
      2 C2         -5.7285    1.2070   -0.8958 C.ar      1 <0>         0.1642
      3 C3         -6.9072    0.4959   -0.7807 C.ar      1 <0>         0.0646
      4 C4         -7.4417    0.2287    0.4727 C.ar      1 <0>         0.1235
      5 C5         -6.7938    0.6672    1.6199 C.ar      1 <0>         0.0644
      6 C6         -5.6109    1.3737    1.5222 C.ar      1 <0>         0.1626
      7 F1         -4.9820    1.7996    2.6395 F         1 <0>        -0.0897
      8 F2         -7.3217    0.4018    2.8348 F         1 <0>        -0.0897
      9 F3         -8.5980   -0.4621    0.5766 F         1 <0>        -0.0844
     10 F4         -7.5449    0.0645   -1.8909 F         1 <0>        -0.0897
     11 F5         -5.2135    1.4716   -2.1164 F         1 <0>        -0.0896
     12 C7         -3.8063    2.3992    0.1461 C.2       1 <0>         0.3801
     13 O1         -3.8223    3.6136    0.1402 O.2       1 <0>        -0.3344
     14 C8         -2.5099    1.6702    0.0386 C.2       1 <0>         0.3761
     15 O2         -2.4999    0.4595   -0.0516 O.2       1 <0>        -0.3372
     16 C9         -1.2423    2.4184    0.0419 C.ar      1 <0>        -0.1109
     17 C10        -0.6236    2.7502    1.2545 C.ar      1 <0>         0.0204
     18 C11         0.5627    3.4558    1.2493 C.ar      1 <0>        -0.0159
     19 C12         1.1442    3.8328    0.0482 C.ar      1 <0>         0.0104
     20 C13         0.5405    3.5040   -1.1561 C.ar      1 <0>        -0.0161
     21 C14        -0.6455    2.7980   -1.1677 C.ar      1 <0>         0.0221
     22 Cl1        -1.3994    2.3876   -2.6766 Cl        1 <0>         0.0062
     23 Cl2         1.2786    3.9812   -2.6532 Cl        1 <0>         0.0124
     24 Cl3         2.6360    4.7205    0.0522 Cl        1 <0>         0.0156
     25 Cl4         1.3285    3.8728    2.7504 Cl        1 <0>         0.0124
     26 Cl5        -1.3501    2.2804    2.7595 Cl        1 <0>         0.0056
@<TRIPOS>BOND
     1    1    6 ar
     2    1    2 ar
     3    1   12 1
     4    2    3 ar
     5    2   11 1
     6    3    4 ar
     7    3   10 1
     8    4    5 ar
     9    4    9 1
    10    5    6 ar
    11    5    8 1
    12    6    7 1
    13   12   13 2
    14   12   14 1
    15   14   15 2
    16   14   16 1
    17   16   21 ar
    18   16   17 ar
    19   17   18 ar
    20   17   26 1
    21   18   19 ar
    22   18   25 1
    23   19   20 ar
    24   19   24 1
    25   20   21 ar
    26   20   23 1
    27   21   22 1
@<TRIPOS>MOLECULE
ZINC01590838
   40    42     0     0     0
SMALL
USER_CHARGES
1-[4-(2-oxo-2-phenyl-acetyl)phenyl]-2-phenyl-ethane-1,2-dione
@<TRIPOS>ATOM
      1 C1          1.5590   -0.6757   -4.2974 C.ar      1 <0>        -0.0770
      2 C2          2.7433    0.0336   -4.1922 C.ar      1 <0>        -0.1292
      3 C3          3.4421    0.0430   -3.0039 C.ar      1 <0>        -0.0659
      4 C4          2.9517   -0.6670   -1.9028 C.ar      1 <0>        -0.1739
      5 C5          1.7543   -1.3812   -2.0171 C.ar      1 <0>        -0.0518
      6 C6          1.0669   -1.3805   -3.2121 C.ar      1 <0>        -0.1309
      7 C7          3.6933   -0.6630   -0.6285 C.2       1 <0>         0.3765
      8 O1          3.2208   -1.2030    0.3504 O.2       1 <0>        -0.4085
      9 C8          5.0241    0.0047   -0.5423 C.2       1 <0>         0.3744
     10 O2          5.0940    1.2153   -0.5011 O.2       1 <0>        -0.4018
     11 C9          6.2570   -0.8077   -0.5071 C.ar      1 <0>        -0.1320
     12 C10         6.1842   -2.1962   -0.6603 C.ar      1 <0>        -0.0744
     13 C11         7.3338   -2.9530   -0.6314 C.ar      1 <0>        -0.0745
     14 C12         8.5738   -2.3345   -0.4405 C.ar      1 <0>        -0.1320
     15 C13         8.6460   -0.9466   -0.2821 C.ar      1 <0>        -0.0635
     16 C14         7.4968   -0.1893   -0.3148 C.ar      1 <0>        -0.0634
     17 C15         9.8067   -3.1468   -0.4058 C.2       1 <0>         0.3744
     18 O3         10.8894   -2.6035   -0.3370 O.2       1 <0>        -0.4018
     19 C16         9.7209   -4.6349   -0.4554 C.2       1 <0>         0.3765
     20 O4          9.3730   -5.2558    0.5277 O.2       1 <0>        -0.4085
     21 C17        10.0586   -5.3518   -1.6987 C.ar      1 <0>        -0.1739
     22 C18        10.5546   -4.6498   -2.8025 C.ar      1 <0>        -0.0659
     23 C19        10.8735   -5.3281   -3.9595 C.ar      1 <0>        -0.1292
     24 C20        10.6933   -6.6988   -4.0347 C.ar      1 <0>        -0.0770
     25 C21        10.1975   -7.3998   -2.9486 C.ar      1 <0>        -0.1309
     26 C22         9.8793   -6.7367   -1.7827 C.ar      1 <0>        -0.0518
     27 H1          1.0185   -0.6829   -5.2324 H         1 <0>         0.1325
     28 H2          3.1208    0.5809   -5.0433 H         1 <0>         0.1341
     29 H3          4.3660    0.5964   -2.9234 H         1 <0>         0.1291
     30 H4          1.3695   -1.9321   -1.1715 H         1 <0>         0.1382
     31 H5          0.1423   -1.9314   -3.3019 H         1 <0>         0.1348
     32 H6          5.2265   -2.6741   -0.8043 H         1 <0>         0.1395
     33 H7          7.2780   -4.0247   -0.7533 H         1 <0>         0.1394
     34 H8          9.6034   -0.4690   -0.1343 H         1 <0>         0.1497
     35 H9          7.5526    0.8823   -0.1925 H         1 <0>         0.1497
     36 H10        10.6912   -3.5800   -2.7469 H         1 <0>         0.1291
     37 H11        11.2604   -4.7882   -4.8111 H         1 <0>         0.1341
     38 H12        10.9410   -7.2239   -4.9453 H         1 <0>         0.1325
     39 H13        10.0600   -8.4689   -3.0149 H         1 <0>         0.1348
     40 H14         9.4923   -7.2848   -0.9364 H         1 <0>         0.1382
@<TRIPOS>BOND
     1    1    6 ar
     2    1    2 ar
     3    1   27 1
     4    2    3 ar
     5    2   28 1
     6    3    4 ar
     7    3   29 1
     8    4    5 ar
     9    4    7 1
    10    5    6 ar
    11    5   30 1
    12    6   31 1
    13    7    8 2
    14    7    9 1
    15    9   10 2
    16    9   11 1
    17   11   16 ar
    18   11   12 ar
    19   12   13 ar
    20   12   32 1
    21   13   14 ar
    22   13   33 1
    23   14   15 ar
    24   14   17 1
    25   15   16 ar
    26   15   34 1
    27   16   35 1
    28   17   18 2
    29   17   19 1
    30   19   20 2
    31   19   21 1
    32   21   26 ar
    33   21   22 ar
    34   22   23 ar
    35   22   36 1
    36   23   24 ar
    37   23   37 1
    38   24   25 ar
    39   24   38 1
    40   25   26 ar
    41   25   39 1
    42   26   40 1
@<TRIPOS>MOLECULE
ZINC01595936
   12    12     0     0     0
SMALL
USER_CHARGES
3,4,5,6-tetrachloro-1,2-benzoquinone
@<TRIPOS>ATOM
      1 C1          2.3703    1.4632    0.4552 C.2       1 <0>         0.0183
      2 C2          1.3035    2.1630    0.0012 C.2       1 <0>        -0.1054
      3 C3         -0.0184    1.5067    0.0103 C.2       1 <0>         0.3746
      4 O1         -1.0544    2.1392    0.0188 O.2       1 <0>        -0.3331
      5 C4          0.0021   -0.0041    0.0020 C.2       1 <0>         0.3747
      6 O2         -0.8404   -0.6590   -0.5765 O.2       1 <0>        -0.3331
      7 C5          1.1133   -0.6314    0.7437 C.2       1 <0>        -0.1053
      8 C6          2.2378    0.0945    0.9495 C.2       1 <0>         0.0181
      9 Cl1         3.5564   -0.6196    1.8242 Cl        1 <0>         0.0186
     10 Cl2         0.9818   -2.2575    1.3373 Cl        1 <0>         0.0270
     11 Cl3         1.4862    3.7897   -0.5769 Cl        1 <0>         0.0270
     12 Cl4         3.9365    2.2120    0.4502 Cl        1 <0>         0.0186
@<TRIPOS>BOND
     1    1    8 1
     2    1    2 2
     3    1   12 1
     4    2    3 1
     5    2   11 1
     6    3    4 2
     7    3    5 1
     8    5    6 2
     9    5    7 1
    10    7    8 2
    11    7   10 1
    12    8    9 1
@<TRIPOS>MOLECULE
ZINC01734421
   36    36     0     0     0
SMALL
USER_CHARGES

@<TRIPOS>ATOM
      1 C1         -0.0187    1.5258    0.0104 C.3       1 <0>        -0.1516
      2 C2          0.0021   -0.0041    0.0020 C.3       1 <0>        -0.0384
      3 C3          0.7421   -0.5109    1.2415 C.3       1 <0>        -0.1417
      4 C4         -1.4333   -0.5336    0.0129 C.3       1 <0>        -0.1428
      5 C5          0.7074   -0.4901   -1.2379 C.2       1 <0>        -0.0102
      6 C6          1.1981    0.4155   -2.1121 C.2       1 <0>        -0.2163
      7 C7          1.8901   -0.0807   -3.3190 C.2       1 <0>         0.3519
      8 O1          1.9962    0.5892   -4.3255 O.2       1 <0>        -0.3910
      9 C8          2.4575   -1.4769   -3.2176 C.2       1 <0>         0.3541
     10 O2          3.4892   -1.7978   -3.7703 O.2       1 <0>        -0.3817
     11 C9          1.6737   -2.4258   -2.4008 C.2       1 <0>        -0.1478
     12 C10         0.8469   -1.9258   -1.4581 C.2       1 <0>        -0.0704
     13 C11         1.7991   -3.9129   -2.6101 C.3       1 <0>        -0.0192
     14 C12         0.8782   -4.6451   -1.6319 C.3       1 <0>        -0.1482
     15 C13         1.3991   -4.2614   -4.0452 C.3       1 <0>        -0.1450
     16 C14         3.2472   -4.3421   -2.3657 C.3       1 <0>        -0.1485
     17 H1          1.0039    1.9031    0.0027 H         1 <0>         0.0630
     18 H2         -0.5459    1.8868   -0.8726 H         1 <0>         0.0635
     19 H3         -0.5289    1.8773    0.9072 H         1 <0>         0.0668
     20 H4          0.2319   -0.1594    2.1383 H         1 <0>         0.0674
     21 H5          0.7568   -1.6008    1.2356 H         1 <0>         0.0606
     22 H6          1.7647   -0.1336    1.2338 H         1 <0>         0.0603
     23 H7         -1.9605   -0.1726   -0.8702 H         1 <0>         0.0610
     24 H8         -1.4185   -1.6235    0.0069 H         1 <0>         0.0603
     25 H9         -1.9435   -0.1821    0.9097 H         1 <0>         0.0672
     26 H10         1.0869    1.4748   -1.9334 H         1 <0>         0.1608
     27 H11         0.2689   -2.6085   -0.8530 H         1 <0>         0.1475
     28 H12        -0.1535   -4.3393   -1.8060 H         1 <0>         0.0613
     29 H13         0.9688   -5.7207   -1.7833 H         1 <0>         0.0674
     30 H14         1.1631   -4.3968   -0.6095 H         1 <0>         0.0615
     31 H15         2.0551   -3.7399   -4.7421 H         1 <0>         0.0590
     32 H16         1.4897   -5.3371   -4.1966 H         1 <0>         0.0678
     33 H17         0.3674   -3.9557   -4.2192 H         1 <0>         0.0586
     34 H18         3.5321   -4.0938   -1.3434 H         1 <0>         0.0563
     35 H19         3.3378   -5.4178   -2.5171 H         1 <0>         0.0636
     36 H20         3.9032   -3.8206   -3.0626 H         1 <0>         0.0729
@<TRIPOS>BOND
     1    1    2 1
     2    1   17 1
     3    1   18 1
     4    1   19 1
     5    2    3 1
     6    2    4 1
     7    2    5 1
     8    3   20 1
     9    3   21 1
    10    3   22 1
    11    4   23 1
    12    4   24 1
    13    4   25 1
    14    5   12 1
    15    5    6 2
    16    6    7 1
    17    6   26 1
    18    7    8 2
    19    7    9 1
    20    9   10 2
    21    9   11 1
    22   11   12 2
    23   11   13 1
    24   12   27 1
    25   13   14 1
    26   13   15 1
    27   13   16 1
    28   14   28 1
    29   14   29 1
    30   14   30 1
    31   15   31 1
    32   15   32 1
    33   15   33 1
    34   16   34 1
    35   16   35 1
    36   16   36 1
@<TRIPOS>MOLECULE
ZINC01704748
   26    27     0     0     0
SMALL
USER_CHARGES
1,2-bis(2-chlorophenyl)ethane-1,2-dione
@<TRIPOS>ATOM
      1 C1          1.5965    1.8952    3.6445 C.ar      1 <0>        -0.1252
      2 C2          0.4038    1.1910    3.6659 C.ar      1 <0>        -0.0660
      3 C3         -0.1212    0.6686    2.4974 C.ar      1 <0>        -0.1237
      4 C4          0.5469    0.8368    1.3009 C.ar      1 <0>         0.0192
      5 C5          1.7528    1.5480    1.2716 C.ar      1 <0>        -0.1646
      6 C6          2.2731    2.0772    2.4581 C.ar      1 <0>        -0.0537
      7 C7          2.4703    1.7376   -0.0014 C.2       1 <0>         0.3711
      8 O1          2.0708    1.1935   -1.0102 O.2       1 <0>        -0.3913
      9 C8          3.6875    2.5982   -0.0503 C.2       1 <0>         0.3700
     10 O2          3.5780    3.8067   -0.0178 O.2       1 <0>        -0.3898
     11 C9          5.0228    1.9815   -0.1381 C.ar      1 <0>        -0.1655
     12 C10         5.1494    0.5955   -0.2850 C.ar      1 <0>        -0.0540
     13 C11         6.4014    0.0269   -0.3722 C.ar      1 <0>        -0.1253
     14 C12         7.5341    0.8214   -0.3034 C.ar      1 <0>        -0.0661
     15 C13         7.4193    2.1917   -0.1525 C.ar      1 <0>        -0.1237
     16 C14         6.1722    2.7783   -0.0693 C.ar      1 <0>         0.0187
     17 Cl1         6.0296    4.4980    0.1206 Cl        1 <0>        -0.0302
     18 Cl2        -0.1096    0.1750   -0.1636 Cl        1 <0>        -0.0300
     19 H1          1.9971    2.3032    4.5607 H         1 <0>         0.1407
     20 H2         -0.1215    1.0528    4.5993 H         1 <0>         0.1422
     21 H3         -1.0539    0.1247    2.5218 H         1 <0>         0.1446
     22 H4          3.2024    2.6272    2.4438 H         1 <0>         0.1367
     23 H5          4.2678   -0.0264   -0.3344 H         1 <0>         0.1383
     24 H6          6.5001   -1.0421   -0.4901 H         1 <0>         0.1407
     25 H7          8.5124    0.3683   -0.3675 H         1 <0>         0.1421
     26 H8          8.3073    2.8041   -0.0993 H         1 <0>         0.1446
@<TRIPOS>BOND
     1    1    6 ar
     2    1    2 ar
     3    1   19 1
     4    2    3 ar
     5    2   20 1
     6    3    4 ar
     7    3   21 1
     8    4    5 ar
     9    4   18 1
    10    5    6 ar
    11    5    7 1
    12    6   22 1
    13    7    8 2
    14    7    9 1
    15    9   10 2
    16    9   11 1
    17   11   16 ar
    18   11   12 ar
    19   12   13 ar
    20   12   23 1
    21   13   14 ar
    22   13   24 1
    23   14   15 ar
    24   14   25 1
    25   15   16 ar
    26   15   26 1
    27   16   17 1
@<TRIPOS>MOLECULE
ZINC02519749
   30    31     0     0     0
SMALL
USER_CHARGES
1-(2,4-dinitrophenyl)-2-phenyl-ethane-1,2-dione
@<TRIPOS>ATOM
      1 C1          0.4517   -0.3409    2.4629 C.ar      1 <0>        -0.0745
      2 C2          0.9510   -0.8026    1.2570 C.ar      1 <0>        -0.1289
      3 C3          2.2439   -0.5045    0.8828 C.ar      1 <0>        -0.0687
      4 C4          3.0520    0.2662    1.7254 C.ar      1 <0>        -0.1712
      5 C5          2.5400    0.7290    2.9423 C.ar      1 <0>        -0.0487
      6 C6          1.2449    0.4228    3.3021 C.ar      1 <0>        -0.1298
      7 C7          4.4362    0.5887    1.3333 C.2       1 <0>         0.3812
      8 O1          5.1055    1.3296    2.0234 O.2       1 <0>        -0.3902
      9 C8          5.0139    0.0046    0.0885 C.2       1 <0>         0.3766
     10 O2          4.4468    0.1575   -0.9736 O.2       1 <0>        -0.3639
     11 C9          6.2740   -0.7586    0.1482 C.ar      1 <0>        -0.0454
     12 C10         6.2521   -2.1568    0.1028 C.ar      1 <0>        -0.0757
     13 C11         7.4344   -2.8631    0.1587 C.ar      1 <0>        -0.0040
     14 C12         8.6417   -2.1924    0.2590 C.ar      1 <0>        -0.0282
     15 C13         8.6717   -0.8092    0.3040 C.ar      1 <0>         0.0073
     16 C14         7.4979   -0.0883    0.2447 C.ar      1 <0>        -0.0113
     17 N1          7.5325    1.3909    0.2872 N.pl3     1 <0>         0.0232
     18 O3          8.5844    1.9698    0.4924 O.2       1 <0>        -0.1169
     19 O4          6.5092    2.0292    0.1170 O.3       1 <0>        -0.1284
     20 N2          9.9068   -2.9585    0.3180 N.pl3     1 <0>         0.0213
     21 O5          9.8841   -4.1757    0.2782 O.2       1 <0>        -0.1293
     22 O6         10.9705   -2.3718    0.4062 O.3       1 <0>        -0.1305
     23 H1         -0.5606   -0.5815    2.7525 H         1 <0>         0.1339
     24 H2          0.3262   -1.3981    0.6079 H         1 <0>         0.1355
     25 H3          2.6322   -0.8656   -0.0581 H         1 <0>         0.1319
     26 H4          3.1579    1.3242    3.5983 H         1 <0>         0.1389
     27 H5          0.8482    0.7793    4.2412 H         1 <0>         0.1364
     28 H6          5.3113   -2.6813    0.0239 H         1 <0>         0.1813
     29 H7          7.4192   -3.9424    0.1238 H         1 <0>         0.1853
     30 H8          9.6173   -0.2932    0.3816 H         1 <0>         0.1924
@<TRIPOS>BOND
     1    1    6 ar
     2    1    2 ar
     3    1   23 1
     4    2    3 ar
     5    2   24 1
     6    3    4 ar
     7    3   25 1
     8    4    5 ar
     9    4    7 1
    10    5    6 ar
    11    5   26 1
    12    6   27 1
    13    7    8 2
    14    7    9 1
    15    9   10 2
    16    9   11 1
    17   11   16 ar
    18   11   12 ar
    19   12   13 ar
    20   12   28 1
    21   13   14 ar
    22   13   29 1
    23   14   15 ar
    24   14   20 1
    25   15   16 ar
    26   15   30 1
    27   16   17 1
    28   17   18 2
    29   17   19 1
    30   20   21 2
    31   20   22 1
@<TRIPOS>MOLECULE
ZINC01683334
   28    29     0     0     0
SMALL
USER_CHARGES
1,2-bis(5-bromo-2-hydroxy-phenyl)ethane-1,2-dione
@<TRIPOS>ATOM
      1 C1         -0.6813    0.0646   -3.6468 C.ar      1 <0>        -0.0329
      2 C2         -0.8618   -0.6550   -2.4822 C.ar      1 <0>        -0.1509
      3 C3         -1.0621    0.0059   -1.2798 C.ar      1 <0>         0.1958
      4 C4         -1.0804    1.4110   -1.2529 C.ar      1 <0>        -0.1961
      5 C5         -0.8960    2.1272   -2.4420 C.ar      1 <0>        -0.0225
      6 C6         -0.6990    1.4519   -3.6260 C.ar      1 <0>        -0.1153
      7 Br1        -0.4501    2.4201   -5.2312 Br        1 <0>        -0.0301
      8 C7         -1.2979    2.1243    0.0147 C.2       1 <0>         0.3760
      9 O1         -1.5541    1.5018    1.0254 O.2       1 <0>        -0.3931
     10 C8         -1.2039    3.6119    0.0589 C.2       1 <0>         0.3736
     11 O2         -0.1173    4.1528    0.0269 O.2       1 <0>        -0.3888
     12 C9         -2.4274    4.4239    0.1411 C.ar      1 <0>        -0.1970
     13 C10        -3.6757    3.8053    0.2824 C.ar      1 <0>        -0.0229
     14 C11        -4.8164    4.5729    0.3631 C.ar      1 <0>        -0.1152
     15 C12        -4.7361    5.9564    0.2953 C.ar      1 <0>        -0.0331
     16 C13        -3.5127    6.5801    0.1508 C.ar      1 <0>        -0.1510
     17 C14        -2.3520    5.8256    0.0726 C.ar      1 <0>         0.1949
     18 O3         -1.1500    6.4372   -0.0688 O.3       1 <0>        -0.4752
     19 Br2        -6.5010    3.7368    0.5610 Br        1 <0>        -0.0300
     20 O4         -1.2389   -0.6998   -0.1356 O.3       1 <0>        -0.4766
     21 H1         -0.5258   -0.4559   -4.5802 H         1 <0>         0.1481
     22 H2         -0.8472   -1.7346   -2.5079 H         1 <0>         0.1519
     23 H3         -0.9090    3.2071   -2.4307 H         1 <0>         0.1405
     24 H4         -3.7435    2.7285    0.3314 H         1 <0>         0.1423
     25 H5         -5.6366    6.5496    0.3557 H         1 <0>         0.1480
     26 H6         -3.4598    7.6576    0.0983 H         1 <0>         0.1518
     27 H7         -0.8852    6.5762   -0.9884 H         1 <0>         0.4029
     28 H8         -2.1624   -0.9133    0.0561 H         1 <0>         0.4047
@<TRIPOS>BOND
     1    1    6 ar
     2    1    2 ar
     3    1   21 1
     4    2    3 ar
     5    2   22 1
     6    3    4 ar
     7    3   20 1
     8    4    5 ar
     9    4    8 1
    10    5    6 ar
    11    5   23 1
    12    6    7 1
    13    8    9 2
    14    8   10 1
    15   10   11 2
    16   10   12 1
    17   12   17 ar
    18   12   13 ar
    19   13   14 ar
    20   13   24 1
    21   14   15 ar
    22   14   19 1
    23   15   16 ar
    24   15   25 1
    25   16   17 ar
    26   16   26 1
    27   17   18 1
    28   18   27 1
    29   20   28 1
@<TRIPOS>MOLECULE
ZINC03269660
   28    29     0     0     0
SMALL
USER_CHARGES

@<TRIPOS>ATOM
      1 C1          3.0041    1.4220   -3.6614 C.ar      1 <0>        -0.0837
      2 C2          3.1957    2.1239   -2.4835 C.ar      1 <0>        -0.1343
      3 C3          3.4202    1.4483   -1.3030 C.ar      1 <0>        -0.0553
      4 C4          3.4538    0.0498   -1.2973 C.ar      1 <0>        -0.1661
      5 C5          3.2588   -0.6522   -2.4916 C.ar      1 <0>        -0.0623
      6 C6          3.0359    0.0379   -3.6639 C.ar      1 <0>        -0.1302
      7 C7          3.6938   -0.6805   -0.0392 C.2       1 <0>         0.3780
      8 O1          3.9590   -0.0700    0.9757 O.2       1 <0>        -0.4175
      9 C8          3.6107   -2.1694   -0.0137 C.2       1 <0>         0.3819
     10 O2          2.5283   -2.7171   -0.0384 O.2       1 <0>        -0.4287
     11 C9          4.8463   -2.9774    0.0416 C.ar      1 <0>        -0.1893
     12 C10         6.0871   -2.3488    0.1823 C.ar      1 <0>        -0.0816
     13 C11         7.2390   -3.1027    0.2338 C.ar      1 <0>        -0.0986
     14 C12         7.1673   -4.4950    0.1450 C.ar      1 <0>        -0.0878
     15 C13         5.9278   -5.1236    0.0040 C.ar      1 <0>        -0.1011
     16 C14         4.7747   -4.3712   -0.0409 C.ar      1 <0>        -0.0674
     17 C15         8.4038   -5.3034    0.1999 C.2       1 <0>         0.5162
     18 O3          9.4887   -4.7535    0.3229 O.co2     1 <0>        -0.6784
     19 O4          8.3414   -6.5219    0.1222 O.co2     1 <0>        -0.6784
     20 H1          2.8245    1.9569   -4.5823 H         1 <0>         0.1291
     21 H2          3.1695    3.2036   -2.4896 H         1 <0>         0.1313
     22 H3          3.5702    1.9973   -0.3851 H         1 <0>         0.1362
     23 H4          3.2836   -1.7319   -2.4952 H         1 <0>         0.1310
     24 H5          2.8853   -0.5026   -4.5868 H         1 <0>         0.1324
     25 H6          6.1427   -1.2724    0.2502 H         1 <0>         0.1205
     26 H7          8.1976   -2.6173    0.3424 H         1 <0>         0.1367
     27 H8          5.8731   -6.2000   -0.0652 H         1 <0>         0.1375
     28 H9          3.8160   -4.8576   -0.1447 H         1 <0>         0.1298
@<TRIPOS>BOND
     1    1    6 ar
     2    1    2 ar
     3    1   20 1
     4    2    3 ar
     5    2   21 1
     6    3    4 ar
     7    3   22 1
     8    4    5 ar
     9    4    7 1
    10    5    6 ar
    11    5   23 1
    12    6   24 1
    13    7    8 2
    14    7    9 1
    15    9   10 2
    16    9   11 1
    17   11   16 ar
    18   11   12 ar
    19   12   13 ar
    20   12   25 1
    21   13   14 ar
    22   13   26 1
    23   14   15 ar
    24   14   17 1
    25   15   16 ar
    26   15   27 1
    27   16   28 1
    28   17   18 2
    29   17   19 1
@<TRIPOS>MOLECULE
ZINC04530702
   29    30     0     0     0
SMALL
USER_CHARGES

@<TRIPOS>ATOM
      1 C1         -0.0167    1.3798    0.0096 C.ar      1 <0>        -0.0884
      2 C2          1.1680    2.0953    0.0022 C.ar      1 <0>        -0.1305
      3 C3          2.3774    1.4332   -0.0134 C.ar      1 <0>        -0.0617
      4 C4          2.4048    0.0349   -0.0211 C.ar      1 <0>        -0.1682
      5 C5          1.2034   -0.6808   -0.0130 C.ar      1 <0>        -0.0772
      6 C6          0.0021   -0.0041    0.0020 C.ar      1 <0>        -0.1320
      7 C7          3.6913   -0.6795   -0.0381 C.2       1 <0>         0.3893
      8 C8          3.7163   -2.1863   -0.0464 C.3       1 <0>        -0.2155
      9 C9          5.1452   -2.6649   -0.0637 C.2       1 <0>         0.3892
     10 O1          6.0536   -1.8617   -0.0687 O.2       1 <0>        -0.4115
     11 C10         5.4381   -4.1071   -0.0743 C.ar      1 <0>        -0.1681
     12 C11         4.3931   -5.0366   -0.0744 C.ar      1 <0>        -0.0772
     13 C12         4.6757   -6.3861   -0.0849 C.ar      1 <0>        -0.1320
     14 C13         5.9894   -6.8217   -0.0954 C.ar      1 <0>        -0.0884
     15 C14         7.0291   -5.9081   -0.0950 C.ar      1 <0>        -0.1305
     16 C15         6.7628   -4.5552   -0.0904 C.ar      1 <0>        -0.0617
     17 O2          4.7311   -0.0559   -0.0455 O.2       1 <0>        -0.4114
     18 H1         -0.9607    1.9041    0.0260 H         1 <0>         0.1284
     19 H2          1.1452    3.1750    0.0081 H         1 <0>         0.1303
     20 H3          3.3011    1.9929   -0.0199 H         1 <0>         0.1342
     21 H4          1.2164   -1.7607   -0.0192 H         1 <0>         0.1319
     22 H5         -0.9266   -0.5553    0.0082 H         1 <0>         0.1303
     23 H6          3.2178   -2.5629    0.8468 H         1 <0>         0.1328
     24 H7          3.3675   -4.6982   -0.0658 H         1 <0>         0.1319
     25 H8          3.8699   -7.1051   -0.0846 H         1 <0>         0.1303
     26 H9          6.2043   -7.8801   -0.1036 H         1 <0>         0.1284
     27 H10         8.0515   -6.2558   -0.1029 H         1 <0>         0.1303
     28 H11         7.5751   -3.8435   -0.0945 H         1 <0>         0.1342
     29 H12         3.1995   -2.5534   -0.9331 H         1 <0>         0.1328
@<TRIPOS>BOND
     1    1    6 ar
     2    1    2 ar
     3    1   18 1
     4    2    3 ar
     5    2   19 1
     6    3    4 ar
     7    3   20 1
     8    4    5 ar
     9    4    7 1
    10    5    6 ar
    11    5   21 1
    12    6   22 1
    13    7    8 1
    14    7   17 2
    15    8   23 1
    16    8   29 1
    17    8    9 1
    18    9   11 1
    19    9   10 2
    20   11   16 ar
    21   11   12 ar
    22   12   13 ar
    23   12   24 1
    24   13   14 ar
    25   13   25 1
    26   14   15 ar
    27   14   26 1
    28   15   16 ar
    29   15   27 1
    30   16   28 1
@<TRIPOS>MOLECULE
ZINC04530702
   28    29     0     0     0
SMALL
USER_CHARGES

@<TRIPOS>ATOM
      1 C1         -0.0167    1.3797    0.0096 C.ar      1 <0>        -0.1260
      2 C2          1.1683    2.0944    0.0022 C.ar      1 <0>        -0.1358
      3 C3          2.3774    1.4311   -0.0134 C.ar      1 <0>        -0.0851
      4 C4          2.4040    0.0344   -0.0212 C.ar      1 <0>        -0.0848
      5 C5          1.2038   -0.6806   -0.0131 C.ar      1 <0>        -0.0944
      6 C6          0.0021   -0.0041    0.0020 C.ar      1 <0>        -0.1366
      7 C7          3.6946   -0.6829   -0.0384 C.2       1 <0>         0.3396
      8 C8          3.7173   -2.0725   -0.0461 C.2       1 <0>        -0.4753
      9 C9          4.9320   -2.7476   -0.0622 C.2       1 <0>         0.3396
     10 O1          6.0777   -2.0608   -0.0704 O.3       1 <0>        -0.5882
     11 C10         4.9561   -4.2240   -0.0704 C.ar      1 <0>        -0.0848
     12 C11         3.7597   -4.9454   -0.0677 C.ar      1 <0>        -0.0944
     13 C12         3.7898   -6.3243   -0.0754 C.ar      1 <0>        -0.1366
     14 C13         5.0013   -6.9932   -0.0857 C.ar      1 <0>        -0.1261
     15 C14         6.1903   -6.2850   -0.0879 C.ar      1 <0>        -0.1358
     16 C15         6.1753   -4.9059   -0.0867 C.ar      1 <0>        -0.0850
     17 O2          4.8404    0.0038   -0.0465 O.2       1 <0>        -0.5883
     18 H1         -0.9606    1.9043    0.0260 H         1 <0>         0.1141
     19 H2          1.1463    3.1742    0.0082 H         1 <0>         0.1165
     20 H3          3.3015    1.9901   -0.0200 H         1 <0>         0.1285
     21 H4          1.2170   -1.7605   -0.0194 H         1 <0>         0.1275
     22 H5         -0.9265   -0.5555    0.0083 H         1 <0>         0.1168
     23 H6          2.8136   -4.4247   -0.0593 H         1 <0>         0.1275
     24 H7          2.8657   -6.8833   -0.0729 H         1 <0>         0.1168
     25 H8          5.0189   -8.0730   -0.0916 H         1 <0>         0.1141
     26 H9          7.1321   -6.8136   -0.0957 H         1 <0>         0.1165
     27 H10         7.1039   -4.3545   -0.0937 H         1 <0>         0.1285
     28 H11         2.7910   -2.6277   -0.0395 H         1 <0>         0.0912
@<TRIPOS>BOND
     1    1    6 ar
     2    1    2 ar
     3    1   18 1
     4    2    3 ar
     5    2   19 1
     6    3    4 ar
     7    3   20 1
     8    4    5 ar
     9    4    7 1
    10    5    6 ar
    11    5   21 1
    12    6   22 1
    13    7    8 1
    14    7   17 2
    15    8   28 1
    16    8    9 2
    17    9   11 1
    18    9   10 1
    19   11   16 ar
    20   11   12 ar
    21   12   13 ar
    22   12   23 1
    23   13   14 ar
    24   13   24 1
    25   14   15 ar
    26   14   25 1
    27   15   16 ar
    28   15   26 1
    29   16   27 1
@<TRIPOS>MOLECULE
ZINC01841234
   29    30     0     0     0
SMALL
USER_CHARGES
1-phenyl-2-(p-tolyl)ethane-1,2-dione
@<TRIPOS>ATOM
      1 C1         10.1203   -2.2408   -0.4222 C.3       1 <0>        -0.1242
      2 C2          8.7560   -1.6072   -0.3320 C.ar      1 <0>        -0.0431
      3 C3          8.6423   -0.2357   -0.1806 C.ar      1 <0>        -0.1340
      4 C4          7.3979    0.3514   -0.0970 C.ar      1 <0>        -0.0474
      5 C5          6.2480   -0.4425   -0.1659 C.ar      1 <0>        -0.1800
      6 C6          6.3713   -1.8281   -0.3140 C.ar      1 <0>        -0.0597
      7 C7          7.6228   -2.3996   -0.4015 C.ar      1 <0>        -0.1321
      8 C8          4.9132    0.1773   -0.0767 C.2       1 <0>         0.3773
      9 O1          4.8068    1.3857   -0.0351 O.2       1 <0>        -0.4146
     10 C9          3.6938   -0.6805   -0.0375 C.2       1 <0>         0.3774
     11 O2          3.2957   -1.2160   -1.0513 O.2       1 <0>        -0.4144
     12 C10         2.9719   -0.8780    1.2328 C.ar      1 <0>        -0.1719
     13 C11         1.7672   -1.5889    1.2538 C.ar      1 <0>        -0.0529
     14 C12         1.0980   -1.7690    2.4454 C.ar      1 <0>        -0.1314
     15 C13         1.6149   -1.2480    3.6194 C.ar      1 <0>        -0.0785
     16 C14         2.8065   -0.5433    3.6069 C.ar      1 <0>        -0.1298
     17 C15         3.4879   -0.3552    2.4234 C.ar      1 <0>        -0.0650
     18 H1         10.4650   -2.5051    0.5776 H         1 <0>         0.0789
     19 H2         10.0637   -3.1396   -1.0363 H         1 <0>         0.0726
     20 H3         10.8191   -1.5362   -0.8730 H         1 <0>         0.0727
     21 H4          9.5310    0.3758   -0.1276 H         1 <0>         0.1339
     22 H5          7.3108    1.4213    0.0211 H         1 <0>         0.1378
     23 H6          5.4884   -2.4480   -0.3635 H         1 <0>         0.1294
     24 H7          7.7196   -3.4687   -0.5200 H         1 <0>         0.1333
     25 H8          1.3624   -1.9953    0.3387 H         1 <0>         0.1375
     26 H9          0.1679   -2.3175    2.4633 H         1 <0>         0.1343
     27 H10         1.0835   -1.3882    4.5491 H         1 <0>         0.1321
     28 H11         3.2032   -0.1396    4.5268 H         1 <0>         0.1337
     29 H12         4.4175    0.1945    2.4153 H         1 <0>         0.1281
@<TRIPOS>BOND
     1    1    2 1
     2    1   18 1
     3    1   19 1
     4    1   20 1
     5    2    7 ar
     6    2    3 ar
     7    3    4 ar
     8    3   21 1
     9    4    5 ar
    10    4   22 1
    11    5    6 ar
    12    5    8 1
    13    6    7 ar
    14    6   23 1
    15    7   24 1
    16    8    9 2
    17    8   10 1
    18   10   11 2
    19   10   12 1
    20   12   17 ar
    21   12   13 ar
    22   13   14 ar
    23   13   25 1
    24   14   15 ar
    25   14   26 1
    26   15   16 ar
    27   15   27 1
    28   16   17 ar
    29   16   28 1
    30   17   29 1
@<TRIPOS>MOLECULE
ZINC02168289
   34    35     0     0     0
SMALL
USER_CHARGES
1,2-bis(3-methoxyphenyl)ethane-1,2-dione
@<TRIPOS>ATOM
      1 C1          0.9596   -0.4050    4.5473 C.3       1 <0>         0.0248
      2 O1         -0.0365    0.5524    4.1824 O.3       1 <0>        -0.3131
      3 C2         -1.3348    0.1827    4.3400 C.ar      1 <0>         0.1182
      4 C3         -1.6420   -1.0779    4.8366 C.ar      1 <0>        -0.1699
      5 C4         -2.9613   -1.4609    5.0007 C.ar      1 <0>        -0.0873
      6 C5         -3.9819   -0.5940    4.6719 C.ar      1 <0>        -0.1029
      7 C6         -3.6835    0.6777    4.1706 C.ar      1 <0>        -0.1306
      8 C7         -2.3493    1.0642    4.0112 C.ar      1 <0>        -0.0858
      9 C8         -4.7713    1.6084    3.8176 C.2       1 <0>         0.3777
     10 O2         -4.5116    2.7435    3.4752 O.2       1 <0>        -0.4055
     11 C9         -6.1907    1.1550    3.8812 C.2       1 <0>         0.3813
     12 O3         -6.6342    0.4263    3.0178 O.2       1 <0>        -0.4057
     13 C10        -7.0551    1.5920    4.9929 C.ar      1 <0>        -0.1322
     14 C11        -8.3539    1.0860    5.1138 C.ar      1 <0>        -0.0897
     15 C12        -9.1585    1.4976    6.1550 C.ar      1 <0>        -0.0896
     16 C13        -8.6862    2.4096    7.0820 C.ar      1 <0>        -0.1690
     17 C14        -7.3979    2.9179    6.9715 C.ar      1 <0>         0.1197
     18 C15        -6.5784    2.5095    5.9341 C.ar      1 <0>        -0.0994
     19 O4         -6.9404    3.8131    7.8861 O.3       1 <0>        -0.3133
     20 C16        -7.8378    4.1863    8.9337 C.3       1 <0>         0.0247
     21 H1          0.8527   -0.6562    5.6025 H         1 <0>         0.0580
     22 H2          1.9497    0.0162    4.3726 H         1 <0>         0.1045
     23 H3          0.8363   -1.3051    3.9452 H         1 <0>         0.0581
     24 H4         -0.8474   -1.7618    5.0961 H         1 <0>         0.1372
     25 H5         -3.1926   -2.4421    5.3879 H         1 <0>         0.1373
     26 H6         -5.0106   -0.8964    4.8009 H         1 <0>         0.1311
     27 H7         -2.1115    2.0459    3.6289 H         1 <0>         0.1464
     28 H8         -8.7257    0.3735    4.3924 H         1 <0>         0.1406
     29 H9        -10.1610    1.1065    6.2475 H         1 <0>         0.1380
     30 H10        -9.3216    2.7275    7.8954 H         1 <0>         0.1373
     31 H11        -5.5752    2.9005    5.8498 H         1 <0>         0.1385
     32 H12        -7.3489    4.9041    9.5923 H         1 <0>         0.1045
     33 H13        -8.7313    4.6383    8.5029 H         1 <0>         0.0583
     34 H14        -8.1177    3.3012    9.5049 H         1 <0>         0.0581
@<TRIPOS>BOND
     1    1    2 1
     2    1   21 1
     3    1   22 1
     4    1   23 1
     5    2    3 1
     6    3    8 ar
     7    3    4 ar
     8    4    5 ar
     9    4   24 1
    10    5    6 ar
    11    5   25 1
    12    6    7 ar
    13    6   26 1
    14    7    8 ar
    15    7    9 1
    16    8   27 1
    17    9   10 2
    18    9   11 1
    19   11   12 2
    20   11   13 1
    21   13   18 ar
    22   13   14 ar
    23   14   15 ar
    24   14   28 1
    25   15   16 ar
    26   15   29 1
    27   16   17 ar
    28   16   30 1
    29   17   18 ar
    30   17   19 1
    31   18   31 1
    32   19   20 1
    33   20   32 1
    34   20   33 1
    35   20   34 1
