@<TRIPOS>MOLECULE
ZINC01359452
   41    44     0     0     0
SMALL
USER_CHARGES
2-(2-thienyl)-1-[4-[3-(2-thienyl)-1,2,4-oxadiazol-5-yl]-1-piperidyl]-ethanone
@<TRIPOS>ATOM
      1 C1         -2.4358   -9.1735   -0.6488 C.2       1 <0>        -0.1567
      2 C2         -1.9470   -7.9033   -0.8903 C.2       1 <0>        -0.1429
      3 C3         -0.6133   -7.7341   -1.0628 C.2       1 <0>        -0.1335
      4 S1         -0.0017   -9.4004   -0.8709 S.3       1 <0>         0.0461
      5 C4         -1.5659  -10.2108   -0.5810 C.2       1 <0>        -0.1711
      6 C5          0.1548   -6.4672   -1.3385 C.3       1 <0>        -0.0561
      7 C6          0.5583   -5.8303   -0.0336 C.2       1 <0>         0.5183
      8 O1          0.2523   -6.3537    1.0168 O.2       1 <0>        -0.5199
      9 N1          1.2592   -4.6792   -0.0339 N.am      1 <0>        -0.6177
     10 C7          1.6598   -4.0463    1.2301 C.3       1 <0>         0.1151
     11 C8          1.1787   -2.5919    1.2276 C.3       1 <0>        -0.1328
     12 C9          1.7067   -1.8863   -0.0236 C.3       1 <0>         0.0070
     13 C10         1.1568   -2.5792   -1.2725 C.3       1 <0>        -0.1350
     14 C11         1.6376   -4.0335   -1.2983 C.3       1 <0>         0.1079
     15 C12         1.2637   -0.4460   -0.0124 C.2       1 <0>         0.1941
     16 N2          2.0424    0.6065   -0.0142 N.2       1 <0>        -0.4684
     17 C13         1.2104    1.6745   -0.0005 C.2       1 <0>         0.2551
     18 N3         -0.0144    1.2087    0.0087 N.2       1 <0>        -0.3645
     19 O2          0.0021   -0.0041    0.0020 O.3       1 <0>         0.0900
     20 C14         1.6084    3.0972    0.0033 C.2       1 <0>        -0.1118
     21 C15         0.8166    4.2150    0.0174 C.2       1 <0>        -0.1034
     22 C16         1.4186    5.4526    0.0181 C.2       1 <0>        -0.1652
     23 C17         2.7752    5.5290    0.0050 C.2       1 <0>        -0.1603
     24 S2          3.2465    3.8072   -0.0012 S.3       1 <0>         0.1262
     25 H1         -3.4946   -9.3364   -0.5116 H         1 <0>         0.1338
     26 H2         -2.6181   -7.0588   -0.9436 H         1 <0>         0.1306
     27 H3         -1.7667  -11.2561   -0.3985 H         1 <0>         0.1858
     28 H4         -0.4735   -5.7765   -1.9009 H         1 <0>         0.1174
     29 H5          1.0467   -6.7021   -1.9193 H         1 <0>         0.1106
     30 H6          2.7455   -4.0719    1.3236 H         1 <0>         0.0762
     31 H7          1.2064   -4.5797    2.0656 H         1 <0>         0.1029
     32 H8          1.5519   -2.0837    2.1167 H         1 <0>         0.0873
     33 H9          0.0889   -2.5692    1.2255 H         1 <0>         0.0820
     34 H10         2.7957   -1.9312   -0.0335 H         1 <0>         0.1231
     35 H11         0.0672   -2.5566   -1.2510 H         1 <0>         0.0834
     36 H12         1.5144   -2.0619   -2.1628 H         1 <0>         0.0893
     37 H13         2.7215   -4.0580   -1.4110 H         1 <0>         0.0814
     38 H14         1.1696   -4.5584   -2.1310 H         1 <0>         0.0961
     39 H15        -0.2597    4.1267    0.0280 H         1 <0>         0.1410
     40 H16         0.8203    6.3517    0.0287 H         1 <0>         0.1438
     41 H17         3.4059    6.4057    0.0035 H         1 <0>         0.1951
@<TRIPOS>BOND
     1    1    5 2
     2    1    2 1
     3    1   25 1
     4    2    3 2
     5    2   26 1
     6    3    4 1
     7    3    6 1
     8    4    5 1
     9    5   27 1
    10    6    7 1
    11    6   28 1
    12    6   29 1
    13    7    8 2
    14    7    9 am
    15    9   14 1
    16    9   10 1
    17   10   11 1
    18   10   30 1
    19   10   31 1
    20   11   12 1
    21   11   32 1
    22   11   33 1
    23   12   13 1
    24   12   15 1
    25   12   34 1
    26   13   14 1
    27   13   35 1
    28   13   36 1
    29   14   37 1
    30   14   38 1
    31   15   19 1
    32   15   16 2
    33   16   17 1
    34   17   18 2
    35   17   20 1
    36   18   19 1
    37   20   24 1
    38   20   21 2
    39   21   22 1
    40   21   39 1
    41   22   23 2
    42   22   40 1
    43   23   24 1
    44   23   41 1
@<TRIPOS>MOLECULE
ZINC01359455
   44    47     0     0     0
SMALL
USER_CHARGES
2-phenyl-1-[4-[3-(2-thienyl)-1,2,4-oxadiazol-5-yl]-1-piperidyl]-ethanone
@<TRIPOS>ATOM
      1 C1         -2.0224  -10.0584   -0.5574 C.ar      1 <0>        -0.1187
      2 C2         -2.6926   -8.8548   -0.6715 C.ar      1 <0>        -0.1186
      3 C3         -1.9880   -7.6926   -0.9240 C.ar      1 <0>        -0.1053
      4 C4         -0.6133   -7.7341   -1.0628 C.ar      1 <0>        -0.0710
      5 C5          0.0563   -8.9386   -0.9543 C.ar      1 <0>        -0.1055
      6 C6         -0.6477  -10.1000   -0.6967 C.ar      1 <0>        -0.1187
      7 C7          0.1548   -6.4672   -1.3385 C.3       1 <0>        -0.1019
      8 C8          0.5583   -5.8303   -0.0336 C.2       1 <0>         0.5191
      9 O1          0.2523   -6.3537    1.0168 O.2       1 <0>        -0.5238
     10 N1          1.2592   -4.6792   -0.0339 N.am      1 <0>        -0.6193
     11 C9          1.6598   -4.0463    1.2301 C.3       1 <0>         0.1147
     12 C10         1.1787   -2.5919    1.2276 C.3       1 <0>        -0.1327
     13 C11         1.7067   -1.8863   -0.0236 C.3       1 <0>         0.0071
     14 C12         1.1568   -2.5792   -1.2725 C.3       1 <0>        -0.1349
     15 C13         1.6376   -4.0335   -1.2983 C.3       1 <0>         0.1090
     16 C14         1.2637   -0.4460   -0.0124 C.2       1 <0>         0.1944
     17 N2          2.0424    0.6065   -0.0142 N.2       1 <0>        -0.4686
     18 C15         1.2104    1.6745   -0.0005 C.2       1 <0>         0.2549
     19 N3         -0.0144    1.2087    0.0087 N.2       1 <0>        -0.3645
     20 O2          0.0021   -0.0041    0.0020 O.3       1 <0>         0.0900
     21 C16         1.6084    3.0972    0.0033 C.2       1 <0>        -0.1116
     22 C17         0.8166    4.2150    0.0174 C.2       1 <0>        -0.1035
     23 C18         1.4186    5.4526    0.0181 C.2       1 <0>        -0.1652
     24 C19         2.7752    5.5290    0.0050 C.2       1 <0>        -0.1604
     25 S1          3.2465    3.8072   -0.0012 S.3       1 <0>         0.1260
     26 H1         -2.5728  -10.9664   -0.3598 H         1 <0>         0.1216
     27 H2         -3.7666   -8.8224   -0.5631 H         1 <0>         0.1222
     28 H3         -2.5116   -6.7523   -1.0131 H         1 <0>         0.1190
     29 H4          1.1299   -8.9716   -1.0672 H         1 <0>         0.1191
     30 H5         -0.1241  -11.0404   -0.6079 H         1 <0>         0.1223
     31 H6         -0.4735   -5.7765   -1.9009 H         1 <0>         0.1042
     32 H7          1.0467   -6.7021   -1.9193 H         1 <0>         0.1042
     33 H8          2.7455   -4.0719    1.3236 H         1 <0>         0.0750
     34 H9          1.2064   -4.5797    2.0656 H         1 <0>         0.1023
     35 H10         1.5519   -2.0837    2.1167 H         1 <0>         0.0869
     36 H11         0.0889   -2.5692    1.2255 H         1 <0>         0.0817
     37 H12         2.7957   -1.9312   -0.0335 H         1 <0>         0.1228
     38 H13         0.0672   -2.5566   -1.2510 H         1 <0>         0.0830
     39 H14         1.5144   -2.0619   -2.1628 H         1 <0>         0.0886
     40 H15         2.7215   -4.0580   -1.4110 H         1 <0>         0.0798
     41 H16         1.1696   -4.5584   -2.1310 H         1 <0>         0.0962
     42 H17        -0.2597    4.1267    0.0280 H         1 <0>         0.1411
     43 H18         0.8203    6.3517    0.0287 H         1 <0>         0.1438
     44 H19         3.4059    6.4057    0.0035 H         1 <0>         0.1950
@<TRIPOS>BOND
     1    1    6 ar
     2    1    2 ar
     3    1   26 1
     4    2    3 ar
     5    2   27 1
     6    3    4 ar
     7    3   28 1
     8    4    5 ar
     9    4    7 1
    10    5    6 ar
    11    5   29 1
    12    6   30 1
    13    7    8 1
    14    7   31 1
    15    7   32 1
    16    8    9 2
    17    8   10 am
    18   10   15 1
    19   10   11 1
    20   11   12 1
    21   11   33 1
    22   11   34 1
    23   12   13 1
    24   12   35 1
    25   12   36 1
    26   13   14 1
    27   13   16 1
    28   13   37 1
    29   14   15 1
    30   14   38 1
    31   14   39 1
    32   15   40 1
    33   15   41 1
    34   16   20 1
    35   16   17 2
    36   17   18 1
    37   18   19 2
    38   18   21 1
    39   19   20 1
    40   21   25 1
    41   21   22 2
    42   22   23 1
    43   22   42 1
    44   23   24 2
    45   23   43 1
    46   24   25 1
    47   24   44 1
