@<TRIPOS>MOLECULE
ZINC11677837
   59    63     0     0     0
SMALL
USER_CHARGES
1-(4-methoxyphenyl)-7-oxo-6-[4-(2-oxo-1-piperidyl)phenyl]-4,5-dihydropyrazolo[5,4-c]pyridine-3-carboxamide
@<TRIPOS>ATOM
      1 C1          3.9911    9.6190   -0.0270 C.3       1 <0>         0.0230
      2 O1          2.7303    9.6695    0.6437 O.3       1 <0>        -0.3102
      3 C2          1.9295    8.5767    0.5353 C.ar      1 <0>         0.1510
      4 C3          0.6915    8.5591    1.1620 C.ar      1 <0>        -0.1362
      5 C4         -0.1223    7.4497    1.0523 C.ar      1 <0>        -0.0311
      6 C5          0.2984    6.3503    0.3147 C.ar      1 <0>         0.0658
      7 C6          1.5405    6.3661   -0.3072 C.ar      1 <0>        -0.0464
      8 C7          2.3506    7.4787   -0.2017 C.ar      1 <0>        -0.2011
      9 N1         -0.5264    5.2246    0.2030 N.pl3     1 <0>        -0.1695
     10 C8         -1.8587    5.2536   -0.0265 C.2       1 <0>        -0.0483
     11 C9         -2.2851    3.9413   -0.0824 C.2       1 <0>        -0.0932
     12 C10        -1.1522    3.1653    0.1436 C.2       1 <0>        -0.0104
     13 N2         -0.1317    3.9989    0.3025 N.2       1 <0>        -0.2351
     14 C11        -1.0951    1.6902    0.1913 C.2       1 <0>         0.6133
     15 O2         -2.1076    1.0371    0.0288 O.2       1 <0>        -0.5270
     16 N3          0.0794    1.0682    0.4151 N.am      1 <0>        -0.8392
     17 C12        -3.7185    3.5812   -0.3503 C.3       1 <0>        -0.0653
     18 C13        -4.6134    4.7185    0.1487 C.3       1 <0>         0.1123
     19 N4         -4.1236    6.0319   -0.2517 N.am      1 <0>        -0.5597
     20 C14        -2.8112    6.3561   -0.2247 C.2       1 <0>         0.6035
     21 O3         -2.4361    7.5041   -0.3710 O.2       1 <0>        -0.5000
     22 C15        -5.0482    6.9954   -0.6717 C.ar      1 <0>         0.1379
     23 C16        -5.9601    7.5237    0.2330 C.ar      1 <0>        -0.1032
     24 C17        -6.8680    8.4780   -0.1800 C.ar      1 <0>        -0.1067
     25 C18        -6.8772    8.9014   -1.5026 C.ar      1 <0>         0.1404
     26 C19        -5.9693    8.3690   -2.4085 C.ar      1 <0>        -0.0895
     27 C20        -5.0575    7.4189   -1.9945 C.ar      1 <0>        -0.0942
     28 N5         -7.8027    9.8652   -1.9230 N.am      1 <0>        -0.5643
     29 C21        -7.6589   11.2209   -1.4075 C.3       1 <0>         0.1122
     30 C22        -8.4106   12.2130   -2.2990 C.3       1 <0>        -0.1365
     31 C23        -9.8431   11.7025   -2.4960 C.3       1 <0>        -0.1260
     32 C24        -9.7896   10.4218   -3.3327 C.3       1 <0>        -0.1326
     33 C25        -8.7634    9.4835   -2.7655 C.2       1 <0>         0.5177
     34 O4         -8.8105    8.3162   -3.0915 O.2       1 <0>        -0.5369
     35 H1          4.5292   10.5520    0.1403 H         1 <0>         0.1050
     36 H2          4.5771    8.7867    0.3630 H         1 <0>         0.0596
     37 H3          3.8288    9.4798   -1.0958 H         1 <0>         0.0594
     38 H4          0.3645    9.4139    1.7354 H         1 <0>         0.1454
     39 H5         -1.0858    7.4362    1.5401 H         1 <0>         0.1372
     40 H6          1.8703    5.5099   -0.8768 H         1 <0>         0.1385
     41 H7          3.3144    7.4930   -0.6889 H         1 <0>         0.1423
     42 H8          0.1169    0.0994    0.4465 H         1 <0>         0.4096
     43 H9          0.8879    1.5892    0.5408 H         1 <0>         0.4085
     44 H10        -3.8665    3.4428   -1.4213 H         1 <0>         0.0942
     45 H11        -3.9689    2.6608    0.1773 H         1 <0>         0.1175
     46 H12        -5.6172    4.5792   -0.2527 H         1 <0>         0.1001
     47 H13        -4.6621    4.6771    1.2368 H         1 <0>         0.0755
     48 H14        -5.9561    7.1909    1.2604 H         1 <0>         0.1321
     49 H15        -7.5742    8.8921    0.5245 H         1 <0>         0.1306
     50 H16        -5.9763    8.6986   -3.4370 H         1 <0>         0.1271
     51 H17        -4.3516    7.0046   -2.6991 H         1 <0>         0.1273
     52 H18        -8.0596   11.2658   -0.3949 H         1 <0>         0.0708
     53 H19        -6.6023   11.4878   -1.3857 H         1 <0>         0.0803
     54 H20        -7.9137   12.2904   -3.2661 H         1 <0>         0.0751
     55 H21        -8.4337   13.1920   -1.8204 H         1 <0>         0.0895
     56 H22       -10.4330   12.4567   -3.0169 H         1 <0>         0.0806
     57 H23       -10.2937   11.4891   -1.5268 H         1 <0>         0.0726
     58 H24        -9.5237   10.6712   -4.3599 H         1 <0>         0.1026
     59 H25       -10.7672    9.9399   -3.3198 H         1 <0>         0.1036
@<TRIPOS>BOND
     1    1    2 1
     2    1   35 1
     3    1   36 1
     4    1   37 1
     5    2    3 1
     6    3    8 ar
     7    3    4 ar
     8    4    5 ar
     9    4   38 1
    10    5    6 ar
    11    5   39 1
    12    6    7 ar
    13    6    9 1
    14    7    8 ar
    15    7   40 1
    16    8   41 1
    17    9   13 1
    18    9   10 1
    19   10   20 1
    20   10   11 2
    21   11   12 1
    22   11   17 1
    23   12   13 2
    24   12   14 1
    25   14   15 2
    26   14   16 am
    27   16   42 1
    28   16   43 1
    29   17   18 1
    30   17   44 1
    31   17   45 1
    32   18   19 1
    33   18   46 1
    34   18   47 1
    35   19   20 am
    36   19   22 1
    37   20   21 2
    38   22   27 ar
    39   22   23 ar
    40   23   24 ar
    41   23   48 1
    42   24   25 ar
    43   24   49 1
    44   25   26 ar
    45   25   28 1
    46   26   27 ar
    47   26   50 1
    48   27   51 1
    49   28   33 am
    50   28   29 1
    51   29   30 1
    52   29   52 1
    53   29   53 1
    54   30   31 1
    55   30   54 1
    56   30   55 1
    57   31   32 1
    58   31   56 1
    59   31   57 1
    60   32   33 1
    61   32   58 1
    62   32   59 1
    63   33   34 2
@<TRIPOS>MOLECULE
ZINC14210470
   71    77     0     0     0
SMALL
USER_CHARGES
1-(3-amino-1,2-benzoxazol-5-yl)-6-[4-[2-[[(3R)-3-hydroxypyrrolidin-1-yl]methyl]phenyl]phenyl]-3-(trifluoromethyl)-4,5-dihydropyrazolo[5,4-c]pyridin-7-one
@<TRIPOS>ATOM
      1 C1          2.5269   -0.3459    1.2512 C.ar      1 <0>        -0.1099
      2 C2          3.5800    0.4940    0.9359 C.ar      1 <0>        -0.0814
      3 C3          3.3601    1.8451    0.7619 C.ar      1 <0>        -0.0977
      4 C4          2.0743    2.3634    0.9059 C.ar      1 <0>        -0.0241
      5 C5          1.0173    1.5127    1.2231 C.ar      1 <0>        -0.1497
      6 C6          1.2487    0.1626    1.3939 C.ar      1 <0>        -0.0843
      7 C7         -0.3770    2.0645    1.3733 C.3       1 <0>         0.0440
      8 C8         -0.5474    1.8538    3.7872 C.3       1 <0>        -0.0059
      9 C9         -1.4662    2.5526    4.8203 C.3       1 <0>        -0.1816
     10 C10        -2.5165    3.2276    3.8996 C.3       1 <0>         0.0940
     11 H1         -3.2954    2.5200    3.6155 H         1 <0>         0.0980
     12 C11        -1.6834    3.6449    2.6694 C.3       1 <0>        -0.0091
     13 O1         -3.0852    4.3733    4.5369 O.3       1 <0>        -0.5482
     14 C12         1.8317    3.8151    0.7206 C.ar      1 <0>        -0.0833
     15 C13         0.9018    4.2528   -0.2214 C.ar      1 <0>        -0.1046
     16 C14         0.6738    5.6021   -0.3878 C.ar      1 <0>        -0.1092
     17 C15         1.3785    6.5264    0.3746 C.ar      1 <0>         0.1573
     18 C16         2.3102    6.0924    1.3103 C.ar      1 <0>        -0.1005
     19 C17         2.5373    4.7438    1.4841 C.ar      1 <0>        -0.0937
     20 N1          1.1496    7.8938    0.2004 N.am      1 <0>        -0.5680
     21 C18        -0.1423    8.4414    0.5933 C.3       1 <0>         0.1173
     22 C19        -0.0225    9.7942    1.2988 C.3       1 <0>        -0.0729
     23 C20         0.9365   10.6575    0.5301 C.2       1 <0>        -0.1077
     24 C21         1.9688   10.1112   -0.2324 C.2       1 <0>        -0.0473
     25 N2          2.6381   11.1514   -0.7729 N.pl3     1 <0>        -0.1609
     26 N3          2.0804   12.2557   -0.4009 N.2       1 <0>        -0.2071
     27 C22         1.0503   12.0237    0.3852 C.2       1 <0>        -0.0460
     28 C23         0.1570   13.0629    1.0122 C.3       1 <0>         0.5619
     29 F1          0.6731   13.4302    2.2596 F         1 <0>        -0.1637
     30 F2          0.0969   14.1879    0.1828 F         1 <0>        -0.1603
     31 F3         -1.1283   12.5354    1.1763 F         1 <0>        -0.1640
     32 C24         3.7606   11.0495   -1.6053 C.ar      1 <0>         0.0623
     33 C25         4.8427   11.9080   -1.4207 C.ar      1 <0>        -0.0262
     34 C26         5.9545   11.8147   -2.2274 C.ar      1 <0>        -0.1141
     35 C27         5.9993   10.8671   -3.2436 C.ar      1 <0>         0.1282
     36 C28         4.9095   10.0045   -3.4366 C.ar      1 <0>        -0.1961
     37 C29         3.7894   10.1009   -2.6115 C.ar      1 <0>         0.0144
     38 C30         5.2627    9.1354   -4.5699 C.2       1 <0>         0.3867
     39 N4          6.4520    9.4886   -4.9717 N.2       1 <0>        -0.3464
     40 O2          6.9272   10.5523   -4.1716 O.3       1 <0>        -0.0795
     41 N5          4.4769    8.1274   -5.1104 N.pl3     1 <0>        -0.8122
     42 C31         2.1390    8.6560   -0.3212 C.2       1 <0>         0.6085
     43 O3          3.1202    8.1598   -0.8418 O.2       1 <0>        -0.4914
     44 H2          2.7035   -1.4028    1.3861 H         1 <0>         0.1378
     45 H3          4.5761    0.0914    0.8253 H         1 <0>         0.1385
     46 H4          4.1829    2.4998    0.5154 H         1 <0>         0.1367
     47 H5          0.4302   -0.4977    1.6398 H         1 <0>         0.1344
     48 H6         -0.5896    2.7442    0.5482 H         1 <0>         0.1389
     49 H7         -1.0953    1.2447    1.3630 H         1 <0>         0.1385
     50 H8         -0.9818    0.9044    3.4741 H         1 <0>         0.1361
     51 H9          0.4460    1.6974    4.2075 H         1 <0>         0.1345
     52 H10        -0.9136    3.2970    5.3937 H         1 <0>         0.1070
     53 H11        -1.9365    1.8238    5.4804 H         1 <0>         0.1205
     54 H12        -1.3928    4.6919    2.7562 H         1 <0>         0.1388
     55 H13        -2.2626    3.4953    1.7582 H         1 <0>         0.1421
     56 H14        -3.6187    4.1656    5.3162 H         1 <0>         0.4051
     57 H15         0.3573    3.5351   -0.8171 H         1 <0>         0.1357
     58 H16        -0.0500    5.9415   -1.1141 H         1 <0>         0.1378
     59 H17         2.8570    6.8122    1.9014 H         1 <0>         0.1339
     60 H18         3.2611    4.4070    2.2115 H         1 <0>         0.1371
     61 H19        -0.7585    8.5628   -0.2977 H         1 <0>         0.0807
     62 H20        -0.6335    7.7370    1.2646 H         1 <0>         0.0978
     63 H21        -0.9998   10.2757    1.3341 H         1 <0>         0.1174
     64 H22         0.3509    9.6460    2.3120 H         1 <0>         0.0992
     65 H23         4.8110   12.6490   -0.6357 H         1 <0>         0.1560
     66 H24         6.7900   12.4817   -2.0741 H         1 <0>         0.1605
     67 H25         2.9491    9.4383   -2.7571 H         1 <0>         0.1375
     68 H26         3.6013    7.9418   -4.7365 H         1 <0>         0.4165
     69 H27         4.8032    7.6083   -5.8620 H         1 <0>         0.4187
     70 N6         -0.4745    2.8016    2.6602 N.4       1 <0>        -0.3930
     71 H28         0.3556    3.3959    2.7697 H         1 <0>         0.4296
@<TRIPOS>BOND
     1    1    6 ar
     2    1    2 ar
     3    1   44 1
     4    2    3 ar
     5    2   45 1
     6    3    4 ar
     7    3   46 1
     8    4    5 ar
     9    4   14 1
    10    5    6 ar
    11    5    7 1
    12    6   47 1
    13    7   48 1
    14    7   49 1
    15    7   70 1
    16    8    9 1
    17    8   50 1
    18    8   51 1
    19    8   70 1
    20    9   10 1
    21    9   52 1
    22    9   53 1
    23   10   11 1
    24   10   12 1
    25   10   13 1
    26   12   54 1
    27   12   55 1
    28   12   70 1
    29   13   56 1
    30   14   19 ar
    31   14   15 ar
    32   15   16 ar
    33   15   57 1
    34   16   17 ar
    35   16   58 1
    36   17   18 ar
    37   17   20 1
    38   18   19 ar
    39   18   59 1
    40   19   60 1
    41   20   42 am
    42   20   21 1
    43   21   22 1
    44   21   61 1
    45   21   62 1
    46   22   23 1
    47   22   63 1
    48   22   64 1
    49   23   27 1
    50   23   24 2
    51   24   25 1
    52   24   42 1
    53   25   26 1
    54   25   32 1
    55   26   27 2
    56   27   28 1
    57   28   29 1
    58   28   30 1
    59   28   31 1
    60   32   37 ar
    61   32   33 ar
    62   33   34 ar
    63   33   65 1
    64   34   35 ar
    65   34   66 1
    66   35   40 1
    67   35   36 ar
    68   36   37 ar
    69   36   38 1
    70   37   67 1
    71   38   39 2
    72   38   41 1
    73   39   40 1
    74   41   68 1
    75   41   69 1
    76   42   43 2
    77   70   71 1
