@<TRIPOS>MOLECULE
ZINC13986542
   58    61     0     0     0
SMALL
USER_CHARGES
1-[1-[(2S)-3-[(6-chloro-2-naphthyl)sulfonyl]-2-hydroxy-propanoyl]-4-piperidyl]hexahydropyrimidin-2-one
@<TRIPOS>ATOM
      1 C1         -1.7260    5.1982    5.9611 C.ar      1 <0>        -0.1124
      2 C2         -2.4956    4.2691    5.3306 C.ar      1 <0>        -0.0426
      3 C3         -3.6558    4.6387    4.6534 C.ar      1 <0>        -0.6573
      4 C4         -4.0591    5.9382    4.6114 C.ar      1 <0>         0.0190
      5 C5         -3.2935    6.9249    5.2550 C.ar      1 <0>        -0.0794
      6 C6         -2.1102    6.5496    5.9395 C.ar      1 <0>        -0.0023
      7 C7         -1.3445    7.5361    6.5839 C.ar      1 <0>        -0.1098
      8 C8         -1.7481    8.8363    6.5423 C.ar      1 <0>        -0.0079
      9 C9         -2.9123    9.2051    5.8681 C.ar      1 <0>        -0.1174
     10 C10        -3.6783    8.2766    5.2337 C.ar      1 <0>        -0.0715
     11 Cl1        -0.7996   10.0523    7.3394 Cl        1 <0>        -0.0583
     12 S1         -4.6194    3.4046    3.8452 S.o2      1 <0>         2.5073
     13 O1         -5.9382    3.9330    3.8201 O.2       1 <0>        -0.9126
     14 O2         -4.3336    2.2033    4.5485 O.2       1 <0>        -0.9255
     15 C11        -3.9489    3.3177    2.1620 C.3       1 <0>        -0.6595
     16 C12        -4.7184    2.2662    1.3601 C.3       1 <0>         0.1062
     17 H1         -4.6984    1.3160    1.8937 H         1 <0>         0.1384
     18 C13        -4.0757    2.0963    0.0076 C.2       1 <0>         0.5024
     19 O3         -4.5939    2.5823   -0.9754 O.2       1 <0>        -0.5224
     20 N1         -2.9251    1.4043   -0.1096 N.am      1 <0>        -0.6047
     21 C14        -2.3393    1.1443   -1.4317 C.3       1 <0>         0.1147
     22 C15        -0.8860    1.6286   -1.4310 C.3       1 <0>        -0.1532
     23 C16        -0.1344    0.9724   -0.2704 C.3       1 <0>         0.1712
     24 C17        -0.7811    1.3823    1.0547 C.3       1 <0>        -0.1574
     25 C18        -2.2330    0.8952    1.0822 C.3       1 <0>         0.0987
     26 N2          1.2642    1.4080   -0.2863 N.am      1 <0>        -0.6219
     27 C19         2.3247    0.4092   -0.4300 C.3       1 <0>         0.1105
     28 C20         3.5892    0.9138    0.2734 C.3       1 <0>        -0.1532
     29 C21         3.9522    2.2871   -0.3015 C.3       1 <0>         0.1079
     30 N3          2.8034    3.1839   -0.1648 N.am      1 <0>        -0.7393
     31 C22         1.5468    2.7145   -0.1743 C.2       1 <0>         0.7113
     32 O4          0.6278    3.5040   -0.0730 O.2       1 <0>        -0.5907
     33 O5         -6.0727    2.6909    1.1940 O.3       1 <0>        -0.5251
     34 H2         -0.8272    4.8976    6.4789 H         1 <0>         0.1408
     35 H3         -2.2004    3.2304    5.3524 H         1 <0>         0.1446
     36 H4         -4.9627    6.2094    4.0856 H         1 <0>         0.1524
     37 H5         -0.4405    7.2649    7.1089 H         1 <0>         0.1445
     38 H6         -3.2103   10.2430    5.8498 H         1 <0>         0.1413
     39 H7         -4.5772    8.5768    4.7158 H         1 <0>         0.1457
     40 H8         -2.8950    3.0427    2.2044 H         1 <0>         0.1521
     41 H9         -4.0516    4.2896    1.6793 H         1 <0>         0.1513
     42 H10        -2.9034    1.6825   -2.1936 H         1 <0>         0.0979
     43 H11        -2.3680    0.0748   -1.6402 H         1 <0>         0.0718
     44 H12        -0.8635    2.7119   -1.3127 H         1 <0>         0.0978
     45 H13        -0.4109    1.3550   -2.3731 H         1 <0>         0.0746
     46 H14        -0.1784   -0.1116   -0.3760 H         1 <0>         0.0903
     47 H15        -0.2314    0.9334    1.8820 H         1 <0>         0.0795
     48 H16        -0.7597    2.4680    1.1495 H         1 <0>         0.0974
     49 H17        -2.7269    1.2690    1.9791 H         1 <0>         0.0874
     50 H18        -2.2530   -0.1946    1.0788 H         1 <0>         0.0817
     51 H19         2.0053   -0.5290    0.0236 H         1 <0>         0.0840
     52 H20         2.5340    0.2498   -1.4877 H         1 <0>         0.0661
     53 H21         3.4020    1.0028    1.3435 H         1 <0>         0.0779
     54 H22         4.4073    0.2142    0.1019 H         1 <0>         0.0983
     55 H23         4.8017    2.6975    0.2443 H         1 <0>         0.0844
     56 H24         4.2105    2.1841   -1.3554 H         1 <0>         0.0654
     57 H25         2.9537    4.1374   -0.0694 H         1 <0>         0.4147
     58 H26        -6.1666    3.5318    0.7258 H         1 <0>         0.3950
@<TRIPOS>BOND
     1    1    6 ar
     2    1    2 ar
     3    1   34 1
     4    2    3 ar
     5    2   35 1
     6    3    4 ar
     7    3   12 1
     8    4    5 ar
     9    4   36 1
    10    5   10 ar
    11    5    6 ar
    12    6    7 ar
    13    7    8 ar
    14    7   37 1
    15    8    9 ar
    16    8   11 1
    17    9   10 ar
    18    9   38 1
    19   10   39 1
    20   12   13 2
    21   12   14 2
    22   12   15 1
    23   15   16 1
    24   15   40 1
    25   15   41 1
    26   16   17 1
    27   16   18 1
    28   16   33 1
    29   18   19 2
    30   18   20 am
    31   20   25 1
    32   20   21 1
    33   21   22 1
    34   21   42 1
    35   21   43 1
    36   22   23 1
    37   22   44 1
    38   22   45 1
    39   23   24 1
    40   23   26 1
    41   23   46 1
    42   24   25 1
    43   24   47 1
    44   24   48 1
    45   25   49 1
    46   25   50 1
    47   26   31 am
    48   26   27 1
    49   27   28 1
    50   27   51 1
    51   27   52 1
    52   28   29 1
    53   28   53 1
    54   28   54 1
    55   29   30 1
    56   29   55 1
    57   29   56 1
    58   30   31 am
    59   30   57 1
    60   31   32 2
    61   33   58 1
@<TRIPOS>MOLECULE
ZINC03981896
   58    61     0     0     0
SMALL
USER_CHARGES
4-[(2-amidino-3,4-dihydro-1H-isoquinolin-7-yl)oxymethyl]-1-(4-pyridyl)piperidine-4-carboxylic acid
@<TRIPOS>ATOM
      1 C1         -0.9992    5.8595    4.6527 C.ar      1 <0>        -0.2009
      2 C2         -1.9341    5.8698    5.6656 C.ar      1 <0>        -0.0691
      3 C3         -3.1984    5.3271    5.4687 C.ar      1 <0>        -0.1309
      4 C4         -3.5236    4.7864    4.2441 C.ar      1 <0>        -0.0745
      5 C5         -2.5859    4.7751    3.2221 C.ar      1 <0>        -0.1448
      6 C6         -1.3247    5.3120    3.4204 C.ar      1 <0>         0.1572
      7 O1         -0.4098    5.2975    2.4156 O.3       1 <0>        -0.2659
      8 C7          0.8696    5.8696    2.6948 C.3       1 <0>         0.0881
      9 C8          1.7581    5.7622    1.4539 C.3       1 <0>        -0.1125
     10 C9          1.1074    6.5177    0.2918 C.3       1 <0>        -0.0922
     11 C10         2.0310    6.4572   -0.9286 C.3       1 <0>         0.0580
     12 N1          3.3281    7.0587   -0.5937 N.pl3     1 <0>        -0.4674
     13 C11         3.9919    6.3209    0.4887 C.3       1 <0>         0.0283
     14 C12         3.1283    6.3777    1.7508 C.3       1 <0>        -0.0888
     15 C13         4.1456    7.1387   -1.7171 C.ar      1 <0>         0.2548
     16 C14         5.4179    6.5670   -1.7184 C.ar      1 <0>        -0.1914
     17 C15         6.1945    6.6637   -2.8538 C.ar      1 <0>         0.1644
     18 C16         4.5567    7.8546   -3.9608 C.ar      1 <0>         0.1559
     19 C17         3.7164    7.7977   -2.8690 C.ar      1 <0>        -0.1684
     20 C18         1.9276    4.3122    1.0799 C.2       1 <0>         0.4692
     21 O2          3.0306    3.8196    1.0553 O.co2     1 <0>        -0.6356
     22 C19        -4.8858    4.2075    3.9539 C.3       1 <0>         0.1534
     23 N2         -5.6394    4.0672    5.2044 N.pl3     1 <0>        -0.5861
     24 C20        -5.5991    5.1964    6.1482 C.3       1 <0>         0.1086
     25 C21        -4.1578    5.3557    6.6295 C.3       1 <0>        -0.0911
     26 C22        -6.3545    2.9268    5.4842 C.cat     1 <0>         0.7401
     27 N3         -6.3732    1.8888    4.5829 N.pl3     1 <0>        -0.8078
     28 H1         -0.0178    6.2795    4.8169 H         1 <0>         0.1327
     29 H2         -1.6804    6.3003    6.6230 H         1 <0>         0.1278
     30 H3         -2.8409    4.3445    2.2651 H         1 <0>         0.1383
     31 H4          1.3346    5.3333    3.5221 H         1 <0>         0.0604
     32 H5          0.7474    6.9186    2.9646 H         1 <0>         0.0572
     33 H6          0.1500    6.0568    0.0487 H         1 <0>         0.0973
     34 H7          0.9494    7.5578    0.5770 H         1 <0>         0.0667
     35 H8          1.5782    7.0066   -1.7540 H         1 <0>         0.0896
     36 H9          2.1776    5.4176   -1.2214 H         1 <0>         0.0770
     37 H10         4.9632    6.7714    0.6927 H         1 <0>         0.0855
     38 H11         4.1292    5.2820    0.1890 H         1 <0>         0.1103
     39 H12         3.0020    7.4155    2.0589 H         1 <0>         0.0653
     40 H13         3.6138    5.8169    2.5495 H         1 <0>         0.0858
     41 H14         5.7879    6.0526   -0.8440 H         1 <0>         0.1871
     42 H15         7.1793    6.2204   -2.8653 H         1 <0>         0.1932
     43 H16         4.2328    8.3631   -4.8568 H         1 <0>         0.1928
     44 H17         2.7397    8.2572   -2.9052 H         1 <0>         0.1821
     45 H18        -5.4252    4.8707    3.2778 H         1 <0>         0.1126
     46 H19        -4.7721    3.2290    3.4872 H         1 <0>         0.1012
     47 H20        -6.2507    4.9907    6.9975 H         1 <0>         0.0936
     48 H21        -5.9231    6.1081    5.6465 H         1 <0>         0.1119
     49 H22        -3.9165    4.5424    7.3140 H         1 <0>         0.0830
     50 H23        -4.0580    6.3060    7.1538 H         1 <0>         0.1025
     51 H24        -7.5487    2.0658    6.8917 H         1 <0>         0.4492
     52 H25        -5.8819    1.9610    3.7497 H         1 <0>         0.4381
     53 H26        -6.8778    1.0842    4.7802 H         1 <0>         0.4371
     54 N4          5.7995    7.3006   -3.9899 N.ar      1 <0>        -0.5179
     55 H27         6.4026    7.3596   -4.8187 H         1 <0>         0.4719
     56 O3          0.8534    3.5679    0.7739 O.co2     1 <0>        -0.7320
     57 N5         -7.0040    2.8904    6.6387 N.pl3     1 <0>        -0.8016
     58 H28        -6.9590    3.6921    7.2786 H         1 <0>         0.4510
@<TRIPOS>BOND
     1    1    6 ar
     2    1    2 ar
     3    1   28 1
     4    2    3 ar
     5    2   29 1
     6    3   25 1
     7    3    4 ar
     8    4    5 ar
     9    4   22 1
    10    5    6 ar
    11    5   30 1
    12    6    7 1
    13    7    8 1
    14    8    9 1
    15    8   31 1
    16    8   32 1
    17    9   14 1
    18    9   10 1
    19    9   20 1
    20   10   11 1
    21   10   33 1
    22   10   34 1
    23   11   12 1
    24   11   35 1
    25   11   36 1
    26   12   13 1
    27   12   15 1
    28   13   14 1
    29   13   37 1
    30   13   38 1
    31   14   39 1
    32   14   40 1
    33   15   19 ar
    34   15   16 ar
    35   16   17 ar
    36   16   41 1
    37   17   42 1
    38   17   54 ar
    39   18   19 ar
    40   18   43 1
    41   18   54 ar
    42   19   44 1
    43   20   21 2
    44   20   56 1
    45   22   23 1
    46   22   45 1
    47   22   46 1
    48   23   24 1
    49   23   26 1
    50   24   25 1
    51   24   47 1
    52   24   48 1
    53   25   49 1
    54   25   50 1
    55   26   27 1
    56   26   57 2
    57   27   52 1
    58   27   53 1
    59   51   57 1
    60   54   55 1
    61   57   58 1
@<TRIPOS>MOLECULE
ZINC64527030
   66    69     0     0     0
SMALL
USER_CHARGES

@<TRIPOS>ATOM
      1 C1         -0.9195    1.1543    0.1864 C.3       1 <0>        -0.1346
      2 C2          0.0610    0.0003   -0.0321 C.3       1 <0>         0.1396
      3 C3          0.8942   -0.1927    1.2087 C.ar      1 <0>        -0.0756
      4 C4          0.3154   -0.7361    2.3470 C.ar      1 <0>        -0.0387
      5 C5          1.0625   -0.9198    3.4909 C.ar      1 <0>        -0.1395
      6 C6          2.4029   -0.5585    3.5022 C.ar      1 <0>         0.0665
      7 C7          2.9885   -0.0089    2.3493 C.ar      1 <0>         0.0304
      8 C8          2.2128    0.1637    1.1998 C.ar      1 <0>        -0.0171
      9 N1          4.2886    0.2440    2.6483 N.2       1 <0>        -0.4467
     10 C9          4.5308   -0.1061    3.8778 C.2       1 <0>         0.2185
     11 N2          3.4039   -0.6073    4.4517 N.pl3     1 <0>        -0.4885
     12 C10         3.2761   -1.1058    5.8234 C.3       1 <0>         0.0792
     13 C11         5.8654    0.0241    4.5656 C.3       1 <0>         0.2003
     14 N3          5.9531    1.3330    5.2176 N.pl3     1 <0>        -0.7045
     15 C12         7.1008    1.6843    5.9208 C.ar      1 <0>         0.2924
     16 C13         8.1673    0.7934    5.9992 C.ar      1 <0>        -0.2015
     17 C14         9.3044    1.1385    6.6939 C.ar      1 <0>         0.0004
     18 C15         9.3873    2.3844    7.3208 C.ar      1 <0>        -0.2356
     19 C16         8.3151    3.2767    7.2404 C.ar      1 <0>        -0.0028
     20 C17         7.1826    2.9283    6.5398 C.ar      1 <0>        -0.1949
     21 C18        10.6057    2.7573    8.0673 C.cat     1 <0>         0.6039
     22 N4         10.6835    3.9461    8.6647 N.pl3     1 <0>        -0.7751
     23 N5         11.6276    1.9051    8.1435 N.pl3     1 <0>        -0.7748
     24 C19        -0.7072   -1.2632   -0.3229 C.2       1 <0>         0.5134
     25 O1         -0.8231   -2.1133    0.5343 O.2       1 <0>        -0.5415
     26 N6         -1.2653   -1.4485   -1.5356 N.am      1 <0>        -0.6138
     27 C20        -1.1493   -0.5341   -2.6810 C.3       1 <0>         0.0756
     28 C21        -1.9690   -1.1429   -3.8382 C.3       1 <0>        -0.1304
     29 C22        -2.9632   -2.0808   -3.1039 C.3       1 <0>        -0.1317
     30 C23        -2.0879   -2.6048   -1.9353 C.3       1 <0>         0.1041
     31 N7          0.9389    0.3120   -1.1679 N.3       1 <0>        -0.6490
     32 C24         1.7575   -0.8512   -1.5353 C.3       1 <0>        -0.0195
     33 C25         2.6431   -0.4941   -2.7012 C.2       1 <0>         0.4965
     34 O2          2.5966    0.6255   -3.1815 O.co2     1 <0>        -0.6812
     35 O3          3.4060   -1.3249   -3.1641 O.co2     1 <0>        -0.6999
     36 H1         -0.3723    2.0394    0.5108 H         1 <0>         0.0797
     37 H2         -1.4398    1.3706   -0.7467 H         1 <0>         0.0650
     38 H3         -1.6448    0.8751    0.9506 H         1 <0>         0.0639
     39 H4         -0.7274   -1.0166    2.3367 H         1 <0>         0.1397
     40 H5          0.6070   -1.3424    4.3743 H         1 <0>         0.1201
     41 H6          2.6542    0.5819    0.3072 H         1 <0>         0.1564
     42 H7          3.5008   -2.1722    5.8448 H         1 <0>         0.0750
     43 H8          3.9744   -0.5742    6.4697 H         1 <0>         0.0799
     44 H9          2.2578   -0.9420    6.1761 H         1 <0>         0.0867
     45 H10         5.9668   -0.7621    5.3138 H         1 <0>         0.0921
     46 H11         6.6640   -0.0695    3.8297 H         1 <0>         0.1103
     47 H12         5.2108    1.9548    5.1590 H         1 <0>         0.4164
     48 H13         8.1025   -0.1697    5.5147 H         1 <0>         0.1461
     49 H14        10.1315    0.4467    6.7547 H         1 <0>         0.1344
     50 H15         8.3764    4.2403    7.7243 H         1 <0>         0.1339
     51 H16         6.3553    3.6194    6.4736 H         1 <0>         0.1443
     52 H17         9.9398    4.5664    8.6093 H         1 <0>         0.4412
     53 H18        11.5710    1.0399    7.7087 H         1 <0>         0.4415
     54 H19        12.4279    2.1500    8.6338 H         1 <0>         0.4284
     55 H20        -1.5511    0.4440   -2.4166 H         1 <0>         0.0733
     56 H21        -0.1042   -0.4404   -2.9762 H         1 <0>         0.0920
     57 H22        -2.5036   -0.3649   -4.3832 H         1 <0>         0.0846
     58 H23        -1.3254   -1.7123   -4.5088 H         1 <0>         0.0805
     59 H24        -3.8239   -1.5243   -2.7328 H         1 <0>         0.0750
     60 H25        -3.2787   -2.8993   -3.7509 H         1 <0>         0.0836
     61 H26        -1.4526   -3.4241   -2.2718 H         1 <0>         0.0673
     62 H27        -2.7171   -2.9276   -1.1057 H         1 <0>         0.0760
     63 H28         0.4049    0.6423   -1.9577 H         1 <0>         0.3559
     64 H29         2.3751   -1.1436   -0.6861 H         1 <0>         0.0733
     65 H30         1.1067   -1.6800   -1.8138 H         1 <0>         0.0314
     66 H31        11.4838    4.1911    9.1551 H         1 <0>         0.4283
@<TRIPOS>BOND
     1    1    2 1
     2    1   36 1
     3    1   37 1
     4    1   38 1
     5    2    3 1
     6    2   24 1
     7    2   31 1
     8    3    8 ar
     9    3    4 ar
    10    4    5 ar
    11    4   39 1
    12    5    6 ar
    13    5   40 1
    14    6   11 1
    15    6    7 ar
    16    7    8 ar
    17    7    9 1
    18    8   41 1
    19    9   10 2
    20   10   11 1
    21   10   13 1
    22   11   12 1
    23   12   42 1
    24   12   43 1
    25   12   44 1
    26   13   14 1
    27   13   45 1
    28   13   46 1
    29   14   15 1
    30   14   47 1
    31   15   20 ar
    32   15   16 ar
    33   16   17 ar
    34   16   48 1
    35   17   18 ar
    36   17   49 1
    37   18   19 ar
    38   18   21 1
    39   19   20 ar
    40   19   50 1
    41   20   51 1
    42   21   22 2
    43   21   23 1
    44   22   52 1
    45   22   66 1
    46   23   53 1
    47   23   54 1
    48   24   25 2
    49   24   26 am
    50   26   30 1
    51   26   27 1
    52   27   28 1
    53   27   55 1
    54   27   56 1
    55   28   29 1
    56   28   57 1
    57   28   58 1
    58   29   30 1
    59   29   59 1
    60   29   60 1
    61   30   61 1
    62   30   62 1
    63   31   32 1
    64   31   63 1
    65   32   33 1
    66   32   64 1
    67   32   65 1
    68   33   34 2
    69   33   35 1
@<TRIPOS>MOLECULE
ZINC64527030
   67    70     0     0     0
SMALL
USER_CHARGES

@<TRIPOS>ATOM
      1 C1         -0.9195    1.1543    0.1864 C.3       1 <0>        -0.1399
      2 C2          0.0610    0.0003   -0.0321 C.3       1 <0>         0.1259
      3 C3          0.8942   -0.1927    1.2087 C.ar      1 <0>        -0.0158
      4 C4          0.3154   -0.7361    2.3470 C.ar      1 <0>        -0.0147
      5 C5          1.0625   -0.9198    3.4909 C.ar      1 <0>        -0.1084
      6 C6          2.4029   -0.5585    3.5022 C.ar      1 <0>         0.0835
      7 C7          2.9885   -0.0089    2.3493 C.ar      1 <0>         0.0428
      8 C8          2.2128    0.1637    1.1998 C.ar      1 <0>        -0.0444
      9 N1          4.2886    0.2440    2.6483 N.pl3     1 <0>        -0.4610
     10 C9          4.5308   -0.1061    3.8778 C.cat     1 <0>         0.3294
     11 N2          3.4039   -0.6073    4.4517 N.pl3     1 <0>        -0.4128
     12 C10         3.2761   -1.1058    5.8234 C.3       1 <0>         0.0580
     13 C11         5.8654    0.0241    4.5656 C.3       1 <0>         0.1699
     14 N3          5.9072    1.2814    5.3164 N.pl3     1 <0>        -0.7312
     15 C12         7.0465    1.6232    6.0377 C.ar      1 <0>         0.2765
     16 C13         8.1481    0.7723    6.0406 C.ar      1 <0>        -0.1953
     17 C14         9.2768    1.1081    6.7531 C.ar      1 <0>        -0.0019
     18 C15         9.3162    2.3044    7.4739 C.ar      1 <0>        -0.2107
     19 C16         8.2089    3.1565    7.4692 C.ar      1 <0>        -0.0044
     20 C17         7.0848    2.8180    6.7506 C.ar      1 <0>        -0.1813
     21 C18        10.5257    2.6672    8.2397 C.cat     1 <0>         0.6023
     22 N4         10.5618    3.8086    8.9268 N.pl3     1 <0>        -0.7672
     23 N5         11.5810    1.8533    8.2437 N.pl3     1 <0>        -0.7673
     24 C19        -0.7072   -1.2632   -0.3229 C.2       1 <0>         0.5127
     25 O1         -0.8231   -2.1133    0.5343 O.2       1 <0>        -0.5466
     26 N6         -1.2653   -1.4485   -1.5356 N.am      1 <0>        -0.6066
     27 C20        -1.1493   -0.5341   -2.6810 C.3       1 <0>         0.0729
     28 C21        -1.9690   -1.1429   -3.8382 C.3       1 <0>        -0.1313
     29 C22        -2.9632   -2.0808   -3.1039 C.3       1 <0>        -0.1328
     30 C23        -2.0879   -2.6048   -1.9353 C.3       1 <0>         0.1032
     31 N7          0.9389    0.3120   -1.1679 N.3       1 <0>        -0.6529
     32 C24         1.7575   -0.8512   -1.5353 C.3       1 <0>        -0.0252
     33 C25         2.6431   -0.4941   -2.7012 C.2       1 <0>         0.4925
     34 O2          2.5966    0.6255   -3.1815 O.co2     1 <0>        -0.6756
     35 O3          3.4060   -1.3249   -3.1641 O.co2     1 <0>        -0.6923
     36 H1         -0.3723    2.0394    0.5108 H         1 <0>         0.0825
     37 H2         -1.4398    1.3706   -0.7467 H         1 <0>         0.0762
     38 H3         -1.6448    0.8751    0.9506 H         1 <0>         0.0702
     39 H4         -0.7274   -1.0166    2.3367 H         1 <0>         0.1655
     40 H5          0.6070   -1.3424    4.3743 H         1 <0>         0.1514
     41 H6          2.6542    0.5819    0.3072 H         1 <0>         0.1780
     42 H7          3.5012   -2.1721    5.8449 H         1 <0>         0.1097
     43 H8          3.9741   -0.5739    6.4698 H         1 <0>         0.1063
     44 H9          2.2577   -0.9424    6.1759 H         1 <0>         0.1181
     45 H10         6.0045   -0.8127    5.2501 H         1 <0>         0.1267
     46 H11         6.6604    0.0196    3.8199 H         1 <0>         0.1277
     47 H12         5.1405    1.8755    5.3105 H         1 <0>         0.4181
     48 H13         8.1169   -0.1524    5.4835 H         1 <0>         0.1465
     49 H14        10.1312    0.4474    6.7552 H         1 <0>         0.1407
     50 H15         8.2365    4.0816    8.0257 H         1 <0>         0.1407
     51 H16         6.2303    3.4784    6.7429 H         1 <0>         0.1479
     52 H17         9.7938    4.4010    8.9239 H         1 <0>         0.4426
     53 H18        11.5547    1.0225    7.7436 H         1 <0>         0.4424
     54 H19        12.3754    2.0916    8.7467 H         1 <0>         0.4333
     55 H20        -1.5511    0.4440   -2.4166 H         1 <0>         0.0761
     56 H21        -0.1042   -0.4404   -2.9762 H         1 <0>         0.0920
     57 H22        -2.5036   -0.3649   -4.3832 H         1 <0>         0.0886
     58 H23        -1.3254   -1.7123   -4.5088 H         1 <0>         0.0830
     59 H24        -3.8239   -1.5243   -2.7328 H         1 <0>         0.0777
     60 H25        -3.2787   -2.8993   -3.7509 H         1 <0>         0.0884
     61 H26        -1.4526   -3.4241   -2.2718 H         1 <0>         0.0718
     62 H27        -2.7171   -2.9276   -1.1057 H         1 <0>         0.0799
     63 H28         0.4049    0.6423   -1.9577 H         1 <0>         0.3671
     64 H29         2.3751   -1.1436   -0.6861 H         1 <0>         0.0655
     65 H30         1.1067   -1.6800   -1.8138 H         1 <0>         0.0395
     66 H31        11.3563    4.0469    9.4298 H         1 <0>         0.4332
     67 H32         4.9381    0.6271    2.0381 H         1 <0>         0.4628
@<TRIPOS>BOND
     1    1    2 1
     2    1   36 1
     3    1   37 1
     4    1   38 1
     5    2    3 1
     6    2   24 1
     7    2   31 1
     8    3    8 ar
     9    3    4 ar
    10    4    5 ar
    11    4   39 1
    12    5    6 ar
    13    5   40 1
    14    6   11 1
    15    6    7 ar
    16    7    8 ar
    17    7    9 1
    18    8   41 1
    19    9   10 2
    20    9   67 1
    21   10   11 1
    22   10   13 1
    23   11   12 1
    24   12   42 1
    25   12   43 1
    26   12   44 1
    27   13   14 1
    28   13   45 1
    29   13   46 1
    30   14   15 1
    31   14   47 1
    32   15   20 ar
    33   15   16 ar
    34   16   17 ar
    35   16   48 1
    36   17   18 ar
    37   17   49 1
    38   18   19 ar
    39   18   21 1
    40   19   20 ar
    41   19   50 1
    42   20   51 1
    43   21   22 2
    44   21   23 1
    45   22   52 1
    46   22   66 1
    47   23   53 1
    48   23   54 1
    49   24   25 2
    50   24   26 am
    51   26   30 1
    52   26   27 1
    53   27   28 1
    54   27   55 1
    55   27   56 1
    56   28   29 1
    57   28   57 1
    58   28   58 1
    59   29   30 1
    60   29   59 1
    61   29   60 1
    62   30   61 1
    63   30   62 1
    64   31   32 1
    65   31   63 1
    66   32   33 1
    67   32   64 1
    68   32   65 1
    69   33   34 2
    70   33   35 1
@<TRIPOS>MOLECULE
ZINC06717042
   70    73     0     0     0
SMALL
USER_CHARGES
4-[(3-amidinophenyl)aminomethyl]-3-[4-(4-methyl-1,4-diazepan-1-yl)benzoyl]amino-benzoic acid
@<TRIPOS>ATOM
      1 C1        -11.3898   -2.7850   -1.7528 C.3       1 <0>        -0.0460
      2 C2         -9.5290   -4.2502   -1.2054 C.3       1 <0>        -0.0005
      3 C3         -8.0735   -4.3235   -0.7173 C.3       1 <0>        -0.1436
      4 C4         -7.1529   -3.4646   -1.5473 C.3       1 <0>         0.0412
      5 N1         -7.0520   -2.1334   -0.9106 N.pl3     1 <0>        -0.4984
      6 C5         -8.1348   -1.2879   -1.1804 C.3       1 <0>         0.0303
      7 C6         -9.4647   -1.8621   -0.6517 C.3       1 <0>        -0.0068
      8 C7         -5.8470   -1.5178   -1.2310 C.ar      1 <0>         0.1225
      9 C8         -5.8385   -0.2011   -1.6834 C.ar      1 <0>        -0.1745
     10 C9         -4.6478    0.4108   -2.0018 C.ar      1 <0>        -0.0225
     11 C10        -3.4458   -0.2913   -1.8707 C.ar      1 <0>        -0.1381
     12 C11        -3.4584   -1.6151   -1.4217 C.ar      1 <0>        -0.0587
     13 C12        -4.6519   -2.2195   -1.0994 C.ar      1 <0>        -0.1458
     14 C13        -2.1678    0.3617   -2.2110 C.2       1 <0>         0.5436
     15 O1         -2.1588    1.5117   -2.6061 O.2       1 <0>        -0.4883
     16 N2         -1.0100   -0.3164   -2.0841 N.am      1 <0>        -0.6653
     17 C14         0.2078    0.3269   -2.3294 C.ar      1 <0>         0.1352
     18 C15         0.2908    1.3030   -3.3104 C.ar      1 <0>        -0.0862
     19 C16         1.5075    1.9418   -3.5508 C.ar      1 <0>        -0.0734
     20 C17         2.6336    1.5933   -2.8018 C.ar      1 <0>        -0.0867
     21 C18         2.5401    0.6206   -1.8278 C.ar      1 <0>        -0.0968
     22 C19         1.3341   -0.0122   -1.5894 C.ar      1 <0>        -0.1568
     23 C20         1.2409   -1.0736   -0.5237 C.3       1 <0>         0.1665
     24 N3          1.2955   -2.3981   -1.1475 N.pl3     1 <0>        -0.7300
     25 C21         1.2263   -3.5466   -0.3552 C.ar      1 <0>         0.2307
     26 C22         1.1054   -3.4330    1.0249 C.ar      1 <0>        -0.1358
     27 C23         1.0361   -4.5666    1.8121 C.ar      1 <0>        -0.0631
     28 C24         1.0870   -5.8188    1.2331 C.ar      1 <0>        -0.1225
     29 C25         1.2081   -5.9431   -0.1508 C.ar      1 <0>        -0.1065
     30 C26         1.2723   -4.8003   -0.9460 C.ar      1 <0>        -0.1569
     31 C27         1.2623   -7.2855   -0.7739 C.cat     1 <0>         0.5997
     32 N4          1.1930   -8.4139    0.0137 N.pl3     1 <0>        -0.7819
     33 C28         1.6046    2.9827   -4.5948 C.2       1 <0>         0.4825
     34 O2          0.6241    3.2838   -5.2455 O.co2     1 <0>        -0.6200
     35 H1        -11.6537   -1.7809   -2.0852 H         1 <0>         0.1240
     36 H2        -11.7075   -3.5107   -2.5015 H         1 <0>         0.1202
     37 H3        -11.8879   -2.9972   -0.8068 H         1 <0>         0.1272
     38 H4        -10.1851   -4.6130   -0.4141 H         1 <0>         0.1336
     39 H5         -9.6398   -4.8943   -2.0778 H         1 <0>         0.1231
     40 H6         -8.0305   -3.9895    0.3194 H         1 <0>         0.1045
     41 H7         -7.7340   -5.3579   -0.7700 H         1 <0>         0.1161
     42 H8         -7.5583   -3.3595   -2.5536 H         1 <0>         0.0546
     43 H9         -6.1656   -3.9244   -1.5933 H         1 <0>         0.1122
     44 H10        -7.9548   -0.3210   -0.7104 H         1 <0>         0.1313
     45 H11        -8.2138   -1.1467   -2.2583 H         1 <0>         0.0599
     46 H12        -9.3054   -2.3069    0.3307 H         1 <0>         0.1441
     47 H13       -10.2027   -1.0637   -0.5759 H         1 <0>         0.1413
     48 H14        -6.7673    0.3404   -1.7847 H         1 <0>         0.1361
     49 H15        -4.6418    1.4321   -2.3529 H         1 <0>         0.1477
     50 H16        -2.5319   -2.1616   -1.3239 H         1 <0>         0.1270
     51 H17        -4.6619   -3.2409   -0.7486 H         1 <0>         0.1322
     52 H18        -1.0210   -1.2504   -1.8227 H         1 <0>         0.3992
     53 H19        -0.5824    1.5648   -3.8896 H         1 <0>         0.1480
     54 H20         3.5774    2.0853   -2.9847 H         1 <0>         0.1395
     55 H21         3.4121    0.3521   -1.2499 H         1 <0>         0.1251
     56 H22         2.0734   -0.9647    0.1714 H         1 <0>         0.0805
     57 H23         0.3002   -0.9648    0.0161 H         1 <0>         0.0709
     58 H24         1.3799   -2.4774   -2.1105 H         1 <0>         0.4086
     59 H25         1.0652   -2.4559    1.4833 H         1 <0>         0.1429
     60 H26         0.9416   -4.4726    2.8839 H         1 <0>         0.1446
     61 H27         1.0325   -6.7023    1.8517 H         1 <0>         0.1309
     62 H28         1.3614   -4.8909   -2.0184 H         1 <0>         0.1309
     63 H29         1.4191   -8.2349   -2.5679 H         1 <0>         0.4422
     64 H30         1.1086   -8.3292    0.9762 H         1 <0>         0.4432
     65 H31         1.2283   -9.2932   -0.3945 H         1 <0>         0.4294
     66 N5         -9.9342   -2.8673   -1.6229 N.4       1 <0>        -0.4015
     67 H32        -9.5093   -2.6645   -2.5353 H         1 <0>         0.4242
     68 N6          1.3777   -7.3335   -2.0920 N.pl3     1 <0>        -0.7598
     69 H33         1.4255   -6.4635   -2.6351 H         1 <0>         0.4609
     70 O3          2.7807    3.5981   -4.8248 O.co2     1 <0>        -0.7422
@<TRIPOS>BOND
     1    1   35 1
     2    1   36 1
     3    1   37 1
     4    1   66 1
     5    2    3 1
     6    2   38 1
     7    2   39 1
     8    2   66 1
     9    3    4 1
    10    3   40 1
    11    3   41 1
    12    4    5 1
    13    4   42 1
    14    4   43 1
    15    5    6 1
    16    5    8 1
    17    6    7 1
    18    6   44 1
    19    6   45 1
    20    7   46 1
    21    7   47 1
    22    7   66 1
    23    8   13 ar
    24    8    9 ar
    25    9   10 ar
    26    9   48 1
    27   10   11 ar
    28   10   49 1
    29   11   12 ar
    30   11   14 1
    31   12   13 ar
    32   12   50 1
    33   13   51 1
    34   14   15 2
    35   14   16 am
    36   16   17 1
    37   16   52 1
    38   17   22 ar
    39   17   18 ar
    40   18   19 ar
    41   18   53 1
    42   19   20 ar
    43   19   33 1
    44   20   21 ar
    45   20   54 1
    46   21   22 ar
    47   21   55 1
    48   22   23 1
    49   23   24 1
    50   23   56 1
    51   23   57 1
    52   24   25 1
    53   24   58 1
    54   25   30 ar
    55   25   26 ar
    56   26   27 ar
    57   26   59 1
    58   27   28 ar
    59   27   60 1
    60   28   29 ar
    61   28   61 1
    62   29   30 ar
    63   29   31 1
    64   30   62 1
    65   31   32 1
    66   31   68 2
    67   32   64 1
    68   32   65 1
    69   33   34 2
    70   33   70 1
    71   63   68 1
    72   66   67 1
    73   68   69 1
@<TRIPOS>MOLECULE
ZINC35975467
   72    76     0     0     0
SMALL
USER_CHARGES

@<TRIPOS>ATOM
      1 C1          0.3761    1.6452   -0.3595 C.3       1 <0>        -0.1501
      2 C2          0.3118    0.1200   -0.2565 C.3       1 <0>        -0.6245
      3 S1          0.9930   -0.6173   -1.7674 S.o2      1 <0>         2.5988
      4 O1          0.1433   -0.3419   -2.8726 O.2       1 <0>        -0.9290
      5 O2          2.3896   -0.3673   -1.8474 O.2       1 <0>        -0.9363
      6 N1          0.8691   -2.2524   -1.5363 N.pl3     1 <0>        -0.9348
      7 C3          1.8491   -3.0549   -0.9432 C.ar      1 <0>         0.1250
      8 C4          3.0971   -2.6932   -0.4318 C.ar      1 <0>        -0.1069
      9 C5          3.9272   -3.6461    0.1183 C.ar      1 <0>        -0.1747
     10 C6          3.5280   -4.9737    0.1678 C.ar      1 <0>         0.1071
     11 C7          2.2897   -5.3383   -0.3381 C.ar      1 <0>        -0.1021
     12 C8          1.4574   -4.3829   -0.8896 C.ar      1 <0>        -0.0839
     13 C9          0.0804   -4.5038   -1.5029 C.3       1 <0>        -0.0764
     14 C10        -0.2860   -3.0695   -1.9175 C.3       1 <0>         0.1863
     15 H1         -1.1771   -2.7359   -1.3858 H         1 <0>         0.1081
     16 C11        -0.5074   -2.9993   -3.4065 C.ar      1 <0>        -0.0804
     17 C12         0.5897   -3.0203   -4.2657 C.ar      1 <0>        -0.0670
     18 C13         0.4246   -2.9584   -5.6155 C.ar      1 <0>        -0.1061
     19 C14        -0.8694   -2.8725   -6.1557 C.ar      1 <0>        -0.0085
     20 C15        -1.0724   -2.8077   -7.5464 C.ar      1 <0>        -0.0794
     21 C16        -2.3320   -2.7250   -8.0455 C.ar      1 <0>        -0.0938
     22 C17        -3.4470   -2.7033   -7.1892 C.ar      1 <0>        -0.1557
     23 C18        -3.2803   -2.7661   -5.8165 C.ar      1 <0>        -0.0157
     24 C19        -1.9859   -2.8515   -5.2819 C.ar      1 <0>        -0.0597
     25 C20        -1.7761   -2.9219   -3.8929 C.ar      1 <0>        -0.0719
     26 C21        -4.8086   -2.6121   -7.7596 C.cat     1 <0>         0.6017
     27 N2         -5.0059   -1.9782   -8.9141 N.pl3     1 <0>        -0.7570
     28 N3         -5.8373   -3.1640   -7.1187 N.pl3     1 <0>        -0.7613
     29 O3          4.3479   -5.9136    0.7098 O.3       1 <0>        -0.2996
     30 C22         5.5504   -5.4481    1.3258 C.3       1 <0>         0.0839
     31 C23         6.6317   -5.2640    0.2587 C.3       1 <0>        -0.1690
     32 C24         7.9084   -4.7321    0.9175 C.3       1 <0>         0.0866
     33 N4          8.2880   -5.6364    2.0115 N.pl3     1 <0>        -0.5588
     34 C25         7.2918   -5.9534    3.0439 C.3       1 <0>         0.0967
     35 C26         6.0221   -6.4716    2.3613 C.3       1 <0>        -0.1364
     36 C27         9.5468   -6.1741    2.0677 C.cat     1 <0>         0.5284
     37 N5         10.4158   -5.8826    1.1553 N.pl3     1 <0>        -0.7390
     38 C28         9.9189   -7.1053    3.1927 C.3       1 <0>        -0.1675
     39 H2          1.4132    1.9578   -0.4807 H         1 <0>         0.0752
     40 H3         -0.2060    1.9761   -1.2197 H         1 <0>         0.0750
     41 H4         -0.0333    2.0882    0.5484 H         1 <0>         0.0911
     42 H5          0.8939   -0.2109    0.6036 H         1 <0>         0.1348
     43 H6         -0.7253   -0.1926   -0.1354 H         1 <0>         0.1347
     44 H7          3.4137   -1.6613   -0.4677 H         1 <0>         0.1480
     45 H8          4.8911   -3.3586    0.5114 H         1 <0>         0.1342
     46 H9          1.9754   -6.3709   -0.3018 H         1 <0>         0.1389
     47 H10         0.1081   -5.1598   -2.3730 H         1 <0>         0.1009
     48 H11        -0.6321   -4.8767   -0.7671 H         1 <0>         0.1051
     49 H12         1.5861   -3.0863   -3.8543 H         1 <0>         0.1295
     50 H13         1.2848   -2.9750   -6.2684 H         1 <0>         0.1418
     51 H14        -0.2259   -2.8233   -8.2170 H         1 <0>         0.1488
     52 H15        -2.4797   -2.6749   -9.1142 H         1 <0>         0.1381
     53 H16        -4.1395   -2.7488   -5.1624 H         1 <0>         0.1447
     54 H17        -2.6173   -2.9109   -3.2157 H         1 <0>         0.1415
     55 H18        -4.2566   -1.5762   -9.3809 H         1 <0>         0.4471
     56 H19        -5.6937   -3.6257   -6.2778 H         1 <0>         0.4450
     57 H20        -6.7303   -3.1042   -7.4928 H         1 <0>         0.4337
     58 H21         5.3604   -4.4944    1.8183 H         1 <0>         0.0852
     59 H22         6.8400   -6.2223   -0.2173 H         1 <0>         0.0912
     60 H23         6.2856   -4.5525   -0.4911 H         1 <0>         0.1051
     61 H24         8.7107   -4.6930    0.1807 H         1 <0>         0.0964
     62 H25         7.7257   -3.7339    1.3152 H         1 <0>         0.1122
     63 H26         7.6873   -6.7200    3.7102 H         1 <0>         0.1206
     64 H27         7.0588   -5.0547    3.6151 H         1 <0>         0.1093
     65 H28         5.2420   -6.6196    3.1081 H         1 <0>         0.1107
     66 H29         6.2361   -7.4185    1.8655 H         1 <0>         0.0910
     67 H30        10.1622   -5.3221    0.4054 H         1 <0>         0.4259
     68 H31         9.6910   -8.1317    2.9052 H         1 <0>         0.1358
     69 H32        10.9848   -7.0147    3.4018 H         1 <0>         0.1248
     70 H33         9.3501   -6.8430    4.0847 H         1 <0>         0.1238
     71 H34        11.3212   -6.2245    1.2210 H         1 <0>         0.4492
     72 H35        -5.8988   -1.9184   -9.2882 H         1 <0>         0.4335
@<TRIPOS>BOND
     1    1    2 1
     2    1   39 1
     3    1   40 1
     4    1   41 1
     5    2    3 1
     6    2   42 1
     7    2   43 1
     8    3    4 2
     9    3    5 2
    10    3    6 1
    11    6   14 1
    12    6    7 1
    13    7   12 ar
    14    7    8 ar
    15    8    9 ar
    16    8   44 1
    17    9   10 ar
    18    9   45 1
    19   10   11 ar
    20   10   29 1
    21   11   12 ar
    22   11   46 1
    23   12   13 1
    24   13   14 1
    25   13   47 1
    26   13   48 1
    27   14   15 1
    28   14   16 1
    29   16   25 ar
    30   16   17 ar
    31   17   18 ar
    32   17   49 1
    33   18   19 ar
    34   18   50 1
    35   19   24 ar
    36   19   20 ar
    37   20   21 ar
    38   20   51 1
    39   21   22 ar
    40   21   52 1
    41   22   23 ar
    42   22   26 1
    43   23   24 ar
    44   23   53 1
    45   24   25 ar
    46   25   54 1
    47   26   27 2
    48   26   28 1
    49   27   55 1
    50   27   72 1
    51   28   56 1
    52   28   57 1
    53   29   30 1
    54   30   35 1
    55   30   31 1
    56   30   58 1
    57   31   32 1
    58   31   59 1
    59   31   60 1
    60   32   33 1
    61   32   61 1
    62   32   62 1
    63   33   34 1
    64   33   36 1
    65   34   35 1
    66   34   63 1
    67   34   64 1
    68   35   65 1
    69   35   66 1
    70   36   37 2
    71   36   38 1
    72   37   67 1
    73   37   71 1
    74   38   68 1
    75   38   69 1
    76   38   70 1
@<TRIPOS>MOLECULE
ZINC36410989
   67    71     0     0     0
SMALL
USER_CHARGES

@<TRIPOS>ATOM
      1 C1         -0.6447    0.8861   -1.7990 C.3       1 <0>         0.0239
      2 N1         -0.5070   -0.5612   -1.5881 N.3       1 <0>        -0.5425
      3 C2          0.2807   -1.1771   -2.6636 C.3       1 <0>         0.0561
      4 C3          0.2807   -2.6977   -2.4910 C.3       1 <0>        -0.1119
      5 C4          0.8799   -3.0517   -1.1271 C.3       1 <0>         0.0860
      6 C5          0.0705   -2.3588   -0.0275 C.3       1 <0>        -0.1101
      7 C6          0.0766   -0.8480   -0.2715 C.3       1 <0>         0.0560
      8 N2          0.8291   -4.5067   -0.9313 N.3       1 <0>        -0.5296
      9 C7          1.5039   -5.2097   -2.0305 C.3       1 <0>         0.0368
     10 C8          1.2736   -6.7178   -1.8856 C.3       1 <0>         0.1181
     11 N3          1.6918   -7.1268   -0.5362 N.am      1 <0>        -0.6043
     12 C9          1.1624   -6.3775    0.6134 C.3       1 <0>         0.1059
     13 C10         1.3972   -4.8829    0.3702 C.3       1 <0>         0.0352
     14 C11         2.5374   -8.1610   -0.3577 C.2       1 <0>         0.5229
     15 O1          2.8907   -8.8264   -1.3082 O.2       1 <0>        -0.5307
     16 C12         3.0438   -8.4907    1.0228 C.3       1 <0>         0.1734
     17 H1          3.1676   -7.5705    1.5937 H         1 <0>         0.1169
     18 C13         2.0526   -9.3856    1.7211 C.ar      1 <0>        -0.1023
     19 C14         1.9304  -10.7095    1.3425 C.ar      1 <0>        -0.0933
     20 C15         1.0212  -11.5305    1.9830 C.ar      1 <0>        -0.1192
     21 C16         0.2345  -11.0277    3.0024 C.ar      1 <0>        -0.1104
     22 C17         0.3574   -9.7040    3.3816 C.ar      1 <0>        -0.1182
     23 C18         1.2696   -8.8842    2.7439 C.ar      1 <0>        -0.0980
     24 N4          4.3334   -9.1779    0.9186 N.am      1 <0>        -0.7093
     25 C19         5.2075   -9.1296    1.9434 C.2       1 <0>         0.5706
     26 O2          4.9257   -8.5157    2.9544 O.2       1 <0>        -0.5335
     27 C20         6.5066   -9.8219    1.8385 C.ar      1 <0>        -0.1220
     28 C21         6.8303  -10.5242    0.6686 C.ar      1 <0>        -0.1137
     29 C22         8.0259  -11.1675    0.5600 C.ar      1 <0>        -0.0763
     30 C23         8.9388  -11.1290    1.6195 C.ar      1 <0>        -0.0827
     31 C24        10.2719  -11.6930    1.8290 C.2       1 <0>        -0.2108
     32 C25        10.6686  -11.3199    3.0583 C.2       1 <0>         0.0646
     33 N5          9.6988  -10.5638    3.6521 N.pl3     1 <0>        -0.5909
     34 H2          9.7575  -10.1801    4.5411 H         1 <0>         0.4189
     35 C26         8.6247  -10.4263    2.7996 C.ar      1 <0>         0.0793
     36 C27         7.4072   -9.7697    2.8997 C.ar      1 <0>        -0.0544
     37 H3          0.3369    1.3566   -1.7417 H         1 <0>         0.0247
     38 H4         -1.0792    1.0704   -2.7815 H         1 <0>         0.0695
     39 H5         -1.2938    1.3051   -1.0302 H         1 <0>         0.0698
     40 H6         -0.1585   -0.9210   -3.6278 H         1 <0>         0.0788
     41 H7          1.3050   -0.8068   -2.6214 H         1 <0>         0.0314
     42 H8         -0.7421   -3.0703   -2.5469 H         1 <0>         0.0841
     43 H9          0.8784   -3.1535   -3.2804 H         1 <0>         0.0685
     44 H10         1.9153   -2.7135   -1.0853 H         1 <0>         0.0378
     45 H11        -0.9556   -2.7261   -0.0446 H         1 <0>         0.0839
     46 H12         0.5180   -2.5724    0.9432 H         1 <0>         0.0679
     47 H13         1.1018   -0.4792   -0.2405 H         1 <0>         0.0314
     48 H14        -0.5108   -0.3529    0.5018 H         1 <0>         0.0789
     49 H15         1.0981   -4.8697   -2.9833 H         1 <0>         0.0956
     50 H16         2.5730   -5.0000   -1.9945 H         1 <0>         0.0384
     51 H17         0.2159   -6.9416   -2.0248 H         1 <0>         0.0798
     52 H18         1.8647   -7.2516   -2.6297 H         1 <0>         0.0973
     53 H19         0.0941   -6.5687    0.7145 H         1 <0>         0.0865
     54 H20         1.6800   -6.6864    1.5216 H         1 <0>         0.0898
     55 H21         2.4677   -4.6777    0.3728 H         1 <0>         0.0397
     56 H22         0.9138   -4.3057    1.1585 H         1 <0>         0.0954
     57 H23         2.5451  -11.1024    0.5460 H         1 <0>         0.1224
     58 H24         0.9253  -12.5646    1.6867 H         1 <0>         0.1247
     59 H25        -0.4763  -11.6689    3.5023 H         1 <0>         0.1242
     60 H26        -0.2575   -9.3111    4.1778 H         1 <0>         0.1263
     61 H27         1.3682   -7.8510    3.0427 H         1 <0>         0.1241
     62 H28         4.5582   -9.6677    0.1121 H         1 <0>         0.4111
     63 H29         6.1274  -10.5555   -0.1508 H         1 <0>         0.1266
     64 H30         8.2690  -11.7072   -0.3434 H         1 <0>         0.1305
     65 H31        10.8315  -12.2956    1.1289 H         1 <0>         0.1506
     66 H32        11.6148  -11.5799    3.5096 H         1 <0>         0.1748
     67 H33         7.1570   -9.2241    3.7975 H         1 <0>         0.1350
@<TRIPOS>BOND
     1    1    2 1
     2    1   37 1
     3    1   38 1
     4    1   39 1
     5    2    7 1
     6    2    3 1
     7    3    4 1
     8    3   40 1
     9    3   41 1
    10    4    5 1
    11    4   42 1
    12    4   43 1
    13    5    6 1
    14    5    8 1
    15    5   44 1
    16    6    7 1
    17    6   45 1
    18    6   46 1
    19    7   47 1
    20    7   48 1
    21    8   13 1
    22    8    9 1
    23    9   10 1
    24    9   49 1
    25    9   50 1
    26   10   11 1
    27   10   51 1
    28   10   52 1
    29   11   12 1
    30   11   14 am
    31   12   13 1
    32   12   53 1
    33   12   54 1
    34   13   55 1
    35   13   56 1
    36   14   15 2
    37   14   16 1
    38   16   17 1
    39   16   18 1
    40   16   24 1
    41   18   23 ar
    42   18   19 ar
    43   19   20 ar
    44   19   57 1
    45   20   21 ar
    46   20   58 1
    47   21   22 ar
    48   21   59 1
    49   22   23 ar
    50   22   60 1
    51   23   61 1
    52   24   25 am
    53   24   62 1
    54   25   26 2
    55   25   27 1
    56   27   36 ar
    57   27   28 ar
    58   28   29 ar
    59   28   63 1
    60   29   30 ar
    61   29   64 1
    62   30   35 ar
    63   30   31 1
    64   31   32 2
    65   31   65 1
    66   32   33 1
    67   32   66 1
    68   33   34 1
    69   33   35 1
    70   35   36 ar
    71   36   67 1
@<TRIPOS>MOLECULE
ZINC36410989
   68    72     0     0     0
SMALL
USER_CHARGES

@<TRIPOS>ATOM
      1 C1         -0.5597    0.8668   -1.8157 C.3       1 <0>        -0.0473
      2 N1         -0.4295   -0.5817   -1.6083 N.4       1 <0>        -0.3851
      3 C2          0.4418   -1.1466   -2.6457 C.3       1 <0>        -0.0039
      4 C3          0.5158   -2.6663   -2.4829 C.3       1 <0>        -0.1464
      5 C4          1.0839   -2.9990   -1.1002 C.3       1 <0>         0.0718
      6 C5          0.2092   -2.3425   -0.0283 C.3       1 <0>        -0.1448
      7 C6          0.1464   -0.8347   -0.2821 C.3       1 <0>        -0.0042
      8 N2          1.0867   -4.4553   -0.9077 N.3       1 <0>        -0.5283
      9 C7          1.8258   -5.1273   -1.9848 C.3       1 <0>         0.0360
     10 C8          1.6532   -6.6439   -1.8492 C.3       1 <0>         0.1169
     11 N3          2.0432   -7.0386   -0.4871 N.am      1 <0>        -0.6098
     12 C9          1.4458   -6.3146    0.6452 C.3       1 <0>         0.1053
     13 C10         1.6266   -4.8110    0.4114 C.3       1 <0>         0.0341
     14 C11         2.9244   -8.0376   -0.2819 C.2       1 <0>         0.5244
     15 O1          3.3360   -8.6855   -1.2209 O.2       1 <0>        -0.5216
     16 C12         3.3983   -8.3494    1.1142 C.3       1 <0>         0.1761
     17 H1          3.4651   -7.4263    1.6899 H         1 <0>         0.1153
     18 C13         2.4224   -9.2862    1.7784 C.ar      1 <0>        -0.1069
     19 C14         2.3675  -10.6130    1.3946 C.ar      1 <0>        -0.0927
     20 C15         1.4723  -11.4723    2.0039 C.ar      1 <0>        -0.1167
     21 C16         0.6323  -11.0048    2.9973 C.ar      1 <0>        -0.1077
     22 C17         0.6879   -9.6781    3.3817 C.ar      1 <0>        -0.1184
     23 C18         1.5861   -8.8199    2.7754 C.ar      1 <0>        -0.1000
     24 N4          4.7179   -8.9827    1.0519 N.am      1 <0>        -0.7119
     25 C19         5.5549   -8.9010    2.1051 C.2       1 <0>         0.5732
     26 O2          5.2149   -8.3016    3.1069 O.2       1 <0>        -0.5343
     27 C20         6.8842   -9.5389    2.0424 C.ar      1 <0>        -0.1267
     28 C21         7.2750  -10.2244    0.8831 C.ar      1 <0>        -0.1151
     29 C22         8.4991  -10.8176    0.8133 C.ar      1 <0>        -0.0752
     30 C23         9.3742  -10.7442    1.9025 C.ar      1 <0>        -0.0808
     31 C24        10.7218  -11.2532    2.1552 C.2       1 <0>        -0.2107
     32 C25        11.0621  -10.8671    3.3974 C.2       1 <0>         0.0675
     33 N5         10.0429  -10.1530    3.9597 N.pl3     1 <0>        -0.5903
     34 H2         10.0564   -9.7694    4.8505 H         1 <0>         0.4196
     35 C26         8.9927  -10.0578    3.0723 C.ar      1 <0>         0.0788
     36 C27         7.7465   -9.4522    3.1328 C.ar      1 <0>        -0.0527
     37 H3          0.4235    1.3329   -1.7509 H         1 <0>         0.1212
     38 H4         -0.9873    1.0559   -2.8003 H         1 <0>         0.1245
     39 H5         -1.2118    1.2863   -1.0496 H         1 <0>         0.1246
     40 H6          0.0379   -0.9063   -3.6292 H         1 <0>         0.1343
     41 H7          1.4413   -0.7223   -2.5508 H         1 <0>         0.1276
     42 H8         -0.4832   -3.0917   -2.5779 H         1 <0>         0.1007
     43 H9          1.1646   -3.0837   -3.2530 H         1 <0>         0.1133
     44 H10         2.1023   -2.6181   -1.0232 H         1 <0>         0.0597
     45 H11        -0.7963   -2.7611   -0.0724 H         1 <0>         0.1006
     46 H12         0.6387   -2.5283    0.9561 H         1 <0>         0.1128
     47 H13         1.1523   -0.4171   -0.2375 H         1 <0>         0.1275
     48 H14        -0.4754   -0.3642    0.4794 H         1 <0>         0.1344
     49 H15         1.4379   -4.8019   -2.9501 H         1 <0>         0.0944
     50 H16         2.8835   -4.8738   -1.9132 H         1 <0>         0.0466
     51 H17         0.6108   -6.9108   -2.0234 H         1 <0>         0.0805
     52 H18         2.2900   -7.1512   -2.5739 H         1 <0>         0.1021
     53 H19         0.3835   -6.5498    0.7107 H         1 <0>         0.0872
     54 H20         1.9455   -6.6041    1.5696 H         1 <0>         0.0958
     55 H21         2.6871   -4.5618    0.4496 H         1 <0>         0.0478
     56 H22         1.0942   -4.2561    1.1839 H         1 <0>         0.0948
     57 H23         3.0237  -10.9783    0.6185 H         1 <0>         0.1231
     58 H24         1.4289  -12.5088    1.7035 H         1 <0>         0.1267
     59 H25        -0.0676  -11.6759    3.4728 H         1 <0>         0.1261
     60 H26         0.0314   -9.3128    4.1576 H         1 <0>         0.1266
     61 H27         1.6321   -7.7842    3.0784 H         1 <0>         0.1218
     62 H28         4.9891   -9.4609    0.2528 H         1 <0>         0.4119
     63 H29         6.6014  -10.2826    0.0409 H         1 <0>         0.1253
     64 H30         8.7938  -11.3447   -0.0821 H         1 <0>         0.1312
     65 H31        11.3285  -11.8306    1.4734 H         1 <0>         0.1519
     66 H32        12.0028  -11.0891    3.8794 H         1 <0>         0.1764
     67 H33         7.4445   -8.9195    4.0224 H         1 <0>         0.1347
     68 H34        -1.3403   -1.0119   -1.6659 H         1 <0>         0.4262
@<TRIPOS>BOND
     1    1    2 1
     2    1   37 1
     3    1   38 1
     4    1   39 1
     5    2    7 1
     6    2    3 1
     7    2   68 1
     8    3    4 1
     9    3   40 1
    10    3   41 1
    11    4    5 1
    12    4   42 1
    13    4   43 1
    14    5    6 1
    15    5    8 1
    16    5   44 1
    17    6    7 1
    18    6   45 1
    19    6   46 1
    20    7   47 1
    21    7   48 1
    22    8   13 1
    23    8    9 1
    24    9   10 1
    25    9   49 1
    26    9   50 1
    27   10   11 1
    28   10   51 1
    29   10   52 1
    30   11   12 1
    31   11   14 am
    32   12   13 1
    33   12   53 1
    34   12   54 1
    35   13   55 1
    36   13   56 1
    37   14   15 2
    38   14   16 1
    39   16   17 1
    40   16   18 1
    41   16   24 1
    42   18   23 ar
    43   18   19 ar
    44   19   20 ar
    45   19   57 1
    46   20   21 ar
    47   20   58 1
    48   21   22 ar
    49   21   59 1
    50   22   23 ar
    51   22   60 1
    52   23   61 1
    53   24   25 am
    54   24   62 1
    55   25   26 2
    56   25   27 1
    57   27   36 ar
    58   27   28 ar
    59   28   29 ar
    60   28   63 1
    61   29   30 ar
    62   29   64 1
    63   30   35 ar
    64   30   31 1
    65   31   32 2
    66   31   65 1
    67   32   33 1
    68   32   66 1
    69   33   34 1
    70   33   35 1
    71   35   36 ar
    72   36   67 1
@<TRIPOS>MOLECULE
ZINC02003646
   53    56     0     0     0
SMALL
USER_CHARGES

@<TRIPOS>ATOM
      1 C1          1.2474    1.3576    1.1081 C.ar      1 <0>        -0.0578
      2 C2          0.5264    2.1037    0.1929 C.ar      1 <0>        -0.1354
      3 C3         -0.0411    1.4933   -0.9108 C.ar      1 <0>        -0.0160
      4 C4          0.1097    0.1351   -1.1053 C.ar      1 <0>        -0.6646
      5 C5          0.8352   -0.6212   -0.1870 C.ar      1 <0>         0.0545
      6 C6          1.4046   -0.0009    0.9238 C.ar      1 <0>        -0.1261
      7 C7          1.0003   -2.0814   -0.3903 C.ar      1 <0>        -0.1289
      8 C8          2.2659   -2.6140   -0.6308 C.ar      1 <0>        -0.0687
      9 C9          2.4170   -3.9712   -0.8195 C.ar      1 <0>        -0.1515
     10 C10         1.3086   -4.8084   -0.7701 C.ar      1 <0>         0.1581
     11 C11         0.0457   -4.2795   -0.5309 C.ar      1 <0>        -0.1195
     12 C12        -0.1092   -2.9236   -0.3354 C.ar      1 <0>        -0.0284
     13 N1          1.4641   -6.1841   -0.9617 N.am      1 <0>        -0.6650
     14 C13         0.6690   -7.0503   -0.3030 C.2       1 <0>         0.5918
     15 O1         -0.1157   -6.6416    0.5316 O.2       1 <0>        -0.5087
     16 C14         0.7504   -8.4916   -0.5938 C.2       1 <0>        -0.2964
     17 C15         1.6500   -9.1066   -1.4143 C.2       1 <0>         0.1198
     18 O2          1.3919  -10.4170   -1.4113 O.3       1 <0>        -0.0544
     19 N2          0.2902  -10.6785   -0.5650 N.2       1 <0>        -0.2875
     20 C16        -0.1186   -9.5466   -0.0506 C.2       1 <0>         0.1802
     21 C17        -1.2458   -9.3623    0.8959 C.ar      1 <0>        -0.0283
     22 C18        -2.1513   -8.3179    0.7091 C.ar      1 <0>         0.0143
     23 C19        -3.2015   -8.1445    1.5890 C.ar      1 <0>        -0.1105
     24 C20        -3.3626   -9.0031    2.6584 C.ar      1 <0>        -0.0407
     25 C21        -2.4631  -10.0519    2.8559 C.ar      1 <0>        -0.1647
     26 C22        -1.4050  -10.2343    1.9680 C.ar      1 <0>        -0.0292
     27 C23        -2.6361  -10.9713    4.0026 C.cat     1 <0>         0.6054
     28 N3         -3.1959  -10.5334    5.1284 N.pl3     1 <0>        -0.7574
     29 N4         -2.2320  -12.2364    3.9083 N.pl3     1 <0>        -0.7586
     30 S1         -0.6144   -0.6410   -2.5117 S.o2      1 <0>         2.6976
     31 O3         -1.3745   -1.7380   -2.0238 O.2       1 <0>        -0.9568
     32 O4         -1.1891    0.3951   -3.2963 O.2       1 <0>        -0.9645
     33 N5          0.6218   -1.2828   -3.4074 N.pl3     1 <0>        -1.2454
     34 H1          1.6918    1.8401    1.9661 H         1 <0>         0.1360
     35 H2          0.4059    3.1667    0.3411 H         1 <0>         0.1379
     36 H3         -0.6035    2.0804   -1.6217 H         1 <0>         0.1482
     37 H4          1.9679   -0.5822    1.6386 H         1 <0>         0.1350
     38 H5          3.1274   -1.9638   -0.6696 H         1 <0>         0.1332
     39 H6          3.3973   -4.3842   -1.0062 H         1 <0>         0.1315
     40 H7         -0.8142   -4.9318   -0.4932 H         1 <0>         0.1372
     41 H8         -1.0899   -2.5137   -0.1445 H         1 <0>         0.1497
     42 H9          2.1443   -6.5154   -1.5687 H         1 <0>         0.4106
     43 H10         2.4357   -8.6178   -1.9711 H         1 <0>         0.2298
     44 H11        -2.0307   -7.6431   -0.1254 H         1 <0>         0.1505
     45 H12        -3.8995   -7.3339    1.4403 H         1 <0>         0.1569
     46 H13        -4.1858   -8.8626    3.3433 H         1 <0>         0.1453
     47 H14        -0.7087  -11.0469    2.1139 H         1 <0>         0.1429
     48 H15        -3.4904   -9.6117    5.1971 H         1 <0>         0.4470
     49 H16        -1.8241  -12.5554    3.0881 H         1 <0>         0.4466
     50 H17        -2.3454  -12.8390    4.6599 H         1 <0>         0.4339
     51 H18         1.5393   -1.1842   -3.1085 H         1 <0>         0.4157
     52 H19         0.4283   -1.7573   -4.2310 H         1 <0>         0.4214
     53 H20        -3.3093  -11.1361    5.8800 H         1 <0>         0.4339
@<TRIPOS>BOND
     1    1    6 ar
     2    1    2 ar
     3    1   34 1
     4    2    3 ar
     5    2   35 1
     6    3    4 ar
     7    3   36 1
     8    4    5 ar
     9    4   30 1
    10    5    6 ar
    11    5    7 1
    12    6   37 1
    13    7   12 ar
    14    7    8 ar
    15    8    9 ar
    16    8   38 1
    17    9   10 ar
    18    9   39 1
    19   10   11 ar
    20   10   13 1
    21   11   12 ar
    22   11   40 1
    23   12   41 1
    24   13   14 am
    25   13   42 1
    26   14   15 2
    27   14   16 1
    28   16   20 1
    29   16   17 2
    30   17   18 1
    31   17   43 1
    32   18   19 1
    33   19   20 2
    34   20   21 1
    35   21   26 ar
    36   21   22 ar
    37   22   23 ar
    38   22   44 1
    39   23   24 ar
    40   23   45 1
    41   24   25 ar
    42   24   46 1
    43   25   26 ar
    44   25   27 1
    45   26   47 1
    46   27   28 2
    47   27   29 1
    48   28   48 1
    49   28   53 1
    50   29   49 1
    51   29   50 1
    52   30   31 2
    53   30   32 2
    54   30   33 1
    55   33   51 1
    56   33   52 1
@<TRIPOS>MOLECULE
ZINC13487644
   72    75     0     0     0
SMALL
USER_CHARGES
3-[3-[[[4-[(1-ethanimidoyl-4-piperidyl)oxy]phenyl]-methylsulfonyl-amino]methyl]phenyl]benzamidine
@<TRIPOS>ATOM
      1 C1          5.7882    2.7895   10.1474 C.3       1 <0>        -0.1584
      2 C2          4.8180    3.9411   10.2053 C.cat     1 <0>         0.5315
      3 N1          4.3991    4.5428    9.0479 N.pl3     1 <0>        -0.5660
      4 C3          4.9785    4.1600    7.7531 C.3       1 <0>         0.0989
      5 C4          5.4907    5.4209    7.0498 C.3       1 <0>        -0.1364
      6 C5          4.3556    6.4429    6.9531 C.3       1 <0>         0.0855
      7 C6          3.8932    6.8285    8.3600 C.3       1 <0>        -0.1718
      8 C7          3.3626    5.5836    9.0779 C.3       1 <0>         0.0894
      9 O1          4.8211    7.6079    6.2689 O.3       1 <0>        -0.2995
     10 C8          3.8848    8.3757    5.6497 C.ar      1 <0>         0.1193
     11 C9          2.5378    8.0787    5.7958 C.ar      1 <0>        -0.1888
     12 C10         1.5863    8.8572    5.1666 C.ar      1 <0>        -0.1015
     13 C11         1.9785    9.9379    4.3878 C.ar      1 <0>         0.1302
     14 C12         3.3274   10.2314    4.2377 C.ar      1 <0>        -0.0757
     15 C13         4.2773    9.4549    4.8719 C.ar      1 <0>        -0.1232
     16 N2          1.0150   10.7274    3.7499 N.pl3     1 <0>        -0.9427
     17 C14         1.0389   10.8776    2.2929 C.3       1 <0>         0.1441
     18 C15         0.3652    9.6904    1.6544 C.ar      1 <0>        -0.1036
     19 C16        -0.9844    9.7409    1.3547 C.ar      1 <0>        -0.0997
     20 C17        -1.6091    8.6548    0.7692 C.ar      1 <0>        -0.1091
     21 C18        -0.8880    7.5137    0.4806 C.ar      1 <0>        -0.0995
     22 C19         0.4714    7.4574    0.7798 C.ar      1 <0>        -0.0705
     23 C20         1.0946    8.5527    1.3746 C.ar      1 <0>        -0.0759
     24 C21         1.2517    6.2332    0.4719 C.ar      1 <0>        -0.0203
     25 C22         2.6125    6.1787    0.7711 C.ar      1 <0>        -0.0520
     26 C23         3.3406    5.0407    0.4849 C.ar      1 <0>        -0.1048
     27 C24         2.7266    3.9502   -0.0989 C.ar      1 <0>        -0.0622
     28 C25         1.3659    3.9931   -0.4033 C.ar      1 <0>        -0.1470
     29 C26         0.6271    5.1386   -0.1166 C.ar      1 <0>        -0.0645
     30 C27         0.7083    2.8235   -1.0303 C.cat     1 <0>         0.5990
     31 N3          1.4406    1.6913   -1.3132 N.pl3     1 <0>        -0.7784
     32 S1         -0.1519   11.4918    4.6421 S.o2      1 <0>         2.5950
     33 O2          0.4558   11.7326    5.9038 O.2       1 <0>        -0.9348
     34 O3         -0.5813   12.5735    3.8267 O.2       1 <0>        -0.9367
     35 C28        -1.4829   10.2711    4.8125 C.3       1 <0>        -0.6768
     36 H1          6.8064    3.1747   10.0922 H         1 <0>         0.1354
     37 H2          5.6794    2.1773   11.0427 H         1 <0>         0.1243
     38 H3          5.5807    2.1836    9.2655 H         1 <0>         0.1241
     39 H4          4.6182    4.0006   12.2219 H         1 <0>         0.4589
     40 H5          4.2154    3.6830    7.1380 H         1 <0>         0.1040
     41 H6          5.8062    3.4691    7.9130 H         1 <0>         0.1185
     42 H7          5.8356    5.1642    6.0483 H         1 <0>         0.1083
     43 H8          6.3157    5.8464    7.6213 H         1 <0>         0.0921
     44 H9          3.5212    6.0078    6.4031 H         1 <0>         0.0824
     45 H10         4.7333    7.2407    8.9189 H         1 <0>         0.0934
     46 H11         3.1009    7.5740    8.2911 H         1 <0>         0.1063
     47 H12         2.4676    5.2228    8.5709 H         1 <0>         0.1102
     48 H13         3.1222    5.8302   10.1122 H         1 <0>         0.0970
     49 H14         2.2330    7.2381    6.4016 H         1 <0>         0.1299
     50 H15         0.5376    8.6254    5.2799 H         1 <0>         0.1252
     51 H16         3.6335   11.0689    3.6283 H         1 <0>         0.1422
     52 H17         5.3263    9.6855    4.7587 H         1 <0>         0.1414
     53 H18         2.0721   10.9366    1.9505 H         1 <0>         0.1022
     54 H19         0.5107   11.7890    2.0128 H         1 <0>         0.1201
     55 H20        -1.5524   10.6317    1.5791 H         1 <0>         0.1357
     56 H21        -2.6630    8.6995    0.5376 H         1 <0>         0.1357
     57 H22        -1.3770    6.6658    0.0239 H         1 <0>         0.1229
     58 H23         2.1472    8.5126    1.6132 H         1 <0>         0.1294
     59 H24         3.0982    7.0286    1.2274 H         1 <0>         0.1461
     60 H25         4.3944    5.0035    0.7184 H         1 <0>         0.1502
     61 H26         3.3009    3.0629   -0.3205 H         1 <0>         0.1391
     62 H27        -0.4256    5.1783   -0.3545 H         1 <0>         0.1368
     63 H28        -1.0826    2.1504   -1.7256 H         1 <0>         0.4466
     64 H29         2.3867    1.6601   -1.1017 H         1 <0>         0.4430
     65 H30         1.0099    0.9252   -1.7238 H         1 <0>         0.4332
     66 H31        -1.1420    9.4471    5.4393 H         1 <0>         0.1266
     67 H32        -2.3515   10.7424    5.2724 H         1 <0>         0.1380
     68 H33        -1.7549    9.8904    3.8280 H         1 <0>         0.1300
     69 N4          4.3367    4.4149   11.3333 N.pl3     1 <0>        -0.7632
     70 H34         3.6775    5.2020   11.3198 H         1 <0>         0.4398
     71 N5         -0.5848    2.9292   -1.2940 N.pl3     1 <0>        -0.7584
     72 H35        -1.0866    3.7950   -1.0641 H         1 <0>         0.4592
@<TRIPOS>BOND
     1    1    2 1
     2    1   36 1
     3    1   37 1
     4    1   38 1
     5    2    3 1
     6    2   69 2
     7    3    8 1
     8    3    4 1
     9    4    5 1
    10    4   40 1
    11    4   41 1
    12    5    6 1
    13    5   42 1
    14    5   43 1
    15    6    7 1
    16    6    9 1
    17    6   44 1
    18    7    8 1
    19    7   45 1
    20    7   46 1
    21    8   47 1
    22    8   48 1
    23    9   10 1
    24   10   15 ar
    25   10   11 ar
    26   11   12 ar
    27   11   49 1
    28   12   13 ar
    29   12   50 1
    30   13   14 ar
    31   13   16 1
    32   14   15 ar
    33   14   51 1
    34   15   52 1
    35   16   17 1
    36   16   32 1
    37   17   18 1
    38   17   53 1
    39   17   54 1
    40   18   23 ar
    41   18   19 ar
    42   19   20 ar
    43   19   55 1
    44   20   21 ar
    45   20   56 1
    46   21   22 ar
    47   21   57 1
    48   22   23 ar
    49   22   24 1
    50   23   58 1
    51   24   29 ar
    52   24   25 ar
    53   25   26 ar
    54   25   59 1
    55   26   27 ar
    56   26   60 1
    57   27   28 ar
    58   27   61 1
    59   28   29 ar
    60   28   30 1
    61   29   62 1
    62   30   31 1
    63   30   71 2
    64   31   64 1
    65   31   65 1
    66   32   33 2
    67   32   34 2
    68   32   35 1
    69   35   66 1
    70   35   67 1
    71   35   68 1
    72   39   69 1
    73   63   71 1
    74   69   70 1
    75   71   72 1
@<TRIPOS>MOLECULE
ZINC02006270
   57    60     0     0     0
SMALL
USER_CHARGES

@<TRIPOS>ATOM
      1 C1         -1.3381   -1.7836    3.6515 C.3       1 <0>        -0.0827
      2 C2         -0.7136   -1.9784    2.2939 C.2       1 <0>         0.0922
      3 C3         -0.5795   -3.1955    1.6307 C.2       1 <0>        -0.1907
      4 C4          0.0407   -2.9486    0.4218 C.2       1 <0>         0.0345
      5 N1          0.2760   -1.6008    0.3602 N.pl3     1 <0>        -0.3139
      6 N2         -0.2128   -1.0296    1.5418 N.2       1 <0>        -0.2589
      7 C5          0.8895   -0.9165   -0.6964 C.ar      1 <0>         0.1624
      8 C6          0.4621   -1.1269   -2.0021 C.ar      1 <0>        -0.0185
      9 C7          1.0644   -0.4538   -3.0480 C.ar      1 <0>        -0.0948
     10 C8          2.0942    0.4322   -2.8027 C.ar      1 <0>        -0.0532
     11 C9          2.5304    0.6502   -1.4954 C.ar      1 <0>        -0.1496
     12 C10         1.9193   -0.0248   -0.4395 C.ar      1 <0>        -0.0512
     13 C11         3.6348    1.5988   -1.2299 C.cat     1 <0>         0.6060
     14 N3          4.5844    1.7876   -2.1439 N.pl3     1 <0>        -0.7565
     15 N4          3.6789    2.2634   -0.0771 N.pl3     1 <0>        -0.7572
     16 C12         0.3840   -3.9441   -0.6044 C.2       1 <0>         0.5850
     17 O1          1.0295   -3.6133   -1.5809 O.2       1 <0>        -0.5119
     18 N5         -0.0166   -5.2232   -0.4630 N.am      1 <0>        -0.6457
     19 C13         0.3154   -6.1707   -1.4349 C.ar      1 <0>         0.1558
     20 C14         0.5114   -5.7739   -2.7526 C.ar      1 <0>        -0.1411
     21 C15         0.8395   -6.7070   -3.7129 C.ar      1 <0>        -0.0692
     22 C16         0.9746   -8.0493   -3.3617 C.ar      1 <0>        -0.1334
     23 C17         0.7776   -8.4450   -2.0396 C.ar      1 <0>        -0.0038
     24 C18         0.4549   -7.5078   -1.0815 C.ar      1 <0>        -0.1461
     25 C19         1.3271   -9.0552   -4.3935 C.ar      1 <0>         0.0588
     26 C20         0.4468   -9.3206   -5.4411 C.ar      1 <0>        -0.1270
     27 C21         0.7798  -10.2574   -6.3980 C.ar      1 <0>        -0.0563
     28 C22         1.9848  -10.9325   -6.3190 C.ar      1 <0>        -0.1368
     29 C23         2.8619  -10.6734   -5.2815 C.ar      1 <0>        -0.0159
     30 C24         2.5419   -9.7340   -4.3221 C.ar      1 <0>        -0.6669
     31 S1          3.6639   -9.3995   -3.0054 S.o2      1 <0>         2.6940
     32 O2          2.8874   -9.3328   -1.8172 O.2       1 <0>        -0.9533
     33 O3          4.7489  -10.3045   -3.1566 O.2       1 <0>        -0.9646
     34 N6          4.2754   -7.8812   -3.2569 N.pl3     1 <0>        -1.2459
     35 H1         -2.4067   -1.6018    3.5371 H         1 <0>         0.0892
     36 H2         -1.1844   -2.6789    4.2540 H         1 <0>         0.0894
     37 H3         -0.8750   -0.9294    4.1453 H         1 <0>         0.0810
     38 H4         -0.9022   -4.1591    1.9962 H         1 <0>         0.1697
     39 H5         -0.3432   -1.8189   -2.2000 H         1 <0>         0.1459
     40 H6          0.7287   -0.6218   -4.0607 H         1 <0>         0.1580
     41 H7          2.5625    0.9563   -3.6227 H         1 <0>         0.1470
     42 H8          2.2501    0.1432    0.5747 H         1 <0>         0.1457
     43 H9          4.5523    1.3034   -2.9838 H         1 <0>         0.4470
     44 H10         2.9871    2.1258    0.5888 H         1 <0>         0.4470
     45 H11         4.4028    2.8852    0.0969 H         1 <0>         0.4343
     46 H12        -0.5353   -5.4860    0.3133 H         1 <0>         0.4184
     47 H13         0.4063   -4.7340   -3.0243 H         1 <0>         0.1458
     48 H14         0.9913   -6.3983   -4.7367 H         1 <0>         0.1291
     49 H15         0.8815   -9.4844   -1.7654 H         1 <0>         0.1489
     50 H16         0.3065   -7.8132   -0.0562 H         1 <0>         0.1330
     51 H17        -0.4942   -8.7944   -5.5035 H         1 <0>         0.1357
     52 H18         0.0984  -10.4642   -7.2100 H         1 <0>         0.1363
     53 H19         2.2414  -11.6649   -7.0701 H         1 <0>         0.1377
     54 H20         3.8009  -11.2039   -5.2243 H         1 <0>         0.1479
     55 H21         3.9905   -7.3651   -4.0272 H         1 <0>         0.4152
     56 H22         4.9185   -7.5080   -2.6340 H         1 <0>         0.4200
     57 H23         5.3083    2.4094   -1.9699 H         1 <0>         0.4344
@<TRIPOS>BOND
     1    1    2 1
     2    1   35 1
     3    1   36 1
     4    1   37 1
     5    2    6 2
     6    2    3 1
     7    3    4 2
     8    3   38 1
     9    4    5 1
    10    4   16 1
    11    5    6 1
    12    5    7 1
    13    7   12 ar
    14    7    8 ar
    15    8    9 ar
    16    8   39 1
    17    9   10 ar
    18    9   40 1
    19   10   11 ar
    20   10   41 1
    21   11   12 ar
    22   11   13 1
    23   12   42 1
    24   13   14 2
    25   13   15 1
    26   14   43 1
    27   14   57 1
    28   15   44 1
    29   15   45 1
    30   16   17 2
    31   16   18 am
    32   18   19 1
    33   18   46 1
    34   19   24 ar
    35   19   20 ar
    36   20   21 ar
    37   20   47 1
    38   21   22 ar
    39   21   48 1
    40   22   23 ar
    41   22   25 1
    42   23   24 ar
    43   23   49 1
    44   24   50 1
    45   25   30 ar
    46   25   26 ar
    47   26   27 ar
    48   26   51 1
    49   27   28 ar
    50   27   52 1
    51   28   29 ar
    52   28   53 1
    53   29   30 ar
    54   29   54 1
    55   30   31 1
    56   31   32 2
    57   31   33 2
    58   31   34 1
    59   34   55 1
    60   34   56 1
@<TRIPOS>MOLECULE
ZINC03964182
   66    70     0     0     0
SMALL
USER_CHARGES
7-[[8-[(1-ethanimidoyl-4-piperidyl)oxy]-3-oxo-5-oxa-2-azabicyclo[4.4.0]deca-7,9,11-trien-2-yl]methyl]naphthalene-2-carboxamidine
@<TRIPOS>ATOM
      1 C1         -9.1157   -0.0110    2.0453 C.3       1 <0>        -0.1643
      2 C2         -9.0455   -0.3217    0.5723 C.cat     1 <0>         0.5326
      3 N1         -7.8821   -0.1069   -0.1185 N.pl3     1 <0>        -0.5644
      4 C3         -7.8343   -0.2801   -1.5766 C.3       1 <0>         0.0897
      5 C4         -6.6940   -1.2431   -1.9217 C.3       1 <0>        -0.1342
      6 C5         -5.3913   -0.7260   -1.3072 C.3       1 <0>         0.0811
      7 C6         -5.5313   -0.6691    0.2157 C.3       1 <0>        -0.1685
      8 C7         -6.6582    0.3007    0.5850 C.3       1 <0>         0.0928
      9 O1         -4.3194   -1.6049   -1.6542 O.3       1 <0>        -0.2969
     10 C8         -3.0622   -1.0881   -1.6220 C.ar      1 <0>         0.1352
     11 C9         -1.9709   -1.9060   -1.8761 C.ar      1 <0>        -0.1363
     12 C10        -0.6910   -1.3838   -1.8502 C.ar      1 <0>        -0.0873
     13 C11        -0.4987   -0.0422   -1.5648 C.ar      1 <0>         0.0692
     14 C12        -1.5934    0.7803   -1.3039 C.ar      1 <0>         0.1247
     15 C13        -2.8733    0.2552   -1.3308 C.ar      1 <0>        -0.2011
     16 O2         -1.3903    2.0955   -1.0243 O.3       1 <0>        -0.3002
     17 C14        -0.1885    2.4259   -0.3235 C.3       1 <0>         0.0515
     18 C15         0.9793    1.7123   -0.9557 C.2       1 <0>         0.4882
     19 O3          2.0812    2.2196   -0.9451 O.2       1 <0>        -0.4920
     20 N2          0.7938    0.5059   -1.5345 N.am      1 <0>        -0.5470
     21 C16         1.9233   -0.2194   -2.1211 C.3       1 <0>         0.1411
     22 C17         2.0705    0.1671   -3.5703 C.ar      1 <0>        -0.0913
     23 C18         2.8820    1.2466   -3.9140 C.ar      1 <0>        -0.0611
     24 C19         3.0368    1.6217   -5.2135 C.ar      1 <0>        -0.1111
     25 C20         2.3705    0.9127   -6.2271 C.ar      1 <0>        -0.0069
     26 C21         2.5099    1.2761   -7.5790 C.ar      1 <0>        -0.0778
     27 C22         1.8550    0.5769   -8.5409 C.ar      1 <0>        -0.0918
     28 C23         1.0339   -0.5136   -8.2065 C.ar      1 <0>        -0.1528
     29 C24         0.8765   -0.8962   -6.8863 C.ar      1 <0>        -0.0168
     30 C25         1.5448   -0.1856   -5.8775 C.ar      1 <0>        -0.0661
     31 C26         1.4134   -0.5467   -4.5247 C.ar      1 <0>        -0.0780
     32 C27         0.3320   -1.2591   -9.2756 C.cat     1 <0>         0.5993
     33 N3          0.4849   -0.8828  -10.5924 N.pl3     1 <0>        -0.7773
     34 H1         -8.1333    0.3039    2.3974 H         1 <0>         0.1218
     35 H2         -9.8359    0.7896    2.2138 H         1 <0>         0.1352
     36 H3         -9.4285   -0.9018    2.5900 H         1 <0>         0.1315
     37 H4        -10.9525   -0.9773    0.3625 H         1 <0>         0.4590
     38 H5         -7.6555    0.6837   -2.0534 H         1 <0>         0.1135
     39 H6         -8.7802   -0.6934   -1.9267 H         1 <0>         0.0995
     40 H7         -6.5857   -1.3057   -3.0045 H         1 <0>         0.1077
     41 H8         -6.9185   -2.2314   -1.5203 H         1 <0>         0.0915
     42 H9         -5.1805    0.2726   -1.6900 H         1 <0>         0.0866
     43 H10        -5.7668   -1.6628    0.5968 H         1 <0>         0.0926
     44 H11        -4.5954   -0.3230    0.6544 H         1 <0>         0.1056
     45 H12        -6.3835    1.3118    0.2845 H         1 <0>         0.1071
     46 H13        -6.8289    0.2730    1.6612 H         1 <0>         0.1200
     47 H14        -2.1216   -2.9520   -2.0989 H         1 <0>         0.1436
     48 H15         0.1574   -2.0209   -2.0520 H         1 <0>         0.1436
     49 H16        -3.7234    0.8902   -1.1295 H         1 <0>         0.1439
     50 H17        -0.2800    2.1192    0.7184 H         1 <0>         0.1064
     51 H18        -0.0248    3.5024   -0.3713 H         1 <0>         0.1526
     52 H19         2.8367    0.0340   -1.5830 H         1 <0>         0.1124
     53 H20         1.7440   -1.2921   -2.0475 H         1 <0>         0.1032
     54 H21         3.3955    1.7942   -3.1377 H         1 <0>         0.1438
     55 H22         3.6695    2.4602   -5.4642 H         1 <0>         0.1452
     56 H23         3.1372    2.1120   -7.8515 H         1 <0>         0.1510
     57 H24         1.9665    0.8624   -9.5765 H         1 <0>         0.1368
     58 H25         0.2442   -1.7346   -6.6342 H         1 <0>         0.1389
     59 H26         0.7910   -1.3836   -4.2442 H         1 <0>         0.1369
     60 H27        -0.9315   -2.8222   -9.6010 H         1 <0>         0.4447
     61 H28         1.0523   -0.1294  -10.8187 H         1 <0>         0.4442
     62 H29         0.0249   -1.3714  -11.2929 H         1 <0>         0.4318
     63 N4        -10.0643   -0.8002   -0.1071 N.pl3     1 <0>        -0.7650
     64 H30        -9.9661   -0.9956   -1.1102 H         1 <0>         0.4389
     65 N5         -0.4275   -2.2774   -8.9011 N.pl3     1 <0>        -0.7641
     66 H31        -0.5091   -2.5185   -7.9064 H         1 <0>         0.4573
@<TRIPOS>BOND
     1    1    2 1
     2    1   34 1
     3    1   35 1
     4    1   36 1
     5    2    3 1
     6    2   63 2
     7    3    8 1
     8    3    4 1
     9    4    5 1
    10    4   38 1
    11    4   39 1
    12    5    6 1
    13    5   40 1
    14    5   41 1
    15    6    7 1
    16    6    9 1
    17    6   42 1
    18    7    8 1
    19    7   43 1
    20    7   44 1
    21    8   45 1
    22    8   46 1
    23    9   10 1
    24   10   15 ar
    25   10   11 ar
    26   11   12 ar
    27   11   47 1
    28   12   13 ar
    29   12   48 1
    30   13   20 1
    31   13   14 ar
    32   14   15 ar
    33   14   16 1
    34   15   49 1
    35   16   17 1
    36   17   18 1
    37   17   50 1
    38   17   51 1
    39   18   19 2
    40   18   20 am
    41   20   21 1
    42   21   22 1
    43   21   52 1
    44   21   53 1
    45   22   31 ar
    46   22   23 ar
    47   23   24 ar
    48   23   54 1
    49   24   25 ar
    50   24   55 1
    51   25   30 ar
    52   25   26 ar
    53   26   27 ar
    54   26   56 1
    55   27   28 ar
    56   27   57 1
    57   28   29 ar
    58   28   32 1
    59   29   30 ar
    60   29   58 1
    61   30   31 ar
    62   31   59 1
    63   32   33 1
    64   32   65 2
    65   33   61 1
    66   33   62 1
    67   37   63 1
    68   60   65 1
    69   63   64 1
    70   65   66 1
@<TRIPOS>MOLECULE
ZINC13487638
   65    68     0     0     0
SMALL
USER_CHARGES
2-[[[4-[(1-ethanimidoyl-4-piperidyl)oxy]phenyl]-methylsulfonyl-amino]methyl]benzothiophene-5-carboxamidine
@<TRIPOS>ATOM
      1 C1         -5.3052   -7.8307    0.4472 C.3       1 <0>        -0.1618
      2 C2         -5.5357   -7.9730    1.9297 C.cat     1 <0>         0.5298
      3 N1         -5.0650   -7.0173    2.7910 N.pl3     1 <0>        -0.5639
      4 C3         -5.1798   -7.1977    4.2447 C.3       1 <0>         0.0890
      5 C4         -5.8766   -5.9703    4.8403 C.3       1 <0>        -0.1366
      6 C5         -5.1217   -4.7067    4.4215 C.3       1 <0>         0.0817
      7 C6         -5.1416   -4.5807    2.8964 C.3       1 <0>        -0.1661
      8 C7         -4.4362   -5.7921    2.2787 C.3       1 <0>         0.0937
      9 O1         -5.7503   -3.5621    5.0019 O.3       1 <0>        -0.2996
     10 C8         -4.9754   -2.4601    5.1882 C.ar      1 <0>         0.1209
     11 C9         -3.6693   -2.4443    4.7215 C.ar      1 <0>        -0.1867
     12 C10        -2.8815   -1.3259    4.9110 C.ar      1 <0>        -0.1002
     13 C11        -3.3973   -0.2170    5.5686 C.ar      1 <0>         0.1257
     14 C12        -4.7032   -0.2357    6.0403 C.ar      1 <0>        -0.0761
     15 C13        -5.4914   -1.3530    5.8452 C.ar      1 <0>        -0.1217
     16 N2         -2.5997    0.9166    5.7611 N.pl3     1 <0>        -0.9412
     17 C14        -3.0677    2.2277    5.3048 C.3       1 <0>         0.1832
     18 C15        -2.7784    2.3802    3.8336 C.2       1 <0>        -0.1379
     19 C16        -3.5158    1.9618    2.7959 C.2       1 <0>        -0.1186
     20 C17        -3.0494    2.2177    1.4403 C.ar      1 <0>        -0.0866
     21 C18        -3.6630    1.8729    0.2160 C.ar      1 <0>        -0.0080
     22 C19        -3.0599    2.2000   -0.9850 C.ar      1 <0>        -0.1560
     23 C20        -1.8338    2.8770   -1.0172 C.ar      1 <0>        -0.0536
     24 C21        -1.2222    3.2198    0.1561 C.ar      1 <0>        -0.0569
     25 C22        -1.8140    2.8992    1.3615 C.ar      1 <0>        -0.0802
     26 S1         -1.3703    3.1533    3.0610 S.3       1 <0>         0.1064
     27 C23        -3.7202    1.8291   -2.2560 C.cat     1 <0>         0.6015
     28 N3         -3.1288    2.1495   -3.4588 N.pl3     1 <0>        -0.7764
     29 S2         -1.1266    0.7760    6.5046 S.o2      1 <0>         2.5894
     30 O2         -1.2505   -0.3654    7.3418 O.2       1 <0>        -0.9274
     31 O3         -0.8777    2.0595    7.0616 O.2       1 <0>        -0.9327
     32 C24         0.0441    0.4407    5.1602 C.3       1 <0>        -0.6773
     33 H1         -4.6675   -6.9667    0.2601 H         1 <0>         0.1190
     34 H2         -4.8198   -8.7296    0.0671 H         1 <0>         0.1325
     35 H3         -6.2613   -7.6928   -0.0576 H         1 <0>         0.1319
     36 H4         -6.5501   -9.7270    1.8591 H         1 <0>         0.4589
     37 H5         -4.1857   -7.3005    4.6797 H         1 <0>         0.1153
     38 H6         -5.7679   -8.0906    4.4567 H         1 <0>         0.1006
     39 H7         -5.8824   -6.0471    5.9276 H         1 <0>         0.1119
     40 H8         -6.9018   -5.9201    4.4733 H         1 <0>         0.0909
     41 H9         -4.0898   -4.7688    4.7673 H         1 <0>         0.0866
     42 H10        -6.1738   -4.5438    2.5479 H         1 <0>         0.0907
     43 H11        -4.6242   -3.6684    2.5999 H         1 <0>         0.1018
     44 H12        -3.3815   -5.7804    2.5535 H         1 <0>         0.1054
     45 H13        -4.5315   -5.7590    1.1934 H         1 <0>         0.1159
     46 H14        -3.2683   -3.3068    4.2101 H         1 <0>         0.1322
     47 H15        -1.8643   -1.3140    4.5482 H         1 <0>         0.1246
     48 H16        -5.1036    0.6246    6.5560 H         1 <0>         0.1432
     49 H17        -6.5085   -1.3661    6.2082 H         1 <0>         0.1423
     50 H18        -4.1413    2.3094    5.4743 H         1 <0>         0.1236
     51 H19        -2.5516    3.0111    5.8598 H         1 <0>         0.1303
     52 H20        -4.4478    1.4422    2.9631 H         1 <0>         0.1507
     53 H21        -4.6083    1.3508    0.2174 H         1 <0>         0.1374
     54 H22        -1.3749    3.1261   -1.9626 H         1 <0>         0.1486
     55 H23        -0.2768    3.7419    0.1403 H         1 <0>         0.1568
     56 H24        -5.3719    0.9137   -3.0182 H         1 <0>         0.4451
     57 H25        -2.2797    2.6181   -3.4722 H         1 <0>         0.4445
     58 H26        -3.5618    1.9064   -4.2921 H         1 <0>         0.4329
     59 H27        -0.3152   -0.4003    4.5669 H         1 <0>         0.1274
     60 H28         0.1307    1.3225    4.5254 H         1 <0>         0.1301
     61 H29         1.0202    0.1983    5.5804 H         1 <0>         0.1420
     62 N4         -6.1803   -8.9894    2.4589 N.pl3     1 <0>        -0.7632
     63 H30        -6.3116   -9.0406    3.4760 H         1 <0>         0.4411
     64 N5         -4.8778    1.1906   -2.1698 N.pl3     1 <0>        -0.7644
     65 H31        -5.2776    0.9745   -1.2491 H         1 <0>         0.4573
@<TRIPOS>BOND
     1    1    2 1
     2    1   33 1
     3    1   34 1
     4    1   35 1
     5    2    3 1
     6    2   62 2
     7    3    8 1
     8    3    4 1
     9    4    5 1
    10    4   37 1
    11    4   38 1
    12    5    6 1
    13    5   39 1
    14    5   40 1
    15    6    7 1
    16    6    9 1
    17    6   41 1
    18    7    8 1
    19    7   42 1
    20    7   43 1
    21    8   44 1
    22    8   45 1
    23    9   10 1
    24   10   15 ar
    25   10   11 ar
    26   11   12 ar
    27   11   46 1
    28   12   13 ar
    29   12   47 1
    30   13   14 ar
    31   13   16 1
    32   14   15 ar
    33   14   48 1
    34   15   49 1
    35   16   17 1
    36   16   29 1
    37   17   18 1
    38   17   50 1
    39   17   51 1
    40   18   26 1
    41   18   19 2
    42   19   20 1
    43   19   52 1
    44   20   25 ar
    45   20   21 ar
    46   21   22 ar
    47   21   53 1
    48   22   23 ar
    49   22   27 1
    50   23   24 ar
    51   23   54 1
    52   24   25 ar
    53   24   55 1
    54   25   26 1
    55   27   28 1
    56   27   64 2
    57   28   57 1
    58   28   58 1
    59   29   30 2
    60   29   31 2
    61   29   32 1
    62   32   59 1
    63   32   60 1
    64   32   61 1
    65   36   62 1
    66   56   64 1
    67   62   63 1
    68   64   65 1
@<TRIPOS>MOLECULE
ZINC12355027
   48    51     0     0     0
SMALL
USER_CHARGES
4-[(E)-2-(4-chlorophenyl)vinyl]sulfonyl-1-(1H-pyrrolo[4,5-c]pyridin-2-ylmethyl)piperazin-2-one
@<TRIPOS>ATOM
      1 C1         -5.5355    5.9649   -1.0982 C.ar      1 <0>        -0.0746
      2 C2         -6.5729    6.4935   -1.8379 C.ar      1 <0>        -0.1160
      3 C3         -7.8688    6.0509   -1.6329 C.ar      1 <0>        -0.0147
      4 C4         -8.1308    5.0726   -0.6886 C.ar      1 <0>        -0.1154
      5 C5         -7.1008    4.5329    0.0534 C.ar      1 <0>        -0.0722
      6 C6         -5.7927    4.9746   -0.1492 C.ar      1 <0>        -0.0975
      7 C7         -4.6846    4.4002    0.6426 C.2       1 <0>         0.0637
      8 C8         -3.4429    4.8217    0.4480 C.2       1 <0>        -0.7540
      9 S1         -2.1220    4.1369    1.3919 S.o2      1 <0>         2.6848
     10 O1         -2.6972    3.1546    2.2424 O.2       1 <0>        -0.9530
     11 O2         -1.3705    5.2335    1.8940 O.2       1 <0>        -0.9445
     12 N1         -1.1336    3.3293    0.3369 N.pl3     1 <0>        -1.0050
     13 C9         -0.0063    4.0054   -0.3273 C.3       1 <0>         0.1035
     14 C10         1.2868    3.3074    0.0983 C.3       1 <0>         0.0963
     15 N2          1.1491    1.8607    0.0011 N.am      1 <0>        -0.5942
     16 C11        -0.0144    1.2086    0.0087 C.2       1 <0>         0.5178
     17 O3          0.0021   -0.0041    0.0020 O.2       1 <0>        -0.5418
     18 C12        -1.3462    1.9081    0.0190 C.3       1 <0>         0.1085
     19 C13         2.3746    1.0660   -0.1126 C.3       1 <0>         0.1624
     20 C14         2.7289    0.8945   -1.5673 C.2       1 <0>         0.0599
     21 C15         3.5857    1.6721   -2.2488 C.2       1 <0>        -0.1665
     22 C16         3.6344    1.1558   -3.6170 C.ar      1 <0>        -0.1684
     23 C17         4.3145    1.5106   -4.7804 C.ar      1 <0>         0.1641
     24 N3          4.1327    0.8186   -5.8862 N.ar      1 <0>        -0.5043
     25 C18         3.3157   -0.2205   -5.9419 C.ar      1 <0>         0.1019
     26 C19         2.6093   -0.6375   -4.8482 C.ar      1 <0>        -0.1808
     27 C20         2.7565    0.0521   -3.6464 C.ar      1 <0>         0.1313
     28 N4          2.2293   -0.0812   -2.3883 N.pl3     1 <0>        -0.5738
     29 H1          1.5946   -0.7638   -2.1199 H         1 <0>         0.4215
     30 Cl1        -9.1702    6.7256   -2.5629 Cl        1 <0>        -0.0574
     31 H2         -4.5257    6.3138   -1.2560 H         1 <0>         0.1387
     32 H3         -6.3746    7.2570   -2.5755 H         1 <0>         0.1410
     33 H4         -9.1437    4.7318   -0.5325 H         1 <0>         0.1423
     34 H5         -7.3063    3.7701    0.7898 H         1 <0>         0.1432
     35 H6         -4.8866    3.6370    1.3796 H         1 <0>         0.1491
     36 H7         -3.2409    5.5849   -0.2890 H         1 <0>         0.1643
     37 H8          0.0242    5.0523   -0.0253 H         1 <0>         0.1174
     38 H9         -0.1222    3.9372   -1.4089 H         1 <0>         0.0865
     39 H10         1.5178    3.5773    1.1288 H         1 <0>         0.0811
     40 H11         2.1008    3.6346   -0.5486 H         1 <0>         0.0982
     41 H12        -1.8147    1.8157   -0.9608 H         1 <0>         0.1080
     42 H13        -1.9885    1.4591    0.7766 H         1 <0>         0.1323
     43 H14         3.1883    1.5774    0.4017 H         1 <0>         0.1125
     44 H15         2.2164    0.0874    0.3407 H         1 <0>         0.1043
     45 H16         4.1348    2.5173   -1.8607 H         1 <0>         0.1536
     46 H17         4.9902    2.3532   -4.7754 H         1 <0>         0.1583
     47 H18         3.2036   -0.7526   -6.8751 H         1 <0>         0.1567
     48 H19         1.9471   -1.4880   -4.9148 H         1 <0>         0.1307
@<TRIPOS>BOND
     1    1    6 ar
     2    1    2 ar
     3    1   31 1
     4    2    3 ar
     5    2   32 1
     6    3    4 ar
     7    3   30 1
     8    4    5 ar
     9    4   33 1
    10    5    6 ar
    11    5   34 1
    12    6    7 1
    13    7    8 2
    14    7   35 1
    15    8    9 1
    16    8   36 1
    17    9   10 2
    18    9   11 2
    19    9   12 1
    20   12   18 1
    21   12   13 1
    22   13   14 1
    23   13   37 1
    24   13   38 1
    25   14   15 1
    26   14   39 1
    27   14   40 1
    28   15   16 am
    29   15   19 1
    30   16   17 2
    31   16   18 1
    32   18   41 1
    33   18   42 1
    34   19   20 1
    35   19   43 1
    36   19   44 1
    37   20   28 1
    38   20   21 2
    39   21   22 1
    40   21   45 1
    41   22   27 ar
    42   22   23 ar
    43   23   24 ar
    44   23   46 1
    45   24   25 ar
    46   25   26 ar
    47   25   47 1
    48   26   27 ar
    49   26   48 1
    50   27   28 1
    51   28   29 1
@<TRIPOS>MOLECULE
ZINC13557990
   60    62     0     0     0
SMALL
USER_CHARGES
2-[(4-dimethylaminobenzoyl)amino]-5-methanesulfonamido-N-(4-methoxyphenyl)benzamide
@<TRIPOS>ATOM
      1 C1         -6.4569   -4.5530    1.4470 C.3       1 <0>         0.0825
      2 N1         -6.5948   -3.2804    0.7344 N.pl3     1 <0>        -0.6285
      3 C2         -7.8406   -2.9663    0.0304 C.3       1 <0>         0.0876
      4 C3         -5.5432   -2.3707    0.7263 C.ar      1 <0>         0.2474
      5 C4         -4.4034   -2.6197    1.4858 C.ar      1 <0>        -0.2136
      6 C5         -3.3608   -1.7217    1.4796 C.ar      1 <0>        -0.0013
      7 C6         -3.4471   -0.5580    0.7093 C.ar      1 <0>        -0.2066
      8 C7         -4.5954   -0.3083   -0.0483 C.ar      1 <0>        -0.0255
      9 C8         -5.6323   -1.2129   -0.0418 C.ar      1 <0>        -0.2083
     10 C9         -2.3318    0.4069    0.7006 C.2       1 <0>         0.5675
     11 O1         -1.3357    0.1908    1.3640 O.2       1 <0>        -0.5239
     12 N2         -2.4165    1.5281   -0.0424 N.am      1 <0>        -0.6627
     13 C10        -1.3205    2.3841   -0.1399 C.ar      1 <0>         0.2187
     14 C11        -0.0320    1.8669   -0.1515 C.ar      1 <0>        -0.1080
     15 C12         1.0532    2.7124   -0.2541 C.ar      1 <0>        -0.0968
     16 C13         0.8663    4.0886   -0.3409 C.ar      1 <0>         0.1124
     17 C14        -0.4118    4.6197   -0.3244 C.ar      1 <0>        -0.0769
     18 C15        -1.5161    3.7706   -0.2208 C.ar      1 <0>        -0.1616
     19 C16        -2.8812    4.3288   -0.2026 C.2       1 <0>         0.5709
     20 O2         -3.8427    3.5842   -0.2033 O.2       1 <0>        -0.5231
     21 N3         -3.0630    5.6642   -0.1852 N.am      1 <0>        -0.6639
     22 C17        -4.3529    6.1936   -0.0547 C.ar      1 <0>         0.1058
     23 C18        -4.6888    7.3730   -0.7061 C.ar      1 <0>        -0.1010
     24 C19        -5.9625    7.8916   -0.5813 C.ar      1 <0>        -0.1894
     25 C20        -6.9030    7.2405    0.2036 C.ar      1 <0>         0.1173
     26 C21        -6.5665    6.0650    0.8589 C.ar      1 <0>        -0.1315
     27 C22        -5.2948    5.5424    0.7307 C.ar      1 <0>        -0.0754
     28 O3         -8.1555    7.7545    0.3302 O.3       1 <0>        -0.3167
     29 C23        -8.4329    8.9676   -0.3722 C.3       1 <0>         0.0262
     30 N4          1.9735    4.9379   -0.4447 N.pl3     1 <0>        -1.0556
     31 S1          3.2059    4.5682   -1.4873 S.o2      1 <0>         2.6077
     32 O4          4.1520    5.6145   -1.3160 O.2       1 <0>        -0.9490
     33 O5          3.5492    3.2238   -1.1806 O.2       1 <0>        -0.9459
     34 C24         2.4628    4.6620   -3.1394 C.3       1 <0>        -0.6696
     35 H1         -5.5057   -4.5703    1.9790 H         1 <0>         0.0817
     36 H2         -7.2741   -4.6604    2.1603 H         1 <0>         0.0607
     37 H3         -6.4884   -5.3750    0.7320 H         1 <0>         0.0575
     38 H4         -7.7780   -3.3256   -0.9967 H         1 <0>         0.0531
     39 H5         -8.6756   -3.4523    0.5351 H         1 <0>         0.0705
     40 H6         -7.9951   -1.8873    0.0292 H         1 <0>         0.0721
     41 H7         -4.3375   -3.5186    2.0809 H         1 <0>         0.1326
     42 H8         -2.4767   -1.9156    2.0687 H         1 <0>         0.1367
     43 H9         -4.6668    0.5916   -0.6411 H         1 <0>         0.1269
     44 H10        -6.5177   -1.0228   -0.6303 H         1 <0>         0.1296
     45 H11        -3.2400    1.7394   -0.5094 H         1 <0>         0.4243
     46 H12         0.1209    0.7999   -0.0845 H         1 <0>         0.1523
     47 H13         2.0530    2.3042   -0.2675 H         1 <0>         0.1710
     48 H14        -0.5549    5.6881   -0.3912 H         1 <0>         0.1362
     49 H15        -2.3004    6.2585   -0.2631 H         1 <0>         0.4101
     50 H16        -3.9553    7.8826   -1.3133 H         1 <0>         0.1290
     51 H17        -6.2253    8.8065   -1.0914 H         1 <0>         0.1331
     52 H18        -7.2993    5.5587    1.4697 H         1 <0>         0.1356
     53 H19        -5.0330    4.6272    1.2409 H         1 <0>         0.1410
     54 H20        -7.7586    9.7506   -0.0254 H         1 <0>         0.0561
     55 H21        -8.2877    8.8101   -1.4409 H         1 <0>         0.0559
     56 H22        -9.4642    9.2676   -0.1860 H         1 <0>         0.1013
     57 H23         2.0192    5.7432    0.0940 H         1 <0>         0.4277
     58 H24         2.0795    5.6682   -3.3088 H         1 <0>         0.1311
     59 H25         3.2172    4.4292   -3.8909 H         1 <0>         0.1344
     60 H26         1.6450    3.9448   -3.2112 H         1 <0>         0.1305
@<TRIPOS>BOND
     1    1    2 1
     2    1   35 1
     3    1   36 1
     4    1   37 1
     5    2    3 1
     6    2    4 1
     7    3   38 1
     8    3   39 1
     9    3   40 1
    10    4    9 ar
    11    4    5 ar
    12    5    6 ar
    13    5   41 1
    14    6    7 ar
    15    6   42 1
    16    7    8 ar
    17    7   10 1
    18    8    9 ar
    19    8   43 1
    20    9   44 1
    21   10   11 2
    22   10   12 am
    23   12   13 1
    24   12   45 1
    25   13   18 ar
    26   13   14 ar
    27   14   15 ar
    28   14   46 1
    29   15   16 ar
    30   15   47 1
    31   16   17 ar
    32   16   30 1
    33   17   18 ar
    34   17   48 1
    35   18   19 1
    36   19   20 2
    37   19   21 am
    38   21   22 1
    39   21   49 1
    40   22   27 ar
    41   22   23 ar
    42   23   24 ar
    43   23   50 1
    44   24   25 ar
    45   24   51 1
    46   25   26 ar
    47   25   28 1
    48   26   27 ar
    49   26   52 1
    50   27   53 1
    51   28   29 1
    52   29   54 1
    53   29   55 1
    54   29   56 1
    55   30   31 1
    56   30   57 1
    57   31   32 2
    58   31   33 2
    59   31   34 1
    60   34   58 1
    61   34   59 1
    62   34   60 1
@<TRIPOS>MOLECULE
ZINC14959798
   61    64     0     0     0
SMALL
USER_CHARGES
1-[2-[(5-chloro-2-pyridyl)amino]-2-oxo-ethyl]-N-(1-isopropyl-4-piperidyl)indole-2-carboxamide
@<TRIPOS>ATOM
      1 C1         -3.5532   13.6053   -1.6191 C.3       1 <0>        -0.1861
      2 C2         -3.2180   13.1570   -0.1952 C.3       1 <0>         0.0279
      3 C3         -4.4961   13.1316    0.6456 C.3       1 <0>        -0.1824
      4 C4         -2.2935   11.3479    1.1211 C.3       1 <0>         0.0019
      5 C5         -1.5521   10.0119    1.0343 C.3       1 <0>        -0.1579
      6 C6         -2.4417    8.9851    0.3280 C.3       1 <0>         0.1413
      7 C7         -2.8160    9.5142   -1.0592 C.3       1 <0>        -0.1609
      8 C8         -3.5208   10.8646   -0.9117 C.3       1 <0>        -0.0061
      9 N1         -1.7151    7.7205    0.1900 N.am      1 <0>        -0.7178
     10 C9         -2.3943    6.5615    0.0807 C.2       1 <0>         0.5983
     11 O1         -3.6083    6.5728    0.0044 O.2       1 <0>        -0.5349
     12 C10        -1.6677    5.2832    0.0536 C.2       1 <0>         0.0111
     13 C11        -0.3161    5.1457    0.0347 C.2       1 <0>        -0.1221
     14 C12        -0.0241    3.7605    0.0111 C.ar      1 <0>        -0.1173
     15 C13         1.1708    3.0294   -0.0151 C.ar      1 <0>        -0.0611
     16 C14         1.1317    1.6657   -0.0349 C.ar      1 <0>        -0.1417
     17 C15        -0.0837    0.9925   -0.0294 C.ar      1 <0>        -0.0767
     18 C16        -1.2714    1.6884   -0.0091 C.ar      1 <0>        -0.1309
     19 C17        -1.2576    3.0804    0.0167 C.ar      1 <0>         0.1283
     20 N2         -2.2506    4.0308    0.0428 N.pl3     1 <0>        -0.4346
     21 C18        -3.6903    3.7599    0.0574 C.3       1 <0>         0.0855
     22 C19        -4.1456    3.5393    1.4769 C.2       1 <0>         0.4899
     23 O2         -3.3463    3.6021    2.3868 O.2       1 <0>        -0.4491
     24 N3         -5.4411    3.2721    1.7352 N.am      1 <0>        -0.6585
     25 C20        -5.8841    3.1781    3.0542 C.ar      1 <0>         0.3626
     26 C21        -7.1944    2.7932    3.3145 C.ar      1 <0>        -0.1916
     27 C22        -7.6201    2.6991    4.6276 C.ar      1 <0>        -0.0355
     28 C23        -6.7190    3.0049    5.6398 C.ar      1 <0>        -0.1194
     29 C24        -5.4329    3.3857    5.3075 C.ar      1 <0>         0.1492
     30 N4         -5.0548    3.4613    4.0458 N.ar      1 <0>        -0.4651
     31 Cl1        -7.2032    2.9090    7.3042 Cl        1 <0>        -0.0477
     32 H1         -4.2652   12.9084   -2.0613 H         1 <0>         0.0822
     33 H2         -3.9905   14.6034   -1.5924 H         1 <0>         0.1059
     34 H3         -2.6427   13.6234   -2.2181 H         1 <0>         0.0810
     35 H4         -2.5061   13.8539    0.2470 H         1 <0>         0.1365
     36 H5         -4.2573   12.8123    1.6601 H         1 <0>         0.0807
     37 H6         -4.9333   14.1297    0.6723 H         1 <0>         0.1053
     38 H7         -5.2080   12.4347    0.2035 H         1 <0>         0.0803
     39 H8         -3.2092   11.2183    1.6980 H         1 <0>         0.1345
     40 H9         -1.6573   12.0851    1.6108 H         1 <0>         0.1356
     41 H10        -1.3172    9.6601    2.0389 H         1 <0>         0.1213
     42 H11        -0.6291   10.1433    0.4696 H         1 <0>         0.0967
     43 H12        -3.3467    8.8232    0.9136 H         1 <0>         0.1053
     44 H13        -1.9132    9.6383   -1.6572 H         1 <0>         0.0921
     45 H14        -3.4842    8.8067   -1.5504 H         1 <0>         0.1178
     46 H15        -4.4307   10.7372   -0.3253 H         1 <0>         0.1333
     47 H16        -3.7759   11.2508   -1.8985 H         1 <0>         0.1355
     48 H17        -0.7452    7.7173    0.1773 H         1 <0>         0.4106
     49 H18         0.4059    5.9489    0.0376 H         1 <0>         0.1509
     50 H19         2.1203    3.5439   -0.0192 H         1 <0>         0.1276
     51 H20         2.0541    1.1043   -0.0554 H         1 <0>         0.1291
     52 H21        -0.0969   -0.0873   -0.0457 H         1 <0>         0.1317
     53 H22        -2.2111    1.1561   -0.0092 H         1 <0>         0.1199
     54 H23        -4.2242    4.6099   -0.3675 H         1 <0>         0.1437
     55 H24        -3.8981    2.8680   -0.5337 H         1 <0>         0.1202
     56 H25        -6.0654    3.1453    1.0037 H         1 <0>         0.4208
     57 H26        -7.8699    2.5670    2.5028 H         1 <0>         0.1479
     58 H27        -8.6311    2.3989    4.8603 H         1 <0>         0.1525
     59 H28        -4.7283    3.6241    6.0905 H         1 <0>         0.1691
     60 N5         -2.6035   11.8144   -0.2472 N.4       1 <0>        -0.3935
     61 H29        -1.7313   11.8676   -0.7864 H         1 <0>         0.4271
@<TRIPOS>BOND
     1    1    2 1
     2    1   32 1
     3    1   33 1
     4    1   34 1
     5    2    3 1
     6    2   35 1
     7    2   60 1
     8    3   36 1
     9    3   37 1
    10    3   38 1
    11    4    5 1
    12    4   39 1
    13    4   40 1
    14    4   60 1
    15    5    6 1
    16    5   41 1
    17    5   42 1
    18    6    7 1
    19    6    9 1
    20    6   43 1
    21    7    8 1
    22    7   44 1
    23    7   45 1
    24    8   46 1
    25    8   47 1
    26    8   60 1
    27    9   10 am
    28    9   48 1
    29   10   11 2
    30   10   12 1
    31   12   20 1
    32   12   13 2
    33   13   14 1
    34   13   49 1
    35   14   19 ar
    36   14   15 ar
    37   15   16 ar
    38   15   50 1
    39   16   17 ar
    40   16   51 1
    41   17   18 ar
    42   17   52 1
    43   18   19 ar
    44   18   53 1
    45   19   20 1
    46   20   21 1
    47   21   22 1
    48   21   54 1
    49   21   55 1
    50   22   23 2
    51   22   24 am
    52   24   25 1
    53   24   56 1
    54   25   30 ar
    55   25   26 ar
    56   26   27 ar
    57   26   57 1
    58   27   28 ar
    59   27   58 1
    60   28   29 ar
    61   28   31 1
    62   29   30 ar
    63   29   59 1
    64   60   61 1
@<TRIPOS>MOLECULE
ZINC13646511
   61    65     0     0     0
SMALL
USER_CHARGES
1-[[5-(5-chloro-2-thienyl)isoxazol-3-yl]methyl]-N-(1-isopropyl-4-piperidyl)indole-2-carboxamide
@<TRIPOS>ATOM
      1 C1         -4.3162   13.9738    3.3468 C.3       1 <0>        -0.1863
      2 C2         -3.0098   14.7588    3.2117 C.3       1 <0>         0.0280
      3 C3         -2.2575   14.7301    4.5437 C.3       1 <0>        -0.1822
      4 C4         -0.9127   14.8773    2.0082 C.3       1 <0>         0.0022
      5 C5         -0.1386   14.3060    0.8180 C.3       1 <0>        -0.1575
      6 C6          0.1342   12.8188    1.0592 C.3       1 <0>         0.1434
      7 C7         -1.1967   12.0912    1.2687 C.3       1 <0>        -0.1610
      8 C8         -1.9402   12.7266    2.4458 C.3       1 <0>        -0.0057
      9 N1          0.8240   12.2528   -0.1027 N.am      1 <0>        -0.7208
     10 C9          1.5997   11.1600    0.0404 C.2       1 <0>         0.5958
     11 O1          1.6540   10.5889    1.1132 O.2       1 <0>        -0.5202
     12 C10         2.3804   10.6579   -1.1002 C.2       1 <0>         0.0170
     13 C11         2.4817   11.2627   -2.3126 C.2       1 <0>        -0.1314
     14 C12         3.3217   10.4628   -3.1245 C.ar      1 <0>        -0.1175
     15 C13         3.7792   10.5790   -4.4437 C.ar      1 <0>        -0.0628
     16 C14         4.6144    9.6307   -4.9583 C.ar      1 <0>        -0.1414
     17 C15         5.0059    8.5409   -4.1907 C.ar      1 <0>        -0.0786
     18 C16         4.5657    8.4016   -2.8937 C.ar      1 <0>        -0.1316
     19 C17         3.7198    9.3606   -2.3431 C.ar      1 <0>         0.1172
     20 N2          3.1284    9.4965   -1.1095 N.pl3     1 <0>        -0.4463
     21 C18         3.2727    8.5659    0.0127 C.3       1 <0>         0.1893
     22 C19         2.1232    7.5914    0.0082 C.2       1 <0>         0.0063
     23 C20         2.2122    6.1866    0.0008 C.2       1 <0>        -0.2022
     24 C21         0.9026    5.7741   -0.0033 C.2       1 <0>         0.0638
     25 O2          0.1586    6.8960    0.0103 O.3       1 <0>         0.1180
     26 N3          0.8530    7.8856    0.0165 N.2       1 <0>        -0.3313
     27 C22         0.4124    4.3887   -0.0141 C.2       1 <0>        -0.1202
     28 C23        -0.8904    3.9250   -0.0132 C.2       1 <0>        -0.1045
     29 C24        -1.1016    2.5662   -0.0299 C.2       1 <0>        -0.1434
     30 C25        -0.0310    1.7270   -0.0359 C.2       1 <0>        -0.1119
     31 S1          1.3438    2.8656   -0.0311 S.3       1 <0>         0.1755
     32 Cl1        -0.0077   -0.0087   -0.0518 Cl        1 <0>         0.0352
     33 H1         -4.0935   12.9414    3.6162 H         1 <0>         0.0823
     34 H2         -4.9335   14.4267    4.1226 H         1 <0>         0.1057
     35 H3         -4.8521   13.9943    2.3979 H         1 <0>         0.0809
     36 H4         -3.2325   15.7912    2.9424 H         1 <0>         0.1361
     37 H5         -1.3268   15.2893    4.4474 H         1 <0>         0.0807
     38 H6         -2.8749   15.1829    5.3195 H         1 <0>         0.1050
     39 H7         -2.0348   13.6976    4.8130 H         1 <0>         0.0805
     40 H8         -0.3164   14.7704    2.9143 H         1 <0>         0.1344
     41 H9         -1.1210   15.9327    1.8331 H         1 <0>         0.1349
     42 H10         0.8074   14.8368    0.7106 H         1 <0>         0.1206
     43 H11        -0.7280   14.4251   -0.0912 H         1 <0>         0.0957
     44 H12         0.7577   12.7019    1.9456 H         1 <0>         0.1050
     45 H13        -1.8033   12.1754    0.3670 H         1 <0>         0.0906
     46 H14        -1.0067   11.0396    1.4832 H         1 <0>         0.1193
     47 H15        -1.3390   12.6298    3.3499 H         1 <0>         0.1332
     48 H16        -2.8947   12.2201    2.5885 H         1 <0>         0.1348
     49 H17         0.7224   12.6646   -0.9751 H         1 <0>         0.4086
     50 H18         2.0067   12.1877   -2.6046 H         1 <0>         0.1497
     51 H19         3.4812   11.4233   -5.0476 H         1 <0>         0.1270
     52 H20         4.9690    9.7246   -5.9741 H         1 <0>         0.1287
     53 H21         5.6618    7.7955   -4.6157 H         1 <0>         0.1321
     54 H22         4.8754    7.5506   -2.3051 H         1 <0>         0.1234
     55 H23         3.2727    9.1234    0.9493 H         1 <0>         0.1261
     56 H24         4.2115    8.0209   -0.0857 H         1 <0>         0.1143
     57 H25         3.1028    5.5758   -0.0027 H         1 <0>         0.1792
     58 H26        -1.7223    4.6137   -0.0042 H         1 <0>         0.1507
     59 H27        -2.1062    2.1698   -0.0351 H         1 <0>         0.1528
     60 N4         -2.1936   14.1508    2.1407 N.4       1 <0>        -0.3936
     61 H28        -2.7063   14.2151    1.2535 H         1 <0>         0.4268
@<TRIPOS>BOND
     1    1    2 1
     2    1   33 1
     3    1   34 1
     4    1   35 1
     5    2    3 1
     6    2   36 1
     7    2   60 1
     8    3   37 1
     9    3   38 1
    10    3   39 1
    11    4    5 1
    12    4   40 1
    13    4   41 1
    14    4   60 1
    15    5    6 1
    16    5   42 1
    17    5   43 1
    18    6    7 1
    19    6    9 1
    20    6   44 1
    21    7    8 1
    22    7   45 1
    23    7   46 1
    24    8   47 1
    25    8   48 1
    26    8   60 1
    27    9   10 am
    28    9   49 1
    29   10   11 2
    30   10   12 1
    31   12   20 1
    32   12   13 2
    33   13   14 1
    34   13   50 1
    35   14   19 ar
    36   14   15 ar
    37   15   16 ar
    38   15   51 1
    39   16   17 ar
    40   16   52 1
    41   17   18 ar
    42   17   53 1
    43   18   19 ar
    44   18   54 1
    45   19   20 1
    46   20   21 1
    47   21   22 1
    48   21   55 1
    49   21   56 1
    50   22   26 2
    51   22   23 1
    52   23   24 2
    53   23   57 1
    54   24   25 1
    55   24   27 1
    56   25   26 1
    57   27   31 1
    58   27   28 2
    59   28   29 1
    60   28   58 1
    61   29   30 2
    62   29   59 1
    63   30   31 1
    64   30   32 1
    65   60   61 1
@<TRIPOS>MOLECULE
ZINC03964126
   47    50     0     0     0
SMALL
USER_CHARGES
5-chloro-N-[[2-oxo-3-[4-(3-oxomorpholin-4-yl)phenyl]-oxazolidin-5-yl]methyl]thiophene-2-carboxamide
@<TRIPOS>ATOM
      1 C1          1.0727    1.9592    0.6812 C.ar      1 <0>        -0.0746
      2 C2         -0.1132    1.2525    0.6888 C.ar      1 <0>        -0.1426
      3 C3         -1.2226    1.7506    0.0184 C.ar      1 <0>         0.1873
      4 C4         -1.1422    2.9647   -0.6507 C.ar      1 <0>        -0.1444
      5 C5          0.0437    3.6715   -0.6583 C.ar      1 <0>        -0.0751
      6 C6          1.1546    3.1708    0.0076 C.ar      1 <0>         0.1089
      7 N1          2.3581    3.8877   -0.0005 N.am      1 <0>        -0.5658
      8 C7          2.5931    4.8772    1.0482 C.3       1 <0>         0.0803
      9 C8          4.0888    5.1965    1.1356 C.3       1 <0>         0.0428
     10 O1          4.5712    5.4824   -0.1825 O.3       1 <0>        -0.3678
     11 C9          4.5797    4.3347   -1.0350 C.3       1 <0>         0.0515
     12 C10         3.2461    3.6433   -0.9721 C.2       1 <0>         0.4891
     13 O2          2.9650    2.8353   -1.8318 O.2       1 <0>        -0.5239
     14 N2         -2.4246    1.0306    0.0213 N.am      1 <0>        -0.5690
     15 C11        -3.6713    1.4445   -0.6405 C.3       1 <0>         0.0676
     16 C12        -4.6527    0.2997   -0.3234 C.3       1 <0>         0.0566
     17 H1         -4.9922   -0.1850   -1.2387 H         1 <0>         0.1350
     18 O3         -3.8672   -0.6251    0.4832 O.3       1 <0>        -0.3113
     19 C13        -2.6274   -0.1447    0.6323 C.2       1 <0>         0.6467
     20 O4         -1.7645   -0.7211    1.2644 O.2       1 <0>        -0.4930
     21 C14        -5.8453    0.8287    0.4759 C.3       1 <0>         0.1142
     22 N3         -6.7161   -0.2882    0.8507 N.am      1 <0>        -0.7229
     23 C15        -7.8363   -0.0593    1.5642 C.2       1 <0>         0.6108
     24 O5         -8.1246    1.0754    1.8972 O.2       1 <0>        -0.5169
     25 C16        -8.7069   -1.1760    1.9389 C.2       1 <0>        -0.2373
     26 C17        -9.8871   -1.1579    2.6664 C.2       1 <0>        -0.0587
     27 C18       -10.5123   -2.3614    2.8737 C.2       1 <0>        -0.1605
     28 C19        -9.9503   -3.4958    2.3746 C.2       1 <0>        -0.1284
     29 S1         -8.5206   -2.9147    1.5849 S.3       1 <0>         0.1962
     30 Cl1       -10.5259   -5.1289    2.4983 Cl        1 <0>         0.0298
     31 H2          1.9366    1.5699    1.1994 H         1 <0>         0.1307
     32 H3         -0.1769    0.3101    1.2123 H         1 <0>         0.1623
     33 H4         -2.0061    3.3540   -1.1689 H         1 <0>         0.1333
     34 H5          0.1075    4.6136   -1.1825 H         1 <0>         0.1316
     35 H6          2.0381    5.7868    0.8186 H         1 <0>         0.0808
     36 H7          2.2533    4.4791    2.0043 H         1 <0>         0.0902
     37 H8          4.6258    4.3404    1.5439 H         1 <0>         0.0673
     38 H9          4.2394    6.0652    1.7766 H         1 <0>         0.1206
     39 H10         5.3601    3.6470   -0.7091 H         1 <0>         0.0949
     40 H11         4.7781    4.6465   -2.0604 H         1 <0>         0.1345
     41 H12        -4.0309    2.3859   -0.2252 H         1 <0>         0.1099
     42 H13        -3.5227    1.5316   -1.7168 H         1 <0>         0.1120
     43 H14        -5.4868    1.3278    1.3761 H         1 <0>         0.0866
     44 H15        -6.4057    1.5375   -0.1339 H         1 <0>         0.1046
     45 H16        -6.4863   -1.1925    0.5853 H         1 <0>         0.4066
     46 H17       -10.2979   -0.2360    3.0507 H         1 <0>         0.1578
     47 H18       -11.4367   -2.4085    3.4302 H         1 <0>         0.1518
@<TRIPOS>BOND
     1    1    6 ar
     2    1    2 ar
     3    1   31 1
     4    2    3 ar
     5    2   32 1
     6    3    4 ar
     7    3   14 1
     8    4    5 ar
     9    4   33 1
    10    5    6 ar
    11    5   34 1
    12    6    7 1
    13    7   12 am
    14    7    8 1
    15    8    9 1
    16    8   35 1
    17    8   36 1
    18    9   10 1
    19    9   37 1
    20    9   38 1
    21   10   11 1
    22   11   12 1
    23   11   39 1
    24   11   40 1
    25   12   13 2
    26   14   19 am
    27   14   15 1
    28   15   16 1
    29   15   41 1
    30   15   42 1
    31   16   17 1
    32   16   18 1
    33   16   21 1
    34   18   19 1
    35   19   20 2
    36   21   22 1
    37   21   43 1
    38   21   44 1
    39   22   23 am
    40   22   45 1
    41   23   24 2
    42   23   25 1
    43   25   29 1
    44   25   26 2
    45   26   27 1
    46   26   46 1
    47   27   28 2
    48   27   47 1
    49   28   29 1
    50   28   30 1
@<TRIPOS>MOLECULE
ZINC03791107
   62    65     0     0     0
SMALL
USER_CHARGES
3-(7-amidino-2-naphthyl)-2-[4-(1-ethanimidoylpyrrolidin-3-yl)oxyphenyl]-propanoic acid
@<TRIPOS>ATOM
      1 C1         -5.0940    5.9928   -0.1468 C.3       1 <0>        -0.1541
      2 C2         -5.1629    5.2111    1.1398 C.cat     1 <0>         0.5423
      3 N1         -4.2222    4.2525    1.4101 N.pl3     1 <0>        -0.5640
      4 C3         -3.0946    3.8842    0.5348 C.3       1 <0>         0.0859
      5 C4         -2.7351    2.4275    0.9390 C.3       1 <0>        -0.1558
      6 C5         -2.9628    2.4709    2.4731 C.3       1 <0>         0.0765
      7 H1         -2.0884    2.8773    2.9814 H         1 <0>         0.1079
      8 C6         -4.1706    3.4199    2.6209 C.3       1 <0>         0.0683
      9 O1         -3.2776    1.1702    2.9744 O.3       1 <0>        -0.3020
     10 C7         -2.2551    0.4498    3.5061 C.ar      1 <0>         0.0983
     11 C8         -2.5091   -0.7673    4.1213 C.ar      1 <0>        -0.1421
     12 C9         -1.4673   -1.5006    4.6556 C.ar      1 <0>        -0.0419
     13 C10        -0.1739   -1.0166    4.5882 C.ar      1 <0>        -0.0630
     14 C11         0.0812    0.1988    3.9805 C.ar      1 <0>        -0.0838
     15 C12        -0.9564    0.9330    3.4393 C.ar      1 <0>        -0.2074
     16 C13         0.9599   -1.8155    5.1777 C.3       1 <0>        -0.0961
     17 H2          1.8974   -1.2793    5.0301 H         1 <0>         0.0800
     18 C14         1.0374   -3.1780    4.4861 C.3       1 <0>        -0.0572
     19 C15         2.2441   -3.9283    4.9880 C.ar      1 <0>        -0.0714
     20 C16         3.4637   -3.7873    4.3284 C.ar      1 <0>        -0.0584
     21 C17         4.5740   -4.4469    4.7588 C.ar      1 <0>        -0.1431
     22 C18         4.4920   -5.2921    5.8781 C.ar      1 <0>        -0.0103
     23 C19         5.6203   -5.9910    6.3441 C.ar      1 <0>        -0.0865
     24 C20         5.5167   -6.8018    7.4281 C.ar      1 <0>        -0.1014
     25 C21         4.2909   -6.9566    8.0981 C.ar      1 <0>        -0.1777
     26 C22         3.1632   -6.2825    7.6648 C.ar      1 <0>         0.0095
     27 C23         3.2500   -5.4399    6.5461 C.ar      1 <0>        -0.0688
     28 C24         2.1259   -4.7380    6.0754 C.ar      1 <0>         0.0060
     29 C25         4.2060   -7.8478    9.2769 C.cat     1 <0>         0.6014
     30 N2          5.3260   -8.5218    9.7133 N.pl3     1 <0>        -0.7881
     31 C26         0.7213   -2.0136    6.6524 C.2       1 <0>         0.4679
     32 O2         -0.2680   -1.5533    7.1715 O.co2     1 <0>        -0.6228
     33 H3         -4.2355    5.6588   -0.7293 H         1 <0>         0.1172
     34 H4         -6.0071    5.8309   -0.7197 H         1 <0>         0.1304
     35 H5         -4.9896    7.0542    0.0782 H         1 <0>         0.1310
     36 H6         -6.8225    6.1036    1.8878 H         1 <0>         0.4577
     37 H7         -3.3980    3.9234   -0.5114 H         1 <0>         0.1097
     38 H8         -2.2473    4.5476    0.7083 H         1 <0>         0.1077
     39 H9         -1.6954    2.1989    0.7046 H         1 <0>         0.1127
     40 H10        -3.4073    1.7128    0.4642 H         1 <0>         0.1016
     41 H11        -5.0890    2.8399    2.7113 H         1 <0>         0.1104
     42 H12        -4.0405    4.0515    3.4997 H         1 <0>         0.1079
     43 H13        -3.5198   -1.1436    4.1785 H         1 <0>         0.1272
     44 H14        -1.6640   -2.4504    5.1307 H         1 <0>         0.1287
     45 H15         1.0924    0.5744    3.9285 H         1 <0>         0.1224
     46 H16        -0.7567    1.8826    2.9651 H         1 <0>         0.1206
     47 H17         0.1361   -3.7497    4.7076 H         1 <0>         0.0711
     48 H18         1.1209   -3.0345    3.4088 H         1 <0>         0.0697
     49 H19         3.5298   -3.1419    3.4650 H         1 <0>         0.1270
     50 H20         5.5130   -4.3241    4.2395 H         1 <0>         0.1324
     51 H21         6.5692   -5.8823    5.8397 H         1 <0>         0.1407
     52 H22         6.3875   -7.3351    7.7799 H         1 <0>         0.1270
     53 H23         2.2236   -6.4040    8.1832 H         1 <0>         0.1355
     54 H24         1.1737   -4.8407    6.5746 H         1 <0>         0.1355
     55 H25         2.9162   -8.5565   10.6840 H         1 <0>         0.4393
     56 H26         6.1699   -8.4121    9.2480 H         1 <0>         0.4412
     57 H27         5.2703   -9.1058   10.4858 H         1 <0>         0.4262
     58 N3         -6.0995    5.4010    2.0429 N.pl3     1 <0>        -0.7653
     59 H28        -6.1030    4.8422    2.9042 H         1 <0>         0.4433
     60 N4          3.0255   -7.9545    9.8677 N.pl3     1 <0>        -0.7667
     61 H29         2.2203   -7.4314    9.5042 H         1 <0>         0.4604
     62 O3          1.6076   -2.7013    7.3893 O.co2     1 <0>        -0.7504
@<TRIPOS>BOND
     1    1    2 1
     2    1   33 1
     3    1   34 1
     4    1   35 1
     5    2    3 1
     6    2   58 2
     7    3    8 1
     8    3    4 1
     9    4    5 1
    10    4   37 1
    11    4   38 1
    12    5    6 1
    13    5   39 1
    14    5   40 1
    15    6    7 1
    16    6    8 1
    17    6    9 1
    18    8   41 1
    19    8   42 1
    20    9   10 1
    21   10   15 ar
    22   10   11 ar
    23   11   12 ar
    24   11   43 1
    25   12   13 ar
    26   12   44 1
    27   13   14 ar
    28   13   16 1
    29   14   15 ar
    30   14   45 1
    31   15   46 1
    32   16   17 1
    33   16   18 1
    34   16   31 1
    35   18   19 1
    36   18   47 1
    37   18   48 1
    38   19   28 ar
    39   19   20 ar
    40   20   21 ar
    41   20   49 1
    42   21   22 ar
    43   21   50 1
    44   22   27 ar
    45   22   23 ar
    46   23   24 ar
    47   23   51 1
    48   24   25 ar
    49   24   52 1
    50   25   26 ar
    51   25   29 1
    52   26   27 ar
    53   26   53 1
    54   27   28 ar
    55   28   54 1
    56   29   30 1
    57   29   60 2
    58   30   56 1
    59   30   57 1
    60   31   32 2
    61   31   62 1
    62   36   58 1
    63   55   60 1
    64   58   59 1
    65   60   61 1
@<TRIPOS>MOLECULE
ZINC03952416
   70    73     0     0     0
SMALL
USER_CHARGES
2-[(7-amidino-2-naphthyl)methyl-[4-[(1-ethanimidoyl-4-piperidyl)oxy]phenyl]-sulfamoyl]acetic acid
@<TRIPOS>ATOM
      1 C1         -4.8156   -6.9086    0.2191 C.3       1 <0>        -0.1622
      2 C2         -5.1174   -6.7189   -1.2452 C.cat     1 <0>         0.5282
      3 H1         -5.7695   -8.6029   -1.6136 H         1 <0>         0.4564
      4 N1         -4.8997   -5.5030   -1.8375 N.pl3     1 <0>        -0.5586
      5 C3         -5.2987   -5.2673   -3.2318 C.3       1 <0>         0.0883
      6 C4         -4.0865   -4.7467   -4.0104 C.3       1 <0>        -0.1362
      7 C5         -3.5209   -3.5140   -3.3015 C.3       1 <0>         0.0786
      8 C6         -3.0616   -3.8992   -1.8935 C.3       1 <0>        -0.1633
      9 C7         -4.2623   -4.4098   -1.0907 C.3       1 <0>         0.0909
     10 O1         -2.4096   -3.0066   -4.0427 O.3       1 <0>        -0.3027
     11 C8         -2.1977   -1.6639   -3.9964 C.ar      1 <0>         0.0935
     12 C9         -2.9673   -0.8692   -3.1597 C.ar      1 <0>        -0.1687
     13 C10        -2.7536    0.4943   -3.1128 C.ar      1 <0>        -0.1128
     14 C11        -1.7675    1.0698   -3.9032 C.ar      1 <0>         0.1545
     15 C12        -1.0009    0.2741   -4.7444 C.ar      1 <0>        -0.1118
     16 C13        -1.2126   -1.0900   -4.7863 C.ar      1 <0>        -0.1137
     17 N2         -1.5500    2.4514   -3.8562 N.pl3     1 <0>        -0.9430
     18 C14        -0.2348    2.9981   -4.1988 C.3       1 <0>         0.1337
     19 C15         0.6838    2.8791   -3.0100 C.ar      1 <0>        -0.0921
     20 C16         1.5121    1.7647   -2.8910 C.ar      1 <0>        -0.0595
     21 C17         2.3536    1.6264   -1.8299 C.ar      1 <0>        -0.1144
     22 C18         2.3915    2.6199   -0.8371 C.ar      1 <0>        -0.0085
     23 C19         3.2505    2.5062    0.2711 C.ar      1 <0>        -0.0845
     24 C20         3.2698    3.4791    1.2177 C.ar      1 <0>        -0.0898
     25 C21         2.4398    4.6081    1.1082 C.ar      1 <0>        -0.1553
     26 C22         1.5840    4.7493    0.0304 C.ar      1 <0>        -0.0087
     27 C23         1.5492    3.7541   -0.9582 C.ar      1 <0>        -0.0610
     28 C24         0.6965    3.8642   -2.0712 C.ar      1 <0>        -0.0869
     29 C25         2.4813    5.6543    2.1547 C.cat     1 <0>         0.5985
     30 H2          1.6692    7.4419    2.6932 H         1 <0>         0.4447
     31 N3          3.3318    5.5192    3.2305 N.pl3     1 <0>        -0.7837
     32 S1         -2.7815    3.4690   -3.4199 S.o2      1 <0>         2.6099
     33 O2         -2.4664    4.7072   -4.0418 O.2       1 <0>        -0.9316
     34 O3         -3.9695    2.7681   -3.7620 O.2       1 <0>        -0.9382
     35 C26        -2.6434    3.6220   -1.6177 C.3       1 <0>        -0.6599
     36 C27        -3.6006    4.6782   -1.1285 C.2       1 <0>         0.4872
     37 O4         -4.3038    5.2672   -1.9149 O.co2     1 <0>        -0.6126
     38 H3         -4.5078   -5.9572    0.6528 H         1 <0>         0.1214
     39 H4         -5.7081   -7.2692    0.7303 H         1 <0>         0.1311
     40 H5         -4.0124   -7.6367    0.3331 H         1 <0>         0.1308
     41 H6         -6.0983   -4.5272   -3.2630 H         1 <0>         0.1154
     42 H7         -5.6447   -6.2008   -3.6756 H         1 <0>         0.0980
     43 H8         -4.3918   -4.4770   -5.0213 H         1 <0>         0.1091
     44 H9         -3.3224   -5.5228   -4.0555 H         1 <0>         0.0887
     45 H10        -4.2931   -2.7475   -3.2346 H         1 <0>         0.0887
     46 H11        -2.3073   -4.6834   -1.9587 H         1 <0>         0.0893
     47 H12        -2.6374   -3.0261   -1.3975 H         1 <0>         0.1054
     48 H13        -4.9774   -3.5998   -0.9473 H         1 <0>         0.1085
     49 H14        -3.9267   -4.7769   -0.1209 H         1 <0>         0.1175
     50 H15        -3.7343   -1.3169   -2.5451 H         1 <0>         0.1315
     51 H16        -3.3534    1.1131   -2.4618 H         1 <0>         0.1316
     52 H17        -0.2370    0.7215   -5.3631 H         1 <0>         0.1388
     53 H18        -0.6137   -1.7095   -5.4375 H         1 <0>         0.1369
     54 H19         0.1828    2.4413   -5.0377 H         1 <0>         0.1059
     55 H20        -0.3380    4.0475   -4.4746 H         1 <0>         0.1226
     56 H21         1.4858    0.9989   -3.6521 H         1 <0>         0.1380
     57 H22         2.9894    0.7570   -1.7516 H         1 <0>         0.1417
     58 H23         3.8944    1.6447    0.3690 H         1 <0>         0.1474
     59 H24         3.9318    3.3846    2.0658 H         1 <0>         0.1345
     60 H25         0.9475    5.6182   -0.0491 H         1 <0>         0.1445
     61 H26         0.0523    4.7244   -2.1783 H         1 <0>         0.1437
     62 H27         3.9032    4.7386    3.3021 H         1 <0>         0.4413
     63 H28         3.3590    6.2046    3.9163 H         1 <0>         0.4298
     64 H29        -2.8873    2.6670   -1.1521 H         1 <0>         0.1327
     65 H30        -1.6243    3.9050   -1.3541 H         1 <0>         0.1277
     66 N4         -5.5906   -7.6794   -2.0082 N.pl3     1 <0>        -0.7681
     67 H31        -5.7801   -7.4999   -3.0012 H         1 <0>         0.4395
     68 N5          1.6770    6.6947    1.9988 N.pl3     1 <0>        -0.7567
     69 H32         1.0612    6.7493    1.1790 H         1 <0>         0.4630
     70 O5         -3.6719    4.9646    0.1810 O.co2     1 <0>        -0.7350
@<TRIPOS>BOND
     1    1    2 1
     2    1   38 1
     3    1   39 1
     4    1   40 1
     5    2    4 1
     6    2   66 2
     7    3   66 1
     8    4    9 1
     9    4    5 1
    10    5    6 1
    11    5   41 1
    12    5   42 1
    13    6    7 1
    14    6   43 1
    15    6   44 1
    16    7    8 1
    17    7   10 1
    18    7   45 1
    19    8    9 1
    20    8   46 1
    21    8   47 1
    22    9   48 1
    23    9   49 1
    24   10   11 1
    25   11   16 ar
    26   11   12 ar
    27   12   13 ar
    28   12   50 1
    29   13   14 ar
    30   13   51 1
    31   14   15 ar
    32   14   17 1
    33   15   16 ar
    34   15   52 1
    35   16   53 1
    36   17   18 1
    37   17   32 1
    38   18   19 1
    39   18   54 1
    40   18   55 1
    41   19   28 ar
    42   19   20 ar
    43   20   21 ar
    44   20   56 1
    45   21   22 ar
    46   21   57 1
    47   22   27 ar
    48   22   23 ar
    49   23   24 ar
    50   23   58 1
    51   24   25 ar
    52   24   59 1
    53   25   26 ar
    54   25   29 1
    55   26   27 ar
    56   26   60 1
    57   27   28 ar
    58   28   61 1
    59   29   31 1
    60   29   68 2
    61   30   68 1
    62   31   62 1
    63   31   63 1
    64   32   33 2
    65   32   34 2
    66   32   35 1
    67   35   36 1
    68   35   64 1
    69   35   65 1
    70   36   37 2
    71   36   70 1
    72   66   67 1
    73   68   69 1
@<TRIPOS>MOLECULE
ZINC00036634
   18    18     0     0     0
SMALL
USER_CHARGES

@<TRIPOS>ATOM
      1 C1         -0.0167    1.3793    0.0096 C.ar      1 <0>        -0.0493
      2 C2          1.1684    2.0931    0.0021 C.ar      1 <0>        -0.1131
      3 C3          2.3774    1.4284   -0.0134 C.ar      1 <0>        -0.0592
      4 C4          2.4031    0.0335   -0.0211 C.ar      1 <0>        -0.1590
      5 C5          1.2045   -0.6805   -0.0130 C.ar      1 <0>        -0.0593
      6 C6          0.0021   -0.0041    0.0020 C.ar      1 <0>        -0.1131
      7 C7          3.6962   -0.6857   -0.0382 C.cat     1 <0>         0.6008
      8 N1          3.7175   -2.0169   -0.0455 N.pl3     1 <0>        -0.7620
      9 N2          4.8384   -0.0015   -0.0463 N.pl3     1 <0>        -0.7620
     10 H1         -0.9604    1.9041    0.0260 H         1 <0>         0.1474
     11 H2          1.1472    3.1728    0.0081 H         1 <0>         0.1491
     12 H3          3.3019    1.9867   -0.0199 H         1 <0>         0.1374
     13 H4          1.2179   -1.7604   -0.0192 H         1 <0>         0.1374
     14 H5         -0.9265   -0.5556    0.0079 H         1 <0>         0.1491
     15 H6          2.8854   -2.5154   -0.0396 H         1 <0>         0.4443
     16 H7          4.8229    0.9683   -0.0410 H         1 <0>         0.4443
     17 H8          5.6860   -0.4730   -0.0576 H         1 <0>         0.4336
     18 H9          4.5652   -2.4884   -0.0567 H         1 <0>         0.4336
@<TRIPOS>BOND
     1    1    6 ar
     2    1    2 ar
     3    1   10 1
     4    2    3 ar
     5    2   11 1
     6    3    4 ar
     7    3   12 1
     8    4    5 ar
     9    4    7 1
    10    5    6 ar
    11    5   13 1
    12    6   14 1
    13    7    8 2
    14    7    9 1
    15    8   15 1
    16    8   18 1
    17    9   16 1
    18    9   17 1
@<TRIPOS>MOLECULE
ZINC11677837
   59    63     0     0     0
SMALL
USER_CHARGES
1-(4-methoxyphenyl)-7-oxo-6-[4-(2-oxo-1-piperidyl)phenyl]-4,5-dihydropyrazolo[5,4-c]pyridine-3-carboxamide
@<TRIPOS>ATOM
      1 C1          3.9911    9.6190   -0.0270 C.3       1 <0>         0.0230
      2 O1          2.7303    9.6695    0.6437 O.3       1 <0>        -0.3102
      3 C2          1.9295    8.5767    0.5353 C.ar      1 <0>         0.1510
      4 C3          0.6915    8.5591    1.1620 C.ar      1 <0>        -0.1362
      5 C4         -0.1223    7.4497    1.0523 C.ar      1 <0>        -0.0311
      6 C5          0.2984    6.3503    0.3147 C.ar      1 <0>         0.0658
      7 C6          1.5405    6.3661   -0.3072 C.ar      1 <0>        -0.0464
      8 C7          2.3506    7.4787   -0.2017 C.ar      1 <0>        -0.2011
      9 N1         -0.5264    5.2246    0.2030 N.pl3     1 <0>        -0.1695
     10 C8         -1.8587    5.2536   -0.0265 C.2       1 <0>        -0.0483
     11 C9         -2.2851    3.9413   -0.0824 C.2       1 <0>        -0.0932
     12 C10        -1.1522    3.1653    0.1436 C.2       1 <0>        -0.0104
     13 N2         -0.1317    3.9989    0.3025 N.2       1 <0>        -0.2351
     14 C11        -1.0951    1.6902    0.1913 C.2       1 <0>         0.6133
     15 O2         -2.1076    1.0371    0.0288 O.2       1 <0>        -0.5270
     16 N3          0.0794    1.0682    0.4151 N.am      1 <0>        -0.8392
     17 C12        -3.7185    3.5812   -0.3503 C.3       1 <0>        -0.0653
     18 C13        -4.6134    4.7185    0.1487 C.3       1 <0>         0.1123
     19 N4         -4.1236    6.0319   -0.2517 N.am      1 <0>        -0.5597
     20 C14        -2.8112    6.3561   -0.2247 C.2       1 <0>         0.6035
     21 O3         -2.4361    7.5041   -0.3710 O.2       1 <0>        -0.5000
     22 C15        -5.0482    6.9954   -0.6717 C.ar      1 <0>         0.1379
     23 C16        -5.9601    7.5237    0.2330 C.ar      1 <0>        -0.1032
     24 C17        -6.8680    8.4780   -0.1800 C.ar      1 <0>        -0.1067
     25 C18        -6.8772    8.9014   -1.5026 C.ar      1 <0>         0.1404
     26 C19        -5.9693    8.3690   -2.4085 C.ar      1 <0>        -0.0895
     27 C20        -5.0575    7.4189   -1.9945 C.ar      1 <0>        -0.0942
     28 N5         -7.8027    9.8652   -1.9230 N.am      1 <0>        -0.5643
     29 C21        -7.6589   11.2209   -1.4075 C.3       1 <0>         0.1122
     30 C22        -8.4106   12.2130   -2.2990 C.3       1 <0>        -0.1365
     31 C23        -9.8431   11.7025   -2.4960 C.3       1 <0>        -0.1260
     32 C24        -9.7896   10.4218   -3.3327 C.3       1 <0>        -0.1326
     33 C25        -8.7634    9.4835   -2.7655 C.2       1 <0>         0.5177
     34 O4         -8.8105    8.3162   -3.0915 O.2       1 <0>        -0.5369
     35 H1          4.5292   10.5520    0.1403 H         1 <0>         0.1050
     36 H2          4.5771    8.7867    0.3630 H         1 <0>         0.0596
     37 H3          3.8288    9.4798   -1.0958 H         1 <0>         0.0594
     38 H4          0.3645    9.4139    1.7354 H         1 <0>         0.1454
     39 H5         -1.0858    7.4362    1.5401 H         1 <0>         0.1372
     40 H6          1.8703    5.5099   -0.8768 H         1 <0>         0.1385
     41 H7          3.3144    7.4930   -0.6889 H         1 <0>         0.1423
     42 H8          0.1169    0.0994    0.4465 H         1 <0>         0.4096
     43 H9          0.8879    1.5892    0.5408 H         1 <0>         0.4085
     44 H10        -3.8665    3.4428   -1.4213 H         1 <0>         0.0942
     45 H11        -3.9689    2.6608    0.1773 H         1 <0>         0.1175
     46 H12        -5.6172    4.5792   -0.2527 H         1 <0>         0.1001
     47 H13        -4.6621    4.6771    1.2368 H         1 <0>         0.0755
     48 H14        -5.9561    7.1909    1.2604 H         1 <0>         0.1321
     49 H15        -7.5742    8.8921    0.5245 H         1 <0>         0.1306
     50 H16        -5.9763    8.6986   -3.4370 H         1 <0>         0.1271
     51 H17        -4.3516    7.0046   -2.6991 H         1 <0>         0.1273
     52 H18        -8.0596   11.2658   -0.3949 H         1 <0>         0.0708
     53 H19        -6.6023   11.4878   -1.3857 H         1 <0>         0.0803
     54 H20        -7.9137   12.2904   -3.2661 H         1 <0>         0.0751
     55 H21        -8.4337   13.1920   -1.8204 H         1 <0>         0.0895
     56 H22       -10.4330   12.4567   -3.0169 H         1 <0>         0.0806
     57 H23       -10.2937   11.4891   -1.5268 H         1 <0>         0.0726
     58 H24        -9.5237   10.6712   -4.3599 H         1 <0>         0.1026
     59 H25       -10.7672    9.9399   -3.3198 H         1 <0>         0.1036
@<TRIPOS>BOND
     1    1    2 1
     2    1   35 1
     3    1   36 1
     4    1   37 1
     5    2    3 1
     6    3    8 ar
     7    3    4 ar
     8    4    5 ar
     9    4   38 1
    10    5    6 ar
    11    5   39 1
    12    6    7 ar
    13    6    9 1
    14    7    8 ar
    15    7   40 1
    16    8   41 1
    17    9   13 1
    18    9   10 1
    19   10   20 1
    20   10   11 2
    21   11   12 1
    22   11   17 1
    23   12   13 2
    24   12   14 1
    25   14   15 2
    26   14   16 am
    27   16   42 1
    28   16   43 1
    29   17   18 1
    30   17   44 1
    31   17   45 1
    32   18   19 1
    33   18   46 1
    34   18   47 1
    35   19   20 am
    36   19   22 1
    37   20   21 2
    38   22   27 ar
    39   22   23 ar
    40   23   24 ar
    41   23   48 1
    42   24   25 ar
    43   24   49 1
    44   25   26 ar
    45   25   28 1
    46   26   27 ar
    47   26   50 1
    48   27   51 1
    49   28   33 am
    50   28   29 1
    51   29   30 1
    52   29   52 1
    53   29   53 1
    54   30   31 1
    55   30   54 1
    56   30   55 1
    57   31   32 1
    58   31   56 1
    59   31   57 1
    60   32   33 1
    61   32   58 1
    62   32   59 1
    63   33   34 2
@<TRIPOS>MOLECULE
ZINC03777328
   64    65     0     0     0
SMALL
USER_CHARGES
N-(1-formyl-4-guanidino-butyl)-1-(2-methylamino-3-phenyl-propanoyl)-pyrrolidine-2-carboxamide
@<TRIPOS>ATOM
      1 C1         -1.1006   11.6463   -1.5224 C.3       1 <0>        -0.0461
      2 C2         -0.9630   11.2349    0.8596 C.3       1 <0>         0.0169
      3 H1         -1.8685   11.8411    0.8348 H         1 <0>         0.1593
      4 C3         -0.1070   11.6456    2.0594 C.3       1 <0>        -0.0917
      5 C4          0.1631   13.1271    2.0002 C.ar      1 <0>        -0.1306
      6 C5          1.2821   13.5998    1.3406 C.ar      1 <0>        -0.1429
      7 C6          1.5270   14.9590    1.2817 C.ar      1 <0>        -0.1028
      8 C7          0.6589   15.8448    1.8922 C.ar      1 <0>        -0.0988
      9 C8         -0.4574   15.3717    2.5563 C.ar      1 <0>        -0.1020
     10 C9         -0.7053   14.0129    2.6102 C.ar      1 <0>        -0.1030
     11 C10        -1.3357    9.7799    0.9830 C.2       1 <0>         0.5339
     12 O1         -0.6480    8.9310    0.4564 O.2       1 <0>        -0.5146
     13 N1         -2.4332    9.4221    1.6787 N.am      1 <0>        -0.5806
     14 C11        -3.3535   10.3459    2.3665 C.3       1 <0>         0.0813
     15 C12        -4.0211    9.4904    3.4720 C.3       1 <0>        -0.1308
     16 C13        -4.1772    8.1228    2.7560 C.3       1 <0>        -0.1285
     17 C14        -2.9104    8.0459    1.8779 C.3       1 <0>         0.1215
     18 H2         -2.1435    7.4566    2.3804 H         1 <0>         0.1120
     19 C15        -3.2460    7.4222    0.5477 C.2       1 <0>         0.5198
     20 O2         -3.1031    8.0595   -0.4742 O.2       1 <0>        -0.5250
     21 N2         -3.7051    6.1561    0.4937 N.am      1 <0>        -0.7157
     22 C16        -4.0313    5.5498   -0.7994 C.3       1 <0>         0.0934
     23 H3         -3.3938    5.8829   -1.4941 H         1 <0>         0.1097
     24 C17        -3.9188    4.0277   -0.6920 C.3       1 <0>        -0.1228
     25 C18        -2.4636    3.6418   -0.4196 C.3       1 <0>        -0.1314
     26 C19        -2.3512    2.1198   -0.3120 C.3       1 <0>         0.0917
     27 N3         -0.9577    1.7502   -0.0513 N.pl3     1 <0>        -0.7015
     28 C20        -0.6115    0.4267    0.0849 C.cat     1 <0>         0.7402
     29 N4          0.6971    0.0796    0.3240 N.pl3     1 <0>        -0.8052
     30 C21        -5.4384    5.9233   -1.1887 C.2       1 <0>         0.3242
     31 O3         -6.1004    6.6237   -0.4610 O.2       1 <0>        -0.4336
     32 H4         -1.7933   10.8080   -1.5941 H         1 <0>         0.1248
     33 H5         -1.6614   12.5704   -1.3827 H         1 <0>         0.1257
     34 H6         -0.5140   11.7124   -2.4389 H         1 <0>         0.1325
     35 H7         -0.6374   11.4096    2.9820 H         1 <0>         0.1230
     36 H8          0.8379   11.1028    2.0345 H         1 <0>         0.1070
     37 H9          1.9630   12.9075    0.8678 H         1 <0>         0.1239
     38 H10         2.3990   15.3287    0.7626 H         1 <0>         0.1351
     39 H11         0.8526   16.9065    1.8500 H         1 <0>         0.1355
     40 H12        -1.1357   16.0637    3.0331 H         1 <0>         0.1356
     41 H13        -1.5773   13.6432    3.1294 H         1 <0>         0.1298
     42 H14        -2.7994   11.1733    2.8098 H         1 <0>         0.0903
     43 H15        -4.1047   10.7206    1.6713 H         1 <0>         0.0881
     44 H16        -3.3726    9.4033    4.3438 H         1 <0>         0.0897
     45 H17        -4.9924    9.8998    3.7496 H         1 <0>         0.1035
     46 H18        -5.0756    8.1109    2.1388 H         1 <0>         0.0942
     47 H19        -4.1946    7.3082    3.4801 H         1 <0>         0.1022
     48 H20        -3.8194    5.6464    1.3110 H         1 <0>         0.4059
     49 H21        -4.2467    3.5723   -1.6264 H         1 <0>         0.1024
     50 H22        -4.5476    3.6737    0.1251 H         1 <0>         0.0872
     51 H23        -2.1357    4.0972    0.5149 H         1 <0>         0.0828
     52 H24        -1.8348    3.9957   -1.2365 H         1 <0>         0.0868
     53 H25        -2.6790    1.6643   -1.2465 H         1 <0>         0.0960
     54 H26        -2.9800    1.7658    0.5049 H         1 <0>         0.0946
     55 H27        -0.2787    2.4390    0.0213 H         1 <0>         0.4328
     56 H28        -1.3784   -1.4601    0.0685 H         1 <0>         0.4538
     57 H29         1.3761    0.7684    0.3966 H         1 <0>         0.4401
     58 H30         0.9414   -0.8543    0.4201 H         1 <0>         0.4409
     59 H31        -5.8548    5.5646   -2.1184 H         1 <0>         0.1125
     60 N5         -0.1904   11.4419   -0.3798 N.4       1 <0>        -0.5078
     61 H32         0.4084   12.2689   -0.2715 H         1 <0>         0.4350
     62 H33         0.3945   10.6166   -0.5561 H         1 <0>         0.4390
     63 N6         -1.5851   -0.4656   -0.0249 N.pl3     1 <0>        -0.7942
     64 H34        -2.5475   -0.1559   -0.2040 H         1 <0>         0.4551
@<TRIPOS>BOND
     1    1   32 1
     2    1   33 1
     3    1   34 1
     4    1   60 1
     5    2    3 1
     6    2    4 1
     7    2   11 1
     8    2   60 1
     9    4    5 1
    10    4   35 1
    11    4   36 1
    12    5   10 ar
    13    5    6 ar
    14    6    7 ar
    15    6   37 1
    16    7    8 ar
    17    7   38 1
    18    8    9 ar
    19    8   39 1
    20    9   10 ar
    21    9   40 1
    22   10   41 1
    23   11   12 2
    24   11   13 am
    25   13   17 1
    26   13   14 1
    27   14   15 1
    28   14   42 1
    29   14   43 1
    30   15   16 1
    31   15   44 1
    32   15   45 1
    33   16   17 1
    34   16   46 1
    35   16   47 1
    36   17   18 1
    37   17   19 1
    38   19   20 2
    39   19   21 am
    40   21   22 1
    41   21   48 1
    42   22   23 1
    43   22   24 1
    44   22   30 1
    45   24   25 1
    46   24   49 1
    47   24   50 1
    48   25   26 1
    49   25   51 1
    50   25   52 1
    51   26   27 1
    52   26   53 1
    53   26   54 1
    54   27   28 1
    55   27   55 1
    56   28   29 1
    57   28   63 2
    58   29   57 1
    59   29   58 1
    60   30   31 2
    61   30   59 1
    62   56   63 1
    63   60   61 1
    64   60   62 1
    65   63   64 1
@<TRIPOS>MOLECULE
ZINC28238972
   64    68     0     0     0
SMALL
USER_CHARGES
2-(6-chloro-2-naphthyl)-N-[4-[2-(dimethylaminomethyl)phenyl]-2-fluoro-phenyl]-5-methyl-pyrazole-3-carboxamide
@<TRIPOS>ATOM
      1 C1         -3.6431   -2.1162   -0.1598 C.3       1 <0>        -0.0824
      2 C2         -3.3094   -0.7584    0.4022 C.2       1 <0>         0.0771
      3 C3         -4.1654    0.0386    1.1577 C.2       1 <0>        -0.1543
      4 C4         -3.4867    1.1981    1.4773 C.2       1 <0>         0.0109
      5 N1         -2.2393    1.0983    0.9206 N.pl3     1 <0>        -0.3191
      6 N2         -2.1685   -0.1313    0.2541 N.2       1 <0>        -0.2405
      7 C5         -1.2209    2.0554    0.9988 C.ar      1 <0>         0.1440
      8 C6         -0.6009    2.5045   -0.1734 C.ar      1 <0>        -0.1065
      9 C7          0.3906    3.4330   -0.1273 C.ar      1 <0>        -0.0670
     10 C8          0.8053    3.9547    1.1108 C.ar      1 <0>        -0.0375
     11 C9          1.8275    4.9158    1.1882 C.ar      1 <0>        -0.0899
     12 C10         2.2058    5.4019    2.4031 C.ar      1 <0>        -0.0212
     13 C11         1.5930    4.9598    3.5755 C.ar      1 <0>        -0.0972
     14 C12         0.6000    4.0303    3.5387 C.ar      1 <0>        -0.0808
     15 C13         0.1866    3.5018    2.3031 C.ar      1 <0>        -0.0339
     16 C14        -0.8389    2.5452    2.2279 C.ar      1 <0>        -0.1200
     17 Cl1         3.4687    6.5895    2.4936 Cl        1 <0>        -0.0534
     18 C15        -4.0051    2.3261    2.2652 C.2       1 <0>         0.5985
     19 O1         -5.0754    2.2289    2.8353 O.2       1 <0>        -0.4950
     20 N3         -3.2945    3.4677    2.3559 N.am      1 <0>        -0.6836
     21 C16        -3.7381    4.5035    3.1842 C.ar      1 <0>         0.1444
     22 C17        -5.0568    4.5261    3.6212 C.ar      1 <0>        -0.1264
     23 C18        -5.4951    5.5431    4.4426 C.ar      1 <0>        -0.1019
     24 C19        -4.6178    6.5562    4.8262 C.ar      1 <0>        -0.0901
     25 C20        -3.2963    6.5363    4.3830 C.ar      1 <0>        -0.1208
     26 C21        -2.8595    5.5134    3.5653 C.ar      1 <0>         0.0701
     27 F1         -1.5791    5.4929    3.1346 F         1 <0>        -0.1200
     28 C22        -5.0897    7.6540    5.7053 C.ar      1 <0>        -0.0281
     29 C23        -4.9594    8.9808    5.2989 C.ar      1 <0>        -0.0958
     30 C24        -5.4001    9.9979    6.1207 C.ar      1 <0>        -0.0846
     31 C25        -5.9709    9.7026    7.3459 C.ar      1 <0>        -0.1079
     32 C26        -6.1032    8.3878    7.7541 C.ar      1 <0>        -0.0854
     33 C27        -5.6702    7.3622    6.9380 C.ar      1 <0>        -0.1420
     34 C28        -5.8207    5.9298    7.3815 C.3       1 <0>         0.0376
     35 N4         -4.4927    5.3489    7.6200 N.4       1 <0>        -0.4035
     36 C29        -3.8304    5.9994    8.7585 C.3       1 <0>        -0.0492
     37 C30        -4.5819    3.8967    7.8225 C.3       1 <0>        -0.0506
     38 H1         -4.6704   -2.3883    0.1243 H         1 <0>         0.0874
     39 H2         -2.9417   -2.8620    0.2424 H         1 <0>         0.0850
     40 H3         -3.5609   -2.0894   -1.2564 H         1 <0>         0.0856
     41 H4         -5.1782   -0.2058    1.4423 H         1 <0>         0.1711
     42 H5         -0.9146    2.1074   -1.1275 H         1 <0>         0.1445
     43 H6          0.8595    3.7692   -1.0402 H         1 <0>         0.1503
     44 H7          2.3106    5.2676    0.2887 H         1 <0>         0.1471
     45 H8          1.9116    5.3607    4.5264 H         1 <0>         0.1390
     46 H9          0.1346    3.6968    4.4545 H         1 <0>         0.1347
     47 H10        -1.3215    2.1932    3.1277 H         1 <0>         0.1393
     48 H11        -2.3656    3.5847    1.7784 H         1 <0>         0.4414
     49 H12        -5.7381    3.7440    3.3204 H         1 <0>         0.1878
     50 H13        -6.5194    5.5574    4.7849 H         1 <0>         0.1414
     51 H14        -2.6149    7.3201    4.6793 H         1 <0>         0.1499
     52 H15        -4.5146    9.2125    4.3424 H         1 <0>         0.1364
     53 H16        -5.2996   11.0264    5.8068 H         1 <0>         0.1382
     54 H17        -6.3148   10.5017    7.9858 H         1 <0>         0.1376
     55 H18        -6.5499    8.1630    8.7114 H         1 <0>         0.1353
     56 H19        -6.4090    5.8934    8.3103 H         1 <0>         0.1370
     57 H20        -6.3367    5.3556    6.5979 H         1 <0>         0.1397
     58 H21        -2.8403    5.5462    8.9145 H         1 <0>         0.1233
     59 H22        -4.4415    5.8659    9.6633 H         1 <0>         0.1218
     60 H23        -3.7135    7.0731    8.5501 H         1 <0>         0.1228
     61 H24        -3.5757    3.4886    7.9985 H         1 <0>         0.1244
     62 H25        -5.0164    3.4277    6.9274 H         1 <0>         0.1242
     63 H26        -5.2204    3.6865    8.6932 H         1 <0>         0.1238
     64 H27        -3.8796    5.5282    6.7245 H         1 <0>         0.4369
@<TRIPOS>BOND
     1    1    2 1
     2    1   38 1
     3    1   39 1
     4    1   40 1
     5    2    6 2
     6    2    3 1
     7    3    4 2
     8    3   41 1
     9    4    5 1
    10    4   18 1
    11    5    6 1
    12    5    7 1
    13    7   16 ar
    14    7    8 ar
    15    8    9 ar
    16    8   42 1
    17    9   10 ar
    18    9   43 1
    19   10   15 ar
    20   10   11 ar
    21   11   12 ar
    22   11   44 1
    23   12   13 ar
    24   12   17 1
    25   13   14 ar
    26   13   45 1
    27   14   15 ar
    28   14   46 1
    29   15   16 ar
    30   16   47 1
    31   18   19 2
    32   18   20 am
    33   20   21 1
    34   20   48 1
    35   21   26 ar
    36   21   22 ar
    37   22   23 ar
    38   22   49 1
    39   23   24 ar
    40   23   50 1
    41   24   25 ar
    42   24   28 1
    43   25   26 ar
    44   25   51 1
    45   26   27 1
    46   28   33 ar
    47   28   29 ar
    48   29   30 ar
    49   29   52 1
    50   30   31 ar
    51   30   53 1
    52   31   32 ar
    53   31   54 1
    54   32   33 ar
    55   32   55 1
    56   33   34 1
    57   34   35 1
    58   34   56 1
    59   34   57 1
    60   35   36 1
    61   35   37 1
    62   35   64 1
    63   36   58 1
    64   36   59 1
    65   36   60 1
    66   37   61 1
    67   37   62 1
    68   37   63 1
@<TRIPOS>MOLECULE
ZINC03949168
   54    57     0     0     0
SMALL
USER_CHARGES
N-[4-(N,N-dimethylcarbamimidoyl)-2-fluoro-phenyl]-2-(3-fluoro-2-naphthyl)-5-(trifluoromethyl)pyrazole-3-carboxamide
@<TRIPOS>ATOM
      1 C1          4.4776    2.1386   -2.3029 C.3       1 <0>         0.0422
      2 N1          3.0425    1.8442   -2.3105 N.pl3     1 <0>        -0.5431
      3 C2          2.5159    0.7449   -1.4979 C.3       1 <0>         0.0469
      4 C3          2.1877    2.6015   -3.0822 C.cat     1 <0>         0.5799
      5 C4          0.7688    2.2066   -3.2190 C.ar      1 <0>        -0.1536
      6 C5          0.4345    0.8728   -3.4590 C.ar      1 <0>        -0.0445
      7 C6         -0.8876    0.5066   -3.5857 C.ar      1 <0>        -0.1125
      8 C7         -1.8894    1.4648   -3.4805 C.ar      1 <0>         0.1820
      9 C8         -1.5601    2.7957   -3.2353 C.ar      1 <0>         0.0744
     10 C9         -0.2379    3.1672   -3.1077 C.ar      1 <0>        -0.0756
     11 F1         -2.5358    3.7239   -3.1279 F         1 <0>        -0.1128
     12 N2         -3.2278    1.0916   -3.6155 N.am      1 <0>        -0.6692
     13 C10        -3.5948   -0.1883   -3.4069 C.2       1 <0>         0.6012
     14 O1         -2.7779   -0.9986   -3.0119 O.2       1 <0>        -0.4718
     15 C11        -4.9823   -0.6053   -3.6566 C.2       1 <0>         0.0189
     16 C12        -5.4758   -1.8941   -3.5996 C.2       1 <0>        -0.1115
     17 C13        -6.8343   -1.8408   -3.9001 C.2       1 <0>        -0.0187
     18 N3         -7.1660   -0.5958   -4.1389 N.2       1 <0>        -0.1698
     19 N4         -6.0294    0.2097   -3.9957 N.pl3     1 <0>        -0.2952
     20 C14        -5.9736    1.5980   -4.1676 C.ar      1 <0>         0.0796
     21 C15        -5.6089    2.4015   -3.1108 C.ar      1 <0>        -0.0733
     22 C16        -5.5486    3.7934   -3.2881 C.ar      1 <0>        -0.0541
     23 C17        -5.1760    4.6455   -2.2337 C.ar      1 <0>        -0.0900
     24 C18        -5.1329    5.9904   -2.4376 C.ar      1 <0>        -0.1018
     25 C19        -5.4532    6.5382   -3.6784 C.ar      1 <0>        -0.0876
     26 C20        -5.8186    5.7445   -4.7220 C.ar      1 <0>        -0.1060
     27 C21        -5.8748    4.3507   -4.5503 C.ar      1 <0>        -0.0152
     28 C22        -6.2486    3.5030   -5.6071 C.ar      1 <0>        -0.1160
     29 C23        -6.2951    2.1564   -5.4126 C.ar      1 <0>         0.1189
     30 F2         -6.6554    1.3476   -6.4330 F         1 <0>        -0.1160
     31 C24        -7.7687   -3.0220   -3.9488 C.3       1 <0>         0.5585
     32 F3         -9.0255   -2.6043   -4.3994 F         1 <0>        -0.1584
     33 F4         -7.2564   -3.9862   -4.8237 F         1 <0>        -0.1583
     34 F5         -7.8915   -3.5725   -2.6686 F         1 <0>        -0.1587
     35 H1          4.6966    2.8585   -1.5145 H         1 <0>         0.0953
     36 H2          5.0359    1.2201   -2.1216 H         1 <0>         0.1143
     37 H3          4.7680    2.5560   -3.2671 H         1 <0>         0.0888
     38 H4          1.4349    0.6851   -1.6241 H         1 <0>         0.1054
     39 H5          2.9712   -0.1929   -1.8164 H         1 <0>         0.1012
     40 H6          2.7498    0.9243   -0.4485 H         1 <0>         0.1007
     41 H7          3.5434    4.0060   -3.6632 H         1 <0>         0.4401
     42 H8          1.2119    0.1282   -3.5458 H         1 <0>         0.1540
     43 H9         -1.1459   -0.5254   -3.7715 H         1 <0>         0.1821
     44 H10         0.0182    4.1999   -2.9224 H         1 <0>         0.1581
     45 H11        -3.8937    1.7534   -3.8595 H         1 <0>         0.4198
     46 H12        -4.9101   -2.7830   -3.3623 H         1 <0>         0.1886
     47 H13        -5.3673    1.9644   -2.1533 H         1 <0>         0.1519
     48 H14        -4.9248    4.2349   -1.2669 H         1 <0>         0.1347
     49 H15        -4.8460    6.6426   -1.6261 H         1 <0>         0.1345
     50 H16        -5.4111    7.6089   -3.8139 H         1 <0>         0.1358
     51 H17        -6.0641    6.1837   -5.6777 H         1 <0>         0.1406
     52 H18        -6.4984    3.9191   -6.5719 H         1 <0>         0.1614
     53 N5          2.5746    3.6929   -3.7264 N.pl3     1 <0>        -0.7572
     54 H19         1.8992    4.2233   -4.2892 H         1 <0>         0.4614
@<TRIPOS>BOND
     1    1    2 1
     2    1   35 1
     3    1   36 1
     4    1   37 1
     5    2    3 1
     6    2    4 1
     7    3   38 1
     8    3   39 1
     9    3   40 1
    10    4    5 1
    11    4   53 2
    12    5   10 ar
    13    5    6 ar
    14    6    7 ar
    15    6   42 1
    16    7    8 ar
    17    7   43 1
    18    8    9 ar
    19    8   12 1
    20    9   10 ar
    21    9   11 1
    22   10   44 1
    23   12   13 am
    24   12   45 1
    25   13   14 2
    26   13   15 1
    27   15   19 1
    28   15   16 2
    29   16   17 1
    30   16   46 1
    31   17   18 2
    32   17   31 1
    33   18   19 1
    34   19   20 1
    35   20   29 ar
    36   20   21 ar
    37   21   22 ar
    38   21   47 1
    39   22   27 ar
    40   22   23 ar
    41   23   24 ar
    42   23   48 1
    43   24   25 ar
    44   24   49 1
    45   25   26 ar
    46   25   50 1
    47   26   27 ar
    48   26   51 1
    49   27   28 ar
    50   28   29 ar
    51   28   52 1
    52   29   30 1
    53   31   32 1
    54   31   33 1
    55   31   34 1
    56   41   53 1
    57   53   54 1
@<TRIPOS>MOLECULE
ZINC19479622
   32    33     0     0     0
SMALL
USER_CHARGES
3-(phenoxymethyl)benzamidine
@<TRIPOS>ATOM
      1 C1         -0.0167    1.3784    0.0096 C.ar      1 <0>        -0.1497
      2 C2          1.1698    2.0883    0.0021 C.ar      1 <0>        -0.0791
      3 C3          2.3774    1.4175   -0.0131 C.ar      1 <0>        -0.2086
      4 C4          2.3989    0.0304   -0.0208 C.ar      1 <0>         0.1186
      5 C5          1.2070   -0.6796   -0.0132 C.ar      1 <0>        -0.1481
      6 C6          0.0021   -0.0041    0.0020 C.ar      1 <0>        -0.0781
      7 O1          3.5855   -0.6319   -0.0353 O.3       1 <0>        -0.3116
      8 C7          4.7725    0.1638   -0.0424 C.3       1 <0>         0.0904
      9 C8          5.9808   -0.7367   -0.0583 C.ar      1 <0>        -0.0825
     10 C9          6.5231   -1.1431   -1.2645 C.ar      1 <0>        -0.0349
     11 C10         7.6322   -1.9692   -1.2872 C.ar      1 <0>        -0.1116
     12 C11         8.2048   -2.3930   -0.1052 C.ar      1 <0>        -0.0520
     13 C12         7.6625   -1.9871    1.1137 C.ar      1 <0>        -0.1487
     14 C13         6.5474   -1.1495    1.1300 C.ar      1 <0>        -0.0451
     15 C14         8.2721   -2.4383    2.3856 C.cat     1 <0>         0.5948
     16 N1          7.7635   -2.0576    3.5225 N.pl3     1 <0>        -0.7752
     17 N2          9.3773   -3.2608    2.3662 N.pl3     1 <0>        -0.8234
     18 H1         -0.9597    1.9047    0.0170 H         1 <0>         0.1285
     19 H2          1.1525    3.1682    0.0081 H         1 <0>         0.1284
     20 H3          3.3039    1.9724   -0.0187 H         1 <0>         0.1267
     21 H4          1.2211   -1.7595   -0.0195 H         1 <0>         0.1308
     22 H5         -0.9261   -0.5563    0.0076 H         1 <0>         0.1334
     23 H6          4.7799    0.8032   -0.9374 H         1 <0>         0.0845
     24 H7          4.7968    0.7942    0.8587 H         1 <0>         0.0795
     25 H8          6.0787   -0.8138   -2.1922 H         1 <0>         0.1476
     26 H9          8.0513   -2.2829   -2.2319 H         1 <0>         0.1515
     27 H10         9.0713   -3.0374   -0.1241 H         1 <0>         0.1387
     28 H11         6.1258   -0.8280    2.0709 H         1 <0>         0.1357
     29 H12         8.2163   -2.3927    4.4673 H         1 <0>         0.4629
     30 H13         9.8301   -3.5960    3.3110 H         1 <0>         0.4565
     31 H14         9.8068   -3.5823    1.4059 H         1 <0>         0.4668
     32 H15         6.8811   -1.4009    3.5379 H         1 <0>         0.4731
@<TRIPOS>BOND
     1    1    6 ar
     2    1    2 ar
     3    1   18 1
     4    2    3 ar
     5    2   19 1
     6    3    4 ar
     7    3   20 1
     8    4    5 ar
     9    4    7 1
    10    5    6 ar
    11    5   21 1
    12    6   22 1
    13    7    8 1
    14    8    9 1
    15    8   23 1
    16    8   24 1
    17    9   14 ar
    18    9   10 ar
    19   10   11 ar
    20   10   25 1
    21   11   12 ar
    22   11   26 1
    23   12   13 ar
    24   12   27 1
    25   13   14 ar
    26   13   15 1
    27   14   28 1
    28   15   16 2
    29   15   17 1
    30   16   29 1
    31   16   32 1
    32   17   30 1
    33   17   31 1
@<TRIPOS>MOLECULE
ZINC03936607
   57    60     0     0     0
SMALL
USER_CHARGES

@<TRIPOS>ATOM
      1 C1         -0.0173    1.4248    0.0099 C.3       1 <0>         0.0244
      2 O1          0.0021   -0.0041    0.0020 O.3       1 <0>        -0.3145
      3 C2          0.6057   -0.6070   -1.0556 C.ar      1 <0>         0.1266
      4 C3          1.1742    0.1768   -2.0647 C.ar      1 <0>        -0.1670
      5 C4          1.7851   -0.3974   -3.1353 C.ar      1 <0>        -0.0816
      6 C5          1.8489   -1.7984   -3.2331 C.ar      1 <0>        -0.0381
      7 C6          2.4730   -2.4247   -4.3253 C.ar      1 <0>        -0.1076
      8 C7          2.5170   -3.7836   -4.3878 C.ar      1 <0>        -0.0476
      9 C8          1.9516   -4.5670   -3.3833 C.ar      1 <0>        -0.6460
     10 C9          1.3390   -3.9957   -2.3107 C.ar      1 <0>         0.0242
     11 C10         1.2739   -2.5950   -2.2114 C.ar      1 <0>        -0.0294
     12 C11         0.6543   -1.9705   -1.1164 C.ar      1 <0>        -0.1402
     13 S1          2.0305   -6.3231   -3.5041 S.o2      1 <0>         2.6870
     14 O2          0.9575   -6.8325   -2.7241 O.2       1 <0>        -0.9476
     15 O3          2.1818   -6.6288   -4.8836 O.2       1 <0>        -0.9485
     16 N1          3.4283   -6.8029   -2.7569 N.pl3     1 <0>        -1.0969
     17 C12         3.5963   -6.5979   -1.3161 C.3       1 <0>         0.1162
     18 H1          2.6253   -6.5357   -0.8248 H         1 <0>         0.1341
     19 C13         4.4414   -7.7380   -0.7021 C.3       1 <0>        -0.1337
     20 C14         5.2643   -6.9811    0.3639 C.3       1 <0>         0.0980
     21 N2          5.3375   -5.5941   -0.1101 N.am      1 <0>        -0.6148
     22 C15         4.4053   -5.3476   -1.0500 C.2       1 <0>         0.5017
     23 O4          4.2392   -4.2817   -1.6041 O.2       1 <0>        -0.5013
     24 C16         6.2997   -4.6033    0.3786 C.3       1 <0>         0.1597
     25 C17         7.5480   -4.6572   -0.4640 C.ar      1 <0>        -0.1016
     26 C18         8.5833   -5.5045   -0.1108 C.ar      1 <0>        -0.0414
     27 C19         9.7323   -5.5598   -0.8790 C.ar      1 <0>        -0.1120
     28 C20         9.8529   -4.7687   -2.0032 C.ar      1 <0>        -0.0571
     29 C21         8.8127   -3.9124   -2.3647 C.ar      1 <0>        -0.1595
     30 C22         7.6537   -3.8658   -1.5890 C.ar      1 <0>        -0.0417
     31 C23         8.9356   -3.0611   -3.5687 C.cat     1 <0>         0.6019
     32 N3         10.1336   -2.6345   -3.9630 N.pl3     1 <0>        -0.7591
     33 N4          7.8481   -2.7216   -4.2579 N.pl3     1 <0>        -0.7571
     34 H2          1.0053    1.8021    0.0021 H         1 <0>         0.0562
     35 H3         -0.5445    1.7859   -0.8732 H         1 <0>         0.0584
     36 H4         -0.5275    1.7763    0.9067 H         1 <0>         0.1056
     37 H5          1.1270    1.2534   -1.9928 H         1 <0>         0.1353
     38 H6          2.2191    0.2203   -3.9076 H         1 <0>         0.1344
     39 H7          2.9152   -1.8307   -5.1114 H         1 <0>         0.1294
     40 H8          2.9971   -4.2621   -5.2286 H         1 <0>         0.1322
     41 H9          0.9049   -4.6153   -1.5399 H         1 <0>         0.1398
     42 H10         0.2157   -2.5652   -0.3288 H         1 <0>         0.1396
     43 H11         4.1358   -7.2198   -3.2732 H         1 <0>         0.4220
     44 H12         3.8033   -8.4912   -0.2400 H         1 <0>         0.1095
     45 H13         5.0931   -8.1875   -1.4514 H         1 <0>         0.0944
     46 H14         4.7606   -7.0237    1.3296 H         1 <0>         0.0867
     47 H15         6.2648   -7.4069    0.4404 H         1 <0>         0.0858
     48 H16         5.8605   -3.6078    0.3141 H         1 <0>         0.1007
     49 H17         6.5519   -4.8226    1.4161 H         1 <0>         0.1028
     50 H18         8.4940   -6.1251    0.7686 H         1 <0>         0.1450
     51 H19        10.5369   -6.2231   -0.5981 H         1 <0>         0.1497
     52 H20        10.7508   -4.8122   -2.6018 H         1 <0>         0.1403
     53 H21         6.8430   -3.2083   -1.8663 H         1 <0>         0.1424
     54 H22        10.9259   -2.8818   -3.4609 H         1 <0>         0.4461
     55 H23         6.9753   -3.0324   -3.9706 H         1 <0>         0.4478
     56 H24         7.9286   -2.1636   -5.0471 H         1 <0>         0.4333
     57 H25        10.2142   -2.0764   -4.7523 H         1 <0>         0.4334
@<TRIPOS>BOND
     1    1    2 1
     2    1   34 1
     3    1   35 1
     4    1   36 1
     5    2    3 1
     6    3   12 ar
     7    3    4 ar
     8    4    5 ar
     9    4   37 1
    10    5    6 ar
    11    5   38 1
    12    6   11 ar
    13    6    7 ar
    14    7    8 ar
    15    7   39 1
    16    8    9 ar
    17    8   40 1
    18    9   10 ar
    19    9   13 1
    20   10   11 ar
    21   10   41 1
    22   11   12 ar
    23   12   42 1
    24   13   14 2
    25   13   15 2
    26   13   16 1
    27   16   17 1
    28   16   43 1
    29   17   18 1
    30   17   22 1
    31   17   19 1
    32   19   20 1
    33   19   44 1
    34   19   45 1
    35   20   21 1
    36   20   46 1
    37   20   47 1
    38   21   22 am
    39   21   24 1
    40   22   23 2
    41   24   25 1
    42   24   48 1
    43   24   49 1
    44   25   30 ar
    45   25   26 ar
    46   26   27 ar
    47   26   50 1
    48   27   28 ar
    49   27   51 1
    50   28   29 ar
    51   28   52 1
    52   29   30 ar
    53   29   31 1
    54   30   53 1
    55   31   32 2
    56   31   33 1
    57   32   54 1
    58   32   57 1
    59   33   55 1
    60   33   56 1
@<TRIPOS>MOLECULE
ZINC28375754
   52    54     0     0     0
SMALL
USER_CHARGES
5-chloro-N-[(1R)-1-(methoxymethyl)-2-[[3-methyl-4-(3-oxomorpholin-4-yl)phenyl]amino]-2-oxo-ethyl]thiophene-2-carboxamide
@<TRIPOS>ATOM
      1 C1          9.2822    2.2888   -2.5168 C.3       1 <0>        -0.1123
      2 C2          7.8824    2.7873   -2.2661 C.ar      1 <0>        -0.0499
      3 C3          6.9665    1.9788   -1.6228 C.ar      1 <0>        -0.1382
      4 C4          5.6769    2.4383   -1.3914 C.ar      1 <0>         0.1668
      5 C5          5.3066    3.7092   -1.8118 C.ar      1 <0>        -0.1204
      6 C6          6.2235    4.5193   -2.4506 C.ar      1 <0>        -0.0822
      7 C7          7.5137    4.0598   -2.6816 C.ar      1 <0>         0.1118
      8 N1          8.4428    4.8801   -3.3343 N.am      1 <0>        -0.5616
      9 C8          8.5403    4.8104   -4.7903 C.3       1 <0>         0.0783
     10 C9          9.2422    6.0630   -5.3247 C.3       1 <0>         0.0406
     11 O1         10.4471    6.2634   -4.5764 O.3       1 <0>        -0.3667
     12 C10        10.2050    6.6370   -3.2178 C.3       1 <0>         0.0487
     13 C11         9.2110    5.6937   -2.5993 C.2       1 <0>         0.4878
     14 O2          9.1014    5.6686   -1.3916 O.2       1 <0>        -0.5227
     15 N2          4.7476    1.6179   -0.7392 N.am      1 <0>        -0.6801
     16 C12         3.8129    2.1642    0.0636 C.2       1 <0>         0.5269
     17 O3          3.8347    3.3542    0.2973 O.2       1 <0>        -0.5078
     18 C13         2.7408    1.2965    0.6708 C.3       1 <0>         0.1386
     19 H1          2.1294    0.8474   -0.1257 H         1 <0>         0.1372
     20 C14         3.3895    0.2174    1.5400 C.3       1 <0>         0.0487
     21 O4          4.2403    0.8338    2.5087 O.3       1 <0>        -0.3826
     22 C15         4.8987   -0.0912    3.3765 C.3       1 <0>         0.0296
     23 N3          1.8547    2.1210    1.4962 N.am      1 <0>        -0.7154
     24 C16         0.5867    1.7260    1.7256 C.2       1 <0>         0.6138
     25 O5          0.1778    0.6842    1.2470 O.2       1 <0>        -0.5277
     26 C17        -0.3011    2.5532    2.5458 C.2       1 <0>        -0.2319
     27 C18        -1.6250    2.3339    2.8944 C.2       1 <0>        -0.0620
     28 C19        -2.2289    3.2802    3.6832 C.2       1 <0>        -0.1607
     29 C20        -1.5143    4.3685    4.0789 C.2       1 <0>        -0.1317
     30 S1          0.0419    4.1016    3.3630 S.3       1 <0>         0.2025
     31 Cl1        -2.0329    5.6980    5.0673 Cl        1 <0>         0.0279
     32 H2          9.3845    1.2681   -2.1198 H         1 <0>         0.0689
     33 H3         10.0027    2.9514   -2.0150 H         1 <0>         0.0705
     34 H4          9.4811    2.2831   -3.5987 H         1 <0>         0.0704
     35 H5          7.2534    0.9892   -1.2993 H         1 <0>         0.1310
     36 H6          4.3021    4.0649   -1.6357 H         1 <0>         0.1377
     37 H7          5.9365    5.5088   -2.7744 H         1 <0>         0.1262
     38 H8          9.1186    3.9196   -5.0768 H         1 <0>         0.0801
     39 H9          7.5309    4.7470   -5.2228 H         1 <0>         0.0905
     40 H10         9.4805    5.9236   -6.3895 H         1 <0>         0.1214
     41 H11         8.5790    6.9328   -5.2082 H         1 <0>         0.0669
     42 H12        11.1475    6.5942   -2.6522 H         1 <0>         0.1356
     43 H13         9.8039    7.6607   -3.1849 H         1 <0>         0.0951
     44 H14         4.7806    0.5277   -0.8822 H         1 <0>         0.4358
     45 H15         2.6063   -0.3593    2.0539 H         1 <0>         0.0739
     46 H16         3.9841   -0.4562    0.9054 H         1 <0>         0.0665
     47 H17         5.5308    0.4600    4.0883 H         1 <0>         0.0908
     48 H18         5.5249   -0.7712    2.7803 H         1 <0>         0.0442
     49 H19         4.1472   -0.6744    3.9288 H         1 <0>         0.0447
     50 H20         2.2243    3.0625    1.9287 H         1 <0>         0.4370
     51 H21        -2.1579    1.4563    2.5592 H         1 <0>         0.1569
     52 H22        -3.2589    3.1629    3.9861 H         1 <0>         0.1507
@<TRIPOS>BOND
     1    1    2 1
     2    1   32 1
     3    1   33 1
     4    1   34 1
     5    2    7 ar
     6    2    3 ar
     7    3    4 ar
     8    3   35 1
     9    4    5 ar
    10    4   15 1
    11    5    6 ar
    12    5   36 1
    13    6    7 ar
    14    6   37 1
    15    7    8 1
    16    8   13 am
    17    8    9 1
    18    9   10 1
    19    9   38 1
    20    9   39 1
    21   10   11 1
    22   10   40 1
    23   10   41 1
    24   11   12 1
    25   12   13 1
    26   12   42 1
    27   12   43 1
    28   13   14 2
    29   15   16 am
    30   15   44 1
    31   16   17 2
    32   16   18 1
    33   18   19 1
    34   18   20 1
    35   18   23 1
    36   20   21 1
    37   20   45 1
    38   20   46 1
    39   21   22 1
    40   22   47 1
    41   22   48 1
    42   22   49 1
    43   23   24 am
    44   23   50 1
    45   24   25 2
    46   24   26 1
    47   26   30 1
    48   26   27 2
    49   27   28 1
    50   27   51 1
    51   28   29 2
    52   28   52 1
    53   29   30 1
    54   29   31 1
@<TRIPOS>MOLECULE
ZINC01494180
   47    50     0     0     0
SMALL
USER_CHARGES
5-chloro-N-[[(5R)-2-oxo-3-[4-(3-oxomorpholin-4-yl)phenyl]oxazolidin-5-yl]methyl]thiophene-2-carboxamide
@<TRIPOS>ATOM
      1 C1          1.0721    1.9601    0.6832 C.ar      1 <0>        -0.0724
      2 C2         -0.1138    1.2534    0.6908 C.ar      1 <0>        -0.1422
      3 C3         -1.2225    1.7504    0.0185 C.ar      1 <0>         0.1873
      4 C4         -1.1417    2.9638   -0.6518 C.ar      1 <0>        -0.1447
      5 C5          0.0442    3.6706   -0.6594 C.ar      1 <0>        -0.0775
      6 C6          1.1546    3.1708    0.0081 C.ar      1 <0>         0.1090
      7 N1          2.3581    3.8877   -0.0000 N.am      1 <0>        -0.5655
      8 C7          3.3270    3.6214   -1.0606 C.3       1 <0>         0.0799
      9 C8          4.3213    4.7801   -1.1614 C.3       1 <0>         0.0431
     10 O1          4.8158    5.0756    0.1501 O.3       1 <0>        -0.3673
     11 C9          3.8193    5.6344    1.0097 C.3       1 <0>         0.0518
     12 C10         2.5736    4.7942    0.9612 C.2       1 <0>         0.4889
     13 O2          1.7360    4.9398    1.8263 O.2       1 <0>        -0.5239
     14 N2         -2.4244    1.0303    0.0214 N.am      1 <0>        -0.5691
     15 C11        -3.6688    1.4403   -0.6471 C.3       1 <0>         0.0677
     16 C12        -4.6524    0.2991   -0.3239 C.3       1 <0>         0.0568
     17 H1         -5.5024    0.6767    0.2444 H         1 <0>         0.1339
     18 O3         -3.8674   -0.6247    0.4844 O.3       1 <0>        -0.3103
     19 C13        -2.6261   -0.1470    0.6289 C.2       1 <0>         0.6460
     20 O4         -1.7616   -0.7260    1.2566 O.2       1 <0>        -0.4926
     21 C14        -5.1277   -0.3797   -1.6101 C.3       1 <0>         0.1145
     22 N3         -6.1492   -1.3787   -1.2863 N.am      1 <0>        -0.7238
     23 C15        -6.7160   -2.1060   -2.2692 C.2       1 <0>         0.6109
     24 O5         -6.3792   -1.9329   -3.4260 O.2       1 <0>        -0.5163
     25 C16        -7.7372   -3.1048   -1.9455 C.2       1 <0>        -0.2373
     26 C17        -8.4399   -3.9436   -2.7970 C.2       1 <0>        -0.0584
     27 C18        -9.3485   -4.7973   -2.2242 C.2       1 <0>        -0.1604
     28 C19        -9.5219   -4.7738   -0.8747 C.2       1 <0>        -0.1281
     29 S1         -8.4065   -3.5532   -0.3537 S.3       1 <0>         0.1953
     30 Cl1       -10.5990   -5.7334    0.0910 Cl        1 <0>         0.0300
     31 H2          1.9356    1.5715    1.2026 H         1 <0>         0.1316
     32 H3         -0.1779    0.3118    1.2158 H         1 <0>         0.1624
     33 H4         -2.0052    3.3524   -1.1712 H         1 <0>         0.1331
     34 H5          0.1082    4.6123   -1.1842 H         1 <0>         0.1307
     35 H6          3.8656    2.7008   -0.8360 H         1 <0>         0.0811
     36 H7          2.8032    3.5119   -2.0102 H         1 <0>         0.0902
     37 H8          5.1504    4.4953   -1.8093 H         1 <0>         0.1207
     38 H9          3.8200    5.6577   -1.5696 H         1 <0>         0.0663
     39 H10         4.1984    5.6661    2.0311 H         1 <0>         0.1349
     40 H11         3.5829    6.6462    0.6804 H         1 <0>         0.0943
     41 H12        -4.0299    2.3842   -0.2386 H         1 <0>         0.1119
     42 H13        -3.5158    1.5237   -1.7231 H         1 <0>         0.1096
     43 H14        -5.5508    0.3683   -2.2807 H         1 <0>         0.1044
     44 H15        -4.2834   -0.8679   -2.0967 H         1 <0>         0.0881
     45 H16        -6.4176   -1.5167   -0.3644 H         1 <0>         0.4058
     46 H17        -8.2768   -3.9280   -3.8644 H         1 <0>         0.1579
     47 H18        -9.9221   -5.4766   -2.8373 H         1 <0>         0.1519
@<TRIPOS>BOND
     1    1    6 ar
     2    1    2 ar
     3    1   31 1
     4    2    3 ar
     5    2   32 1
     6    3    4 ar
     7    3   14 1
     8    4    5 ar
     9    4   33 1
    10    5    6 ar
    11    5   34 1
    12    6    7 1
    13    7   12 am
    14    7    8 1
    15    8    9 1
    16    8   35 1
    17    8   36 1
    18    9   10 1
    19    9   37 1
    20    9   38 1
    21   10   11 1
    22   11   12 1
    23   11   39 1
    24   11   40 1
    25   12   13 2
    26   14   19 am
    27   14   15 1
    28   15   16 1
    29   15   41 1
    30   15   42 1
    31   16   17 1
    32   16   18 1
    33   16   21 1
    34   18   19 1
    35   19   20 2
    36   21   22 1
    37   21   43 1
    38   21   44 1
    39   22   23 am
    40   22   45 1
    41   23   24 2
    42   23   25 1
    43   25   29 1
    44   25   26 2
    45   26   27 1
    46   26   46 1
    47   27   28 2
    48   27   47 1
    49   28   29 1
    50   28   30 1
@<TRIPOS>MOLECULE
ZINC14210470
   71    77     0     0     0
SMALL
USER_CHARGES
1-(3-amino-1,2-benzoxazol-5-yl)-6-[4-[2-[[(3R)-3-hydroxypyrrolidin-1-yl]methyl]phenyl]phenyl]-3-(trifluoromethyl)-4,5-dihydropyrazolo[5,4-c]pyridin-7-one
@<TRIPOS>ATOM
      1 C1          2.5269   -0.3459    1.2512 C.ar      1 <0>        -0.1099
      2 C2          3.5800    0.4940    0.9359 C.ar      1 <0>        -0.0814
      3 C3          3.3601    1.8451    0.7619 C.ar      1 <0>        -0.0977
      4 C4          2.0743    2.3634    0.9059 C.ar      1 <0>        -0.0241
      5 C5          1.0173    1.5127    1.2231 C.ar      1 <0>        -0.1497
      6 C6          1.2487    0.1626    1.3939 C.ar      1 <0>        -0.0843
      7 C7         -0.3770    2.0645    1.3733 C.3       1 <0>         0.0440
      8 C8         -0.5474    1.8538    3.7872 C.3       1 <0>        -0.0059
      9 C9         -1.4662    2.5526    4.8203 C.3       1 <0>        -0.1816
     10 C10        -2.5165    3.2276    3.8996 C.3       1 <0>         0.0940
     11 H1         -3.2954    2.5200    3.6155 H         1 <0>         0.0980
     12 C11        -1.6834    3.6449    2.6694 C.3       1 <0>        -0.0091
     13 O1         -3.0852    4.3733    4.5369 O.3       1 <0>        -0.5482
     14 C12         1.8317    3.8151    0.7206 C.ar      1 <0>        -0.0833
     15 C13         0.9018    4.2528   -0.2214 C.ar      1 <0>        -0.1046
     16 C14         0.6738    5.6021   -0.3878 C.ar      1 <0>        -0.1092
     17 C15         1.3785    6.5264    0.3746 C.ar      1 <0>         0.1573
     18 C16         2.3102    6.0924    1.3103 C.ar      1 <0>        -0.1005
     19 C17         2.5373    4.7438    1.4841 C.ar      1 <0>        -0.0937
     20 N1          1.1496    7.8938    0.2004 N.am      1 <0>        -0.5680
     21 C18        -0.1423    8.4414    0.5933 C.3       1 <0>         0.1173
     22 C19        -0.0225    9.7942    1.2988 C.3       1 <0>        -0.0729
     23 C20         0.9365   10.6575    0.5301 C.2       1 <0>        -0.1077
     24 C21         1.9688   10.1112   -0.2324 C.2       1 <0>        -0.0473
     25 N2          2.6381   11.1514   -0.7729 N.pl3     1 <0>        -0.1609
     26 N3          2.0804   12.2557   -0.4009 N.2       1 <0>        -0.2071
     27 C22         1.0503   12.0237    0.3852 C.2       1 <0>        -0.0460
     28 C23         0.1570   13.0629    1.0122 C.3       1 <0>         0.5619
     29 F1          0.6731   13.4302    2.2596 F         1 <0>        -0.1637
     30 F2          0.0969   14.1879    0.1828 F         1 <0>        -0.1603
     31 F3         -1.1283   12.5354    1.1763 F         1 <0>        -0.1640
     32 C24         3.7606   11.0495   -1.6053 C.ar      1 <0>         0.0623
     33 C25         4.8427   11.9080   -1.4207 C.ar      1 <0>        -0.0262
     34 C26         5.9545   11.8147   -2.2274 C.ar      1 <0>        -0.1141
     35 C27         5.9993   10.8671   -3.2436 C.ar      1 <0>         0.1282
     36 C28         4.9095   10.0045   -3.4366 C.ar      1 <0>        -0.1961
     37 C29         3.7894   10.1009   -2.6115 C.ar      1 <0>         0.0144
     38 C30         5.2627    9.1354   -4.5699 C.2       1 <0>         0.3867
     39 N4          6.4520    9.4886   -4.9717 N.2       1 <0>        -0.3464
     40 O2          6.9272   10.5523   -4.1716 O.3       1 <0>        -0.0795
     41 N5          4.4769    8.1274   -5.1104 N.pl3     1 <0>        -0.8122
     42 C31         2.1390    8.6560   -0.3212 C.2       1 <0>         0.6085
     43 O3          3.1202    8.1598   -0.8418 O.2       1 <0>        -0.4914
     44 H2          2.7035   -1.4028    1.3861 H         1 <0>         0.1378
     45 H3          4.5761    0.0914    0.8253 H         1 <0>         0.1385
     46 H4          4.1829    2.4998    0.5154 H         1 <0>         0.1367
     47 H5          0.4302   -0.4977    1.6398 H         1 <0>         0.1344
     48 H6         -0.5896    2.7442    0.5482 H         1 <0>         0.1389
     49 H7         -1.0953    1.2447    1.3630 H         1 <0>         0.1385
     50 H8         -0.9818    0.9044    3.4741 H         1 <0>         0.1361
     51 H9          0.4460    1.6974    4.2075 H         1 <0>         0.1345
     52 H10        -0.9136    3.2970    5.3937 H         1 <0>         0.1070
     53 H11        -1.9365    1.8238    5.4804 H         1 <0>         0.1205
     54 H12        -1.3928    4.6919    2.7562 H         1 <0>         0.1388
     55 H13        -2.2626    3.4953    1.7582 H         1 <0>         0.1421
     56 H14        -3.6187    4.1656    5.3162 H         1 <0>         0.4051
     57 H15         0.3573    3.5351   -0.8171 H         1 <0>         0.1357
     58 H16        -0.0500    5.9415   -1.1141 H         1 <0>         0.1378
     59 H17         2.8570    6.8122    1.9014 H         1 <0>         0.1339
     60 H18         3.2611    4.4070    2.2115 H         1 <0>         0.1371
     61 H19        -0.7585    8.5628   -0.2977 H         1 <0>         0.0807
     62 H20        -0.6335    7.7370    1.2646 H         1 <0>         0.0978
     63 H21        -0.9998   10.2757    1.3341 H         1 <0>         0.1174
     64 H22         0.3509    9.6460    2.3120 H         1 <0>         0.0992
     65 H23         4.8110   12.6490   -0.6357 H         1 <0>         0.1560
     66 H24         6.7900   12.4817   -2.0741 H         1 <0>         0.1605
     67 H25         2.9491    9.4383   -2.7571 H         1 <0>         0.1375
     68 H26         3.6013    7.9418   -4.7365 H         1 <0>         0.4165
     69 H27         4.8032    7.6083   -5.8620 H         1 <0>         0.4187
     70 N6         -0.4745    2.8016    2.6602 N.4       1 <0>        -0.3930
     71 H28         0.3556    3.3959    2.7697 H         1 <0>         0.4296
@<TRIPOS>BOND
     1    1    6 ar
     2    1    2 ar
     3    1   44 1
     4    2    3 ar
     5    2   45 1
     6    3    4 ar
     7    3   46 1
     8    4    5 ar
     9    4   14 1
    10    5    6 ar
    11    5    7 1
    12    6   47 1
    13    7   48 1
    14    7   49 1
    15    7   70 1
    16    8    9 1
    17    8   50 1
    18    8   51 1
    19    8   70 1
    20    9   10 1
    21    9   52 1
    22    9   53 1
    23   10   11 1
    24   10   12 1
    25   10   13 1
    26   12   54 1
    27   12   55 1
    28   12   70 1
    29   13   56 1
    30   14   19 ar
    31   14   15 ar
    32   15   16 ar
    33   15   57 1
    34   16   17 ar
    35   16   58 1
    36   17   18 ar
    37   17   20 1
    38   18   19 ar
    39   18   59 1
    40   19   60 1
    41   20   42 am
    42   20   21 1
    43   21   22 1
    44   21   61 1
    45   21   62 1
    46   22   23 1
    47   22   63 1
    48   22   64 1
    49   23   27 1
    50   23   24 2
    51   24   25 1
    52   24   42 1
    53   25   26 1
    54   25   32 1
    55   26   27 2
    56   27   28 1
    57   28   29 1
    58   28   30 1
    59   28   31 1
    60   32   37 ar
    61   32   33 ar
    62   33   34 ar
    63   33   65 1
    64   34   35 ar
    65   34   66 1
    66   35   40 1
    67   35   36 ar
    68   36   37 ar
    69   36   38 1
    70   37   67 1
    71   38   39 2
    72   38   41 1
    73   39   40 1
    74   41   68 1
    75   41   69 1
    76   42   43 2
    77   70   71 1
@<TRIPOS>MOLECULE
ZINC28822898
   63    67     0     0     0
SMALL
USER_CHARGES
5-chloro-N-[(1R,2S)-2-[[4-[1-(pyrrolidin-1-ylmethyl)cyclopropyl]benzoyl]amino]cyclopentyl]thiophene-2-carboxamide
@<TRIPOS>ATOM
      1 C1         -0.7571    3.6211   -1.0016 C.ar      1 <0>        -0.0797
      2 C2          0.6046    3.4291   -1.1113 C.ar      1 <0>        -0.1165
      3 C3          1.3944    4.3868   -1.7225 C.ar      1 <0>        -0.0608
      4 C4          0.8257    5.5445   -2.2231 C.ar      1 <0>        -0.1242
      5 C5         -0.5341    5.7511   -2.1156 C.ar      1 <0>        -0.0514
      6 C6         -1.3364    4.7892   -1.4998 C.ar      1 <0>        -0.1125
      7 C7         -2.7943    5.0042   -1.3807 C.2       1 <0>         0.5545
      8 O1         -3.2966    6.0203   -1.8195 O.2       1 <0>        -0.5234
      9 N1         -3.5663    4.0734   -0.7856 N.am      1 <0>        -0.7266
     10 C8         -5.0109    4.2864   -0.6675 C.3       1 <0>         0.1283
     11 H1         -5.2419    5.0944   -1.3773 H         1 <0>         0.1126
     12 C9         -5.7657    2.9801   -0.9894 C.3       1 <0>        -0.1296
     13 C10        -6.9583    2.9771   -0.0012 C.3       1 <0>        -0.1235
     14 C11        -6.3342    3.5634    1.2895 C.3       1 <0>        -0.1297
     15 C12        -5.3724    4.6573    0.7814 C.3       1 <0>         0.1304
     16 H2         -5.8005    5.6674    0.8614 H         1 <0>         0.1159
     17 N2         -4.1635    4.6862    1.6085 N.am      1 <0>        -0.7220
     18 C13        -3.9078    5.7533    2.3911 C.2       1 <0>         0.6069
     19 O2         -4.6812    6.6930    2.4106 O.2       1 <0>        -0.5155
     20 C14        -2.6992    5.7822    3.2180 C.2       1 <0>        -0.2239
     21 C15        -2.2552    6.7714    4.0821 C.2       1 <0>        -0.0629
     22 C16        -1.0746    6.5414    4.7420 C.2       1 <0>        -0.1544
     23 C17        -0.4075    5.3759    4.5219 C.2       1 <0>        -0.1291
     24 S1         -1.4191    4.5504    3.3814 S.3       1 <0>         0.1708
     25 Cl1         1.0892    4.8415    5.2205 Cl        1 <0>         0.0290
     26 C18         2.8804    4.1677   -1.8438 C.3       1 <0>        -0.2181
     27 C19         3.7404    4.4596   -0.6126 C.3       1 <0>        -0.0894
     28 C20         3.7813    5.4040   -1.8165 C.3       1 <0>        -0.1171
     29 C21         3.3047    3.0041   -2.7421 C.3       1 <0>         0.0385
     30 N3          2.6917    3.1603   -4.0680 N.4       1 <0>        -0.4087
     31 C22         3.0668    4.4617   -4.6778 C.3       1 <0>        -0.0040
     32 C23         2.8052    4.2341   -6.1879 C.3       1 <0>        -0.1441
     33 C24         3.2487    2.7681   -6.3984 C.3       1 <0>        -0.1421
     34 C25         3.1780    2.1221   -5.0024 C.3       1 <0>        -0.0012
     35 H3         -1.3730    2.8709   -0.5281 H         1 <0>         0.1322
     36 H4          1.0546    2.5273   -0.7233 H         1 <0>         0.1333
     37 H5          1.4477    6.2880   -2.6993 H         1 <0>         0.1318
     38 H6         -0.9767    6.6552   -2.5068 H         1 <0>         0.1430
     39 H7         -3.1117    3.1538   -0.3886 H         1 <0>         0.4102
     40 H8         -6.0983    2.9977   -2.0378 H         1 <0>         0.0771
     41 H9         -5.0965    2.1215   -0.8314 H         1 <0>         0.0730
     42 H10        -7.7691    3.6025   -0.4031 H         1 <0>         0.0773
     43 H11        -7.3213    1.9473    0.1323 H         1 <0>         0.0779
     44 H12        -7.1300    3.9768    1.9265 H         1 <0>         0.0792
     45 H13        -5.8042    2.7683    1.8344 H         1 <0>         0.0761
     46 H14        -3.4645    3.8370    1.5908 H         1 <0>         0.4062
     47 H15        -2.8147    7.6834    4.2297 H         1 <0>         0.1581
     48 H16        -0.6796    7.2761    5.4280 H         1 <0>         0.1526
     49 H17         3.0914    4.5838    0.2669 H         1 <0>         0.1168
     50 H18         4.4328    3.6220   -0.4420 H         1 <0>         0.1138
     51 H19         4.5074    5.3468   -2.6408 H         1 <0>         0.1055
     52 H20         3.1662    6.3086   -1.9319 H         1 <0>         0.1141
     53 H21         4.4001    2.9992   -2.8428 H         1 <0>         0.1291
     54 H22         2.9734    2.0555   -2.2944 H         1 <0>         0.1314
     55 H23         2.4366    5.2590   -4.2569 H         1 <0>         0.1287
     56 H24         4.1236    4.6770   -4.4615 H         1 <0>         0.1286
     57 H25         1.7374    4.3884   -6.4024 H         1 <0>         0.0971
     58 H26         3.4038    4.9461   -6.7751 H         1 <0>         0.1155
     59 H27         2.5658    2.2766   -7.1069 H         1 <0>         0.1058
     60 H28         4.2718    2.7489   -6.8020 H         1 <0>         0.1048
     61 H29         4.1729    1.7783   -4.6830 H         1 <0>         0.1287
     62 H30         2.4791    1.2726   -5.0027 H         1 <0>         0.1300
     63 H31         1.6064    3.0815   -3.9073 H         1 <0>         0.4458
@<TRIPOS>BOND
     1    1    6 ar
     2    1    2 ar
     3    1   35 1
     4    2    3 ar
     5    2   36 1
     6    3    4 ar
     7    3   26 1
     8    4    5 ar
     9    4   37 1
    10    5    6 ar
    11    5   38 1
    12    6    7 1
    13    7    8 2
    14    7    9 am
    15    9   10 1
    16    9   39 1
    17   10   11 1
    18   10   15 1
    19   10   12 1
    20   12   13 1
    21   12   40 1
    22   12   41 1
    23   13   14 1
    24   13   42 1
    25   13   43 1
    26   14   15 1
    27   14   44 1
    28   14   45 1
    29   15   16 1
    30   15   17 1
    31   17   18 am
    32   17   46 1
    33   18   19 2
    34   18   20 1
    35   20   24 1
    36   20   21 2
    37   21   22 1
    38   21   47 1
    39   22   23 2
    40   22   48 1
    41   23   24 1
    42   23   25 1
    43   26   28 1
    44   26   27 1
    45   26   29 1
    46   27   28 1
    47   27   49 1
    48   27   50 1
    49   28   51 1
    50   28   52 1
    51   29   30 1
    52   29   53 1
    53   29   54 1
    54   30   34 1
    55   30   31 1
    56   30   63 1
    57   31   32 1
    58   31   55 1
    59   31   56 1
    60   32   33 1
    61   32   57 1
    62   32   58 1
    63   33   34 1
    64   33   59 1
    65   33   60 1
    66   34   61 1
    67   34   62 1
@<TRIPOS>MOLECULE
ZINC01908051
   60    62     0     0     0
SMALL
USER_CHARGES
methyl 2-[(3-amidinophenyl)methyl]-3-[4-(1-oxido-4-pyridyl)benzoyl]amino-butanoate
@<TRIPOS>ATOM
      1 H1         -0.1553   -3.7790   -0.0180 H         1 <0>         0.4440
      2 C1          1.3480   -2.4062   -0.0243 C.cat     1 <0>         0.6009
      3 C2          1.6147   -0.9496   -0.0185 C.ar      1 <0>        -0.1651
      4 C3          2.9274   -0.4781   -0.0287 C.ar      1 <0>        -0.0547
      5 C4          3.1697    0.8802   -0.0237 C.ar      1 <0>        -0.1195
      6 C5          2.1136    1.7740   -0.0086 C.ar      1 <0>        -0.0208
      7 C6          0.8098    1.3125    0.0014 C.ar      1 <0>        -0.0864
      8 C7          0.5548   -0.0438   -0.0034 C.ar      1 <0>        -0.0602
      9 C8         -0.3348    2.2928    0.0114 C.3       1 <0>        -0.0751
     10 C9         -0.7150    2.6180    1.4574 C.3       1 <0>        -0.0861
     11 H2         -0.9299    1.6935    1.9933 H         1 <0>         0.1164
     12 C10        -1.9549    3.5145    1.4692 C.3       1 <0>         0.1514
     13 H3         -1.7400    4.4390    0.9333 H         1 <0>         0.1015
     14 C11        -3.1161    2.7880    0.7876 C.3       1 <0>        -0.1683
     15 N1         -2.3191    3.8259    2.8537 N.am      1 <0>        -0.7205
     16 C12        -3.0139    4.9467    3.1319 C.2       1 <0>         0.5643
     17 O1         -3.3387    5.6991    2.2340 O.2       1 <0>        -0.5258
     18 C13        -3.3812    5.2607    4.5281 C.ar      1 <0>        -0.1256
     19 C14        -3.0134    4.3935    5.5596 C.ar      1 <0>        -0.0807
     20 C15        -3.3515    4.6897    6.8609 C.ar      1 <0>        -0.1078
     21 C16        -4.0709    5.8500    7.1483 C.ar      1 <0>        -0.0286
     22 C17        -4.4436    6.7138    6.1184 C.ar      1 <0>        -0.1049
     23 C18        -4.1015    6.4223    4.8169 C.ar      1 <0>        -0.0536
     24 C19        -4.4399    6.1649    8.5495 C.ar      1 <0>        -0.0119
     25 C20        -5.1558    7.3250    8.8600 C.ar      1 <0>        -0.1128
     26 C21        -5.4829    7.5777   10.1762 C.ar      1 <0>         0.0819
     27 N2         -5.1205    6.7465   11.1359 N.ar      1 <0>        -0.1194
     28 C22        -4.4392    5.6436   10.8858 C.ar      1 <0>         0.0801
     29 C23        -4.0762    5.3128    9.5966 C.ar      1 <0>        -0.1146
     30 O2         -5.4729    7.0473   12.4741 O.3       1 <0>        -0.5398
     31 C24         0.4287    3.3337    2.1287 C.2       1 <0>         0.4648
     32 O3          1.4438    3.5603    1.5139 O.2       1 <0>        -0.5003
     33 O4          0.3197    3.7194    3.4098 O.3       1 <0>        -0.3522
     34 C25         1.4605    4.4035    3.9917 C.3       1 <0>         0.0355
     35 N3          2.3975   -3.2987   -0.0393 N.pl3     1 <0>        -0.7813
     36 H4          3.7526   -1.1748   -0.0408 H         1 <0>         0.1359
     37 H5          4.1857    1.2464   -0.0311 H         1 <0>         0.1472
     38 H6          2.3082    2.8363   -0.0047 H         1 <0>         0.1676
     39 H7         -0.4637   -0.4029    0.0048 H         1 <0>         0.1346
     40 H8         -0.0343    3.2074   -0.4997 H         1 <0>         0.1018
     41 H9         -1.1922    1.8556   -0.5002 H         1 <0>         0.1058
     42 H10        -2.8452    2.5562   -0.2424 H         1 <0>         0.0741
     43 H11        -3.3310    1.8634    1.3235 H         1 <0>         0.0630
     44 H12        -3.9994    3.4265    0.7961 H         1 <0>         0.0757
     45 H13        -2.0600    3.2255    3.5701 H         1 <0>         0.4038
     46 H14        -2.4600    3.4931    5.3368 H         1 <0>         0.1308
     47 H15        -3.0637    4.0215    7.6590 H         1 <0>         0.1364
     48 H16        -5.0005    7.6118    6.3419 H         1 <0>         0.1392
     49 H17        -4.3903    7.0912    4.0197 H         1 <0>         0.1443
     50 H18        -5.4517    8.0114    8.0804 H         1 <0>         0.1673
     51 H19        -6.0393    8.4692   10.4253 H         1 <0>         0.1873
     52 H20        -4.1628    4.9915   11.7012 H         1 <0>         0.1861
     53 H21        -3.5189    4.4090    9.3991 H         1 <0>         0.1653
     54 H22         2.3328    3.7508    3.9555 H         1 <0>         0.0649
     55 H23         1.6644    5.3139    3.4280 H         1 <0>         0.0674
     56 H24         1.2409    4.6593    5.0282 H         1 <0>         0.1059
     57 H25         3.3111   -2.9730   -0.0460 H         1 <0>         0.4429
     58 H26         2.2227   -4.2528   -0.0430 H         1 <0>         0.4311
     59 N4          0.0797   -2.7863   -0.0145 N.pl3     1 <0>        -0.7619
     60 H27        -0.6673   -2.0819   -0.0035 H         1 <0>         0.4588
@<TRIPOS>BOND
     1    1   59 1
     2    2    3 1
     3    2   35 1
     4    2   59 2
     5    3    8 ar
     6    3    4 ar
     7    4    5 ar
     8    4   36 1
     9    5    6 ar
    10    5   37 1
    11    6    7 ar
    12    6   38 1
    13    7    8 ar
    14    7    9 1
    15    8   39 1
    16    9   10 1
    17    9   40 1
    18    9   41 1
    19   10   11 1
    20   10   12 1
    21   10   31 1
    22   12   13 1
    23   12   14 1
    24   12   15 1
    25   14   42 1
    26   14   43 1
    27   14   44 1
    28   15   16 am
    29   15   45 1
    30   16   17 2
    31   16   18 1
    32   18   23 ar
    33   18   19 ar
    34   19   20 ar
    35   19   46 1
    36   20   21 ar
    37   20   47 1
    38   21   22 ar
    39   21   24 1
    40   22   23 ar
    41   22   48 1
    42   23   49 1
    43   24   29 ar
    44   24   25 ar
    45   25   26 ar
    46   25   50 1
    47   26   27 ar
    48   26   51 1
    49   27   28 ar
    50   27   30 1
    51   28   29 ar
    52   28   52 1
    53   29   53 1
    54   31   32 2
    55   31   33 1
    56   33   34 1
    57   34   54 1
    58   34   55 1
    59   34   56 1
    60   35   57 1
    61   35   58 1
    62   59   60 1
@<TRIPOS>MOLECULE
ZINC01910616
   60    63     0     0     0
SMALL
USER_CHARGES
3-[[2-[(4-amidinophenyl)aminomethyl]-1-methyl-benzoimidazol-5-yl]carbonyl-(2-pyridyl)amino]propanoic acid
@<TRIPOS>ATOM
      1 C1          0.5865   -1.8473    1.7596 C.3       1 <0>         0.0728
      2 N1         -0.0011   -1.5841    3.0754 N.pl3     1 <0>        -0.4807
      3 C2          0.6873   -1.4122    4.2568 C.ar      1 <0>         0.0845
      4 C3          2.0357   -1.4239    4.5969 C.ar      1 <0>        -0.1121
      5 C4          2.4180   -1.2162    5.8900 C.ar      1 <0>        -0.0691
      6 C5          1.4591   -0.9894    6.8866 C.ar      1 <0>        -0.1346
      7 C6          0.1055   -0.9743    6.5647 C.ar      1 <0>         0.0074
      8 C7         -0.2888   -1.1862    5.2445 C.ar      1 <0>         0.0276
      9 N2         -1.4970   -1.2314    4.6247 N.2       1 <0>        -0.4522
     10 C8         -1.3270   -1.4583    3.3553 C.2       1 <0>         0.2306
     11 C9         -2.4371   -1.5695    2.3423 C.3       1 <0>         0.2000
     12 N3         -2.8760   -2.9642    2.2500 N.pl3     1 <0>        -0.7081
     13 C10        -3.8991   -3.3156    1.3732 C.ar      1 <0>         0.2903
     14 C11        -4.5076   -2.3402    0.5894 C.ar      1 <0>        -0.2017
     15 C12        -5.5157   -2.6860   -0.2827 C.ar      1 <0>         0.0008
     16 C13        -5.9350   -4.0149   -0.3716 C.ar      1 <0>        -0.2332
     17 C14        -5.3265   -4.9907    0.4201 C.ar      1 <0>        -0.0066
     18 C15        -4.3149   -4.6405    1.2864 C.ar      1 <0>        -0.1916
     19 C16        -7.0210   -4.3881   -1.3031 C.cat     1 <0>         0.6028
     20 N4         -7.6208   -3.4237   -2.0842 N.pl3     1 <0>        -0.7922
     21 C17         1.8864   -0.7664    8.2821 C.2       1 <0>         0.5708
     22 O1          1.2765    0.0138    8.9873 O.2       1 <0>        -0.5153
     23 N5          2.9525   -1.4280    8.7743 N.am      1 <0>        -0.5330
     24 C18         3.8077   -2.2092    7.8774 C.3       1 <0>         0.0980
     25 C19         5.0983   -1.4353    7.6010 C.3       1 <0>        -0.1787
     26 C20         5.9781   -2.2389    6.6784 C.2       1 <0>         0.4674
     27 O2          5.6107   -3.3197    6.2826 O.co2     1 <0>        -0.6418
     28 C21         3.2412   -1.3688   10.1360 C.ar      1 <0>         0.3587
     29 C22         2.2767   -0.9077   11.0253 C.ar      1 <0>        -0.1939
     30 C23         2.5746   -0.8598   12.3755 C.ar      1 <0>        -0.0597
     31 C24         3.8359   -1.2656   12.7904 C.ar      1 <0>        -0.2031
     32 C25         4.7469   -1.7068   11.8515 C.ar      1 <0>         0.1276
     33 N6          4.4328   -1.7471   10.5707 N.ar      1 <0>        -0.4989
     34 H1          0.6785   -2.9233    1.6114 H         1 <0>         0.0794
     35 H2          1.5730   -1.3872    1.7035 H         1 <0>         0.0947
     36 H3         -0.0549   -1.4275    0.9847 H         1 <0>         0.0858
     37 H4          2.7819   -1.5982    3.8358 H         1 <0>         0.1371
     38 H5          3.4668   -1.2268    6.1473 H         1 <0>         0.1711
     39 H6         -0.6342   -0.7993    7.3319 H         1 <0>         0.1440
     40 H7         -3.2751   -0.9447    2.6514 H         1 <0>         0.1102
     41 H8         -2.0757   -1.2372    1.3692 H         1 <0>         0.0941
     42 H9         -2.4539   -3.6429    2.7996 H         1 <0>         0.4168
     43 H10        -4.1860   -1.3117    0.6618 H         1 <0>         0.1452
     44 H11        -5.9847   -1.9293   -0.8940 H         1 <0>         0.1350
     45 H12        -5.6487   -6.0194    0.3530 H         1 <0>         0.1335
     46 H13        -3.8437   -5.3951    1.8989 H         1 <0>         0.1452
     47 H14        -8.1155   -5.9726   -1.9664 H         1 <0>         0.4390
     48 H15        -7.3305   -2.5003   -2.0228 H         1 <0>         0.4401
     49 H16        -8.3332   -3.6685   -2.6952 H         1 <0>         0.4268
     50 H17         4.0496   -3.1634    8.3456 H         1 <0>         0.0897
     51 H18         3.2830   -2.3876    6.9389 H         1 <0>         0.1112
     52 H19         4.8566   -0.4811    7.1328 H         1 <0>         0.0627
     53 H20         5.6231   -1.2568    8.5395 H         1 <0>         0.0925
     54 H21         1.3068   -0.5952   10.6673 H         1 <0>         0.1662
     55 H22         1.8440   -0.5105   13.0902 H         1 <0>         0.1341
     56 H23         4.1018   -1.2361   13.8368 H         1 <0>         0.1331
     57 H24         5.7293   -2.0235   12.1695 H         1 <0>         0.1595
     58 N7         -7.3714   -5.6657   -1.3399 N.pl3     1 <0>        -0.7722
     59 H25        -6.8937   -6.3465   -0.7377 H         1 <0>         0.4572
     60 O3          7.1701   -1.7540    6.2963 O.co2     1 <0>        -0.7646
@<TRIPOS>BOND
     1    1    2 1
     2    1   34 1
     3    1   35 1
     4    1   36 1
     5    2   10 1
     6    2    3 1
     7    3    8 ar
     8    3    4 ar
     9    4    5 ar
    10    4   37 1
    11    5    6 ar
    12    5   38 1
    13    6    7 ar
    14    6   21 1
    15    7    8 ar
    16    7   39 1
    17    8    9 1
    18    9   10 2
    19   10   11 1
    20   11   12 1
    21   11   40 1
    22   11   41 1
    23   12   13 1
    24   12   42 1
    25   13   18 ar
    26   13   14 ar
    27   14   15 ar
    28   14   43 1
    29   15   16 ar
    30   15   44 1
    31   16   17 ar
    32   16   19 1
    33   17   18 ar
    34   17   45 1
    35   18   46 1
    36   19   20 1
    37   19   58 2
    38   20   48 1
    39   20   49 1
    40   21   22 2
    41   21   23 am
    42   23   24 1
    43   23   28 1
    44   24   25 1
    45   24   50 1
    46   24   51 1
    47   25   26 1
    48   25   52 1
    49   25   53 1
    50   26   27 2
    51   26   60 1
    52   28   33 ar
    53   28   29 ar
    54   29   30 ar
    55   29   54 1
    56   30   31 ar
    57   30   55 1
    58   31   32 ar
    59   31   56 1
    60   32   33 ar
    61   32   57 1
    62   47   58 1
    63   58   59 1
@<TRIPOS>MOLECULE
ZINC01033024
   46    49     0     0     0
SMALL
USER_CHARGES
3-chloro-N-[2-[(4-fluorophenyl)carbamoyl]-4-methyl-phenyl]-benzothiophene-2-carboxamide
@<TRIPOS>ATOM
      1 C1          1.2677   -2.0879    0.1290 C.3       1 <0>        -0.1151
      2 C2          1.2273   -0.5817    0.0976 C.ar      1 <0>        -0.1053
      3 C3          2.4038    0.1366   -0.0447 C.ar      1 <0>        -0.0634
      4 C4          2.3808    1.5161   -0.0749 C.ar      1 <0>        -0.1252
      5 C5          1.1741    2.1945    0.0366 C.ar      1 <0>         0.2132
      6 C6         -0.0189    1.4703    0.1808 C.ar      1 <0>        -0.1697
      7 C7          0.0208    0.0741    0.2101 C.ar      1 <0>        -0.0651
      8 C8         -1.3075    2.1784    0.2946 C.2       1 <0>         0.5712
      9 O1         -1.3304    3.3925    0.3601 O.2       1 <0>        -0.5243
     10 N1         -2.4598    1.4799    0.3260 N.am      1 <0>        -0.6646
     11 C9         -3.6747    2.1432    0.5332 C.ar      1 <0>         0.1318
     12 C10        -4.6885    1.5278    1.2556 C.ar      1 <0>        -0.1134
     13 C11        -5.8845    2.1863    1.4637 C.ar      1 <0>        -0.1340
     14 C12        -6.0775    3.4546    0.9424 C.ar      1 <0>         0.0864
     15 C13        -5.0699    4.0678    0.2169 C.ar      1 <0>        -0.1341
     16 C14        -3.8701    3.4153    0.0117 C.ar      1 <0>        -0.0903
     17 F1         -7.2502    4.0949    1.1424 F         1 <0>        -0.1383
     18 N2          1.1484    3.5856    0.0055 N.am      1 <0>        -0.6547
     19 C15         2.0168    4.2584   -0.7753 C.2       1 <0>         0.6022
     20 O2          2.7576    3.6506   -1.5252 O.2       1 <0>        -0.4848
     21 C16         2.0690    5.7242   -0.7211 C.2       1 <0>        -0.2044
     22 C17         2.8732    6.5707   -1.4207 C.2       1 <0>         0.0307
     23 C18         2.7655    7.9607   -1.2263 C.ar      1 <0>        -0.1114
     24 C19         3.5039    8.9952   -1.8566 C.ar      1 <0>        -0.0515
     25 C20         3.2781   10.2978   -1.5468 C.ar      1 <0>        -0.1229
     26 C21         2.3225   10.6684   -0.6083 C.ar      1 <0>        -0.0690
     27 C22         1.5812    9.6940    0.0284 C.ar      1 <0>        -0.0828
     28 C23         1.7997    8.3670   -0.2755 C.ar      1 <0>        -0.0926
     29 S1          1.0992    6.8348    0.2838 S.3       1 <0>         0.1154
     30 Cl1         4.0260    5.9377   -2.5538 Cl        1 <0>        -0.0179
     31 H1          1.1690   -2.4752   -0.8851 H         1 <0>         0.0740
     32 H2          2.2163   -2.4172    0.5530 H         1 <0>         0.0707
     33 H3          0.4469   -2.4606    0.7418 H         1 <0>         0.0686
     34 H4          3.3447   -0.3865   -0.1321 H         1 <0>         0.1356
     35 H5          3.3021    2.0687   -0.1861 H         1 <0>         0.1448
     36 H6         -0.8933   -0.4905    0.3205 H         1 <0>         0.1308
     37 H7         -2.4470    0.5176    0.2051 H         1 <0>         0.4137
     38 H8         -4.5402    0.5366    1.6582 H         1 <0>         0.1372
     39 H9         -6.6713    1.7101    2.0299 H         1 <0>         0.1411
     40 H10        -5.2223    5.0572   -0.1885 H         1 <0>         0.1402
     41 H11        -3.0843    3.8942   -0.5536 H         1 <0>         0.1500
     42 H12         0.5054    4.0710    0.5458 H         1 <0>         0.4251
     43 H13         4.2547    8.7436   -2.5911 H         1 <0>         0.1335
     44 H14         3.8550   11.0646   -2.0423 H         1 <0>         0.1358
     45 H15         2.1609   11.7114   -0.3792 H         1 <0>         0.1425
     46 H16         0.8357    9.9688    0.7598 H         1 <0>         0.1405
@<TRIPOS>BOND
     1    1    2 1
     2    1   31 1
     3    1   32 1
     4    1   33 1
     5    2    7 ar
     6    2    3 ar
     7    3    4 ar
     8    3   34 1
     9    4    5 ar
    10    4   35 1
    11    5    6 ar
    12    5   18 1
    13    6    7 ar
    14    6    8 1
    15    7   36 1
    16    8    9 2
    17    8   10 am
    18   10   11 1
    19   10   37 1
    20   11   16 ar
    21   11   12 ar
    22   12   13 ar
    23   12   38 1
    24   13   14 ar
    25   13   39 1
    26   14   15 ar
    27   14   17 1
    28   15   16 ar
    29   15   40 1
    30   16   41 1
    31   18   19 am
    32   18   42 1
    33   19   20 2
    34   19   21 1
    35   21   29 1
    36   21   22 2
    37   22   23 1
    38   22   30 1
    39   23   28 ar
    40   23   24 ar
    41   24   25 ar
    42   24   43 1
    43   25   26 ar
    44   25   44 1
    45   26   27 ar
    46   26   45 1
    47   27   28 ar
    48   27   46 1
    49   28   29 1
@<TRIPOS>MOLECULE
ZINC30691754
   55    57     0     0     0
SMALL
USER_CHARGES
N-(5-chloro-2-pyridyl)-2-[[4-(N,N-dimethylcarbamimidoyl)benzoyl]amino]-5-methoxy-benzamide
@<TRIPOS>ATOM
      1 C1         -3.5858   10.2737    1.1058 C.3       1 <0>         0.0497
      2 N1         -2.3090    9.5625    1.0045 N.pl3     1 <0>        -0.5693
      3 C2         -2.2729    8.1919    0.4883 C.3       1 <0>         0.0440
      4 C3         -1.1421   10.1827    1.3948 C.cat     1 <0>         0.5774
      5 N2         -1.1018   11.4784    1.5133 N.pl3     1 <0>        -0.7659
      6 C4          0.0668    9.3747    1.6795 C.ar      1 <0>        -0.1260
      7 C5          1.3341    9.9336    1.5125 C.ar      1 <0>        -0.0725
      8 C6          2.4585    9.1829    1.7771 C.ar      1 <0>        -0.0567
      9 C7          2.3296    7.8625    2.2125 C.ar      1 <0>        -0.0673
     10 C8          1.0610    7.3020    2.3739 C.ar      1 <0>        -0.0787
     11 C9         -0.0628    8.0557    2.1149 C.ar      1 <0>        -0.0714
     12 C10         3.5361    7.0562    2.4967 C.2       1 <0>         0.5490
     13 O1          4.6404    7.5428    2.3513 O.2       1 <0>        -0.5101
     14 N3          3.4113    5.7817    2.9169 N.am      1 <0>        -0.6610
     15 C11         4.5415    5.0577    3.2913 C.ar      1 <0>         0.1711
     16 C12         5.7396    5.2361    2.6125 C.ar      1 <0>        -0.0869
     17 C13         6.8574    4.5149    2.9789 C.ar      1 <0>        -0.1552
     18 C14         6.7954    3.6098    4.0320 C.ar      1 <0>         0.1175
     19 C15         5.6115    3.4244    4.7214 C.ar      1 <0>        -0.1035
     20 C16         4.4740    4.1497    4.3583 C.ar      1 <0>        -0.1288
     21 C17         3.2076    3.9574    5.0891 C.2       1 <0>         0.5733
     22 O2          2.1980    4.5225    4.7151 O.2       1 <0>        -0.4871
     23 N4          3.1692    3.1553    6.1715 N.am      1 <0>        -0.6647
     24 C18         1.9544    2.8942    6.8026 C.ar      1 <0>         0.3663
     25 C19         1.9049    1.9813    7.8503 C.ar      1 <0>        -0.1894
     26 C20         0.6929    1.7314    8.4688 C.ar      1 <0>        -0.0349
     27 C21        -0.4337    2.4067    8.0158 C.ar      1 <0>        -0.1207
     28 C22        -0.3109    3.3006    6.9694 C.ar      1 <0>         0.1460
     29 N5          0.8590    3.5179    6.3994 N.ar      1 <0>        -0.4659
     30 Cl1        -1.9793    2.1298    8.7563 Cl        1 <0>        -0.0499
     31 O3          7.9028    2.9041    4.3850 O.3       1 <0>        -0.3121
     32 C23         9.0927    3.1442    3.6311 C.3       1 <0>         0.0200
     33 H1         -3.4130   11.2814    1.5117 H         1 <0>         0.0843
     34 H2         -4.2618    9.7201    1.7741 H         1 <0>         0.1040
     35 H3         -4.0412   10.3536    0.1077 H         1 <0>         0.1005
     36 H4         -1.2349    7.8277    0.4873 H         1 <0>         0.1070
     37 H5         -2.6680    8.1762   -0.5382 H         1 <0>         0.0972
     38 H6         -2.8886    7.5428    1.1282 H         1 <0>         0.0976
     39 H7         -0.1702   11.9735    1.8249 H         1 <0>         0.4767
     40 H8          1.4337   10.9550    1.1761 H         1 <0>         0.1454
     41 H9          3.4396    9.6157    1.6481 H         1 <0>         0.1597
     42 H10         0.9606    6.2793    2.7063 H         1 <0>         0.1534
     43 H11        -1.0442    7.6239    2.2447 H         1 <0>         0.1518
     44 H12         2.4173    5.3130    2.9643 H         1 <0>         0.4475
     45 H13         5.7955    5.9375    1.7932 H         1 <0>         0.1509
     46 H14         7.7856    4.6546    2.4448 H         1 <0>         0.1420
     47 H15         5.5659    2.7200    5.5389 H         1 <0>         0.1402
     48 H16         4.0967    2.7067    6.5568 H         1 <0>         0.4491
     49 H17         2.8008    1.4743    8.1771 H         1 <0>         0.1488
     50 H18         0.6248    1.0309    9.2879 H         1 <0>         0.1521
     51 H19        -1.1837    3.8278    6.6133 H         1 <0>         0.1670
     52 H20         9.9059    2.5129    4.0186 H         1 <0>         0.1085
     53 H21         9.3761    4.2033    3.7208 H         1 <0>         0.0605
     54 H22         8.9120    2.9012    2.5736 H         1 <0>         0.0603
     55 H23        -1.9993   12.0782    1.3019 H         1 <0>         0.4596
@<TRIPOS>BOND
     1    1    2 1
     2    1   33 1
     3    1   34 1
     4    1   35 1
     5    2    3 1
     6    2    4 1
     7    3   36 1
     8    3   37 1
     9    3   38 1
    10    4    5 2
    11    4    6 1
    12    5   39 1
    13    5   55 1
    14    6   11 ar
    15    6    7 ar
    16    7    8 ar
    17    7   40 1
    18    8    9 ar
    19    8   41 1
    20    9   10 ar
    21    9   12 1
    22   10   11 ar
    23   10   42 1
    24   11   43 1
    25   12   13 2
    26   12   14 am
    27   14   15 1
    28   14   44 1
    29   15   20 ar
    30   15   16 ar
    31   16   17 ar
    32   16   45 1
    33   17   18 ar
    34   17   46 1
    35   18   19 ar
    36   18   31 1
    37   19   20 ar
    38   19   47 1
    39   20   21 1
    40   21   22 2
    41   21   23 am
    42   23   24 1
    43   23   48 1
    44   24   29 ar
    45   24   25 ar
    46   25   26 ar
    47   25   49 1
    48   26   27 ar
    49   26   50 1
    50   27   28 ar
    51   27   30 1
    52   28   29 ar
    53   28   51 1
    54   31   32 1
    55   32   52 1
    56   32   53 1
    57   32   54 1
@<TRIPOS>MOLECULE
ZINC13507825
   64    65     0     0     0
SMALL
USER_CHARGES

@<TRIPOS>ATOM
      1 C1         -0.0167    1.3781    0.0096 C.ar      1 <0>        -0.1127
      2 C2          1.1709    2.0855    0.0021 C.ar      1 <0>        -0.1238
      3 C3          2.3773    1.4107   -0.0130 C.ar      1 <0>        -0.1240
      4 C4          2.3960    0.0285   -0.0201 C.ar      1 <0>        -0.0727
      5 C5          1.2084   -0.6789   -0.0117 C.ar      1 <0>        -0.1003
      6 C6          0.0021   -0.0041    0.0020 C.ar      1 <0>        -0.1055
      7 C7          3.7112   -0.7071   -0.0376 C.3       1 <0>        -0.0919
      8 C8          4.1714   -0.9633    1.3989 C.3       1 <0>         0.1393
      9 H1          3.3868   -1.4885    1.9436 H         1 <0>         0.1251
     10 C9          5.4216   -1.8045    1.3834 C.2       1 <0>         0.5181
     11 O1          6.4455   -1.3782    1.8741 O.2       1 <0>        -0.5209
     12 N1          5.4019   -3.0307    0.8243 N.am      1 <0>        -0.7086
     13 C10         6.6173   -3.8485    0.8092 C.3       1 <0>         0.1068
     14 H2          7.1849   -3.6726    1.7230 H         1 <0>         0.1284
     15 C11         6.2357   -5.3276    0.7225 C.3       1 <0>        -0.1248
     16 C12         5.4883   -5.7368    1.9932 C.3       1 <0>        -0.1323
     17 C13         5.1067   -7.2159    1.9065 C.3       1 <0>         0.0916
     18 N2          4.3910   -7.6077    3.1233 N.pl3     1 <0>        -0.6982
     19 C14         3.9481   -8.8933    3.2723 C.cat     1 <0>         0.7431
     20 N3          3.2974   -9.2495    4.3785 N.pl3     1 <0>        -0.7927
     21 N4          4.1676   -9.7889    2.3111 N.pl3     1 <0>        -0.7912
     22 C15         7.4587   -3.4760   -0.3843 C.2       1 <0>         0.3308
     23 O2          6.9786   -2.8273   -1.2826 O.2       1 <0>        -0.4026
     24 C16         8.8991   -3.9129   -0.4567 C.3       1 <0>        -0.1026
     25 Cl1         9.6313   -3.3174   -1.9929 Cl        1 <0>        -0.1247
     26 N5          4.4511    0.3151    2.0574 N.am      1 <0>        -0.6885
     27 C17         3.4510    1.0070    2.6383 C.2       1 <0>         0.5138
     28 O3          2.3193    0.5713    2.6159 O.2       1 <0>        -0.5051
     29 C18         3.7387    2.3221    3.3156 C.3       1 <0>         0.0042
     30 H3          4.4632    2.1842    4.1182 H         1 <0>         0.1704
     31 C19         4.2632    3.3550    2.2872 C.3       1 <0>        -0.1399
     32 C20         3.8956    4.6963    2.9749 C.3       1 <0>        -0.1392
     33 C21         2.5532    4.3764    3.6655 C.3       1 <0>        -0.0093
     34 N6          2.4908    2.9126    3.8446 N.4       1 <0>        -0.5018
     35 H4         -0.9591    1.9053    0.0259 H         1 <0>         0.1234
     36 H5          1.1563    3.1654    0.0076 H         1 <0>         0.1184
     37 H6          3.3051    1.9634   -0.0196 H         1 <0>         0.1121
     38 H7          1.2231   -1.7588   -0.0176 H         1 <0>         0.1181
     39 H8         -0.9258   -0.5567    0.0082 H         1 <0>         0.1239
     40 H9          3.5884   -1.6586   -0.5549 H         1 <0>         0.0944
     41 H10         4.4573   -0.1052   -0.5563 H         1 <0>         0.0900
     42 H11         4.5830   -3.3717    0.4319 H         1 <0>         0.4099
     43 H12         5.5938   -5.4870   -0.1439 H         1 <0>         0.0908
     44 H13         7.1383   -5.9304    0.6219 H         1 <0>         0.1024
     45 H14         6.1302   -5.5773    2.8596 H         1 <0>         0.0897
     46 H15         4.5857   -5.1340    2.0939 H         1 <0>         0.0841
     47 H16         4.4648   -7.3754    1.0402 H         1 <0>         0.0951
     48 H17         6.0093   -7.8187    1.8059 H         1 <0>         0.0967
     49 H18         4.2312   -6.9555    3.8233 H         1 <0>         0.4350
     50 H19         3.1376   -8.5973    5.0785 H         1 <0>         0.4410
     51 H20         4.6415   -9.5295    1.5055 H         1 <0>         0.4399
     52 H21         3.8535  -10.7006    2.4168 H         1 <0>         0.4430
     53 H22         9.4469   -3.5006    0.3907 H         1 <0>         0.1305
     54 H23         8.9505   -5.0013   -0.4276 H         1 <0>         0.1283
     55 H24         5.3562    0.6636    2.0753 H         1 <0>         0.4197
     56 H25         5.3418    3.2649    2.1587 H         1 <0>         0.1277
     57 H26         3.7477    3.2517    1.3324 H         1 <0>         0.1064
     58 H27         4.6513    4.9720    3.7104 H         1 <0>         0.1070
     59 H28         3.7697    5.4868    2.2351 H         1 <0>         0.1205
     60 H29         2.5091    4.8694    4.6366 H         1 <0>         0.1412
     61 H30         1.7255    4.7102    3.0398 H         1 <0>         0.1373
     62 H31         1.6994    2.5425    3.3397 H         1 <0>         0.4363
     63 H32         2.9833  -10.1612    4.4842 H         1 <0>         0.4433
     64 H33         2.3998    2.6921    4.8250 H         1 <0>         0.4357
@<TRIPOS>BOND
     1    1    6 ar
     2    1    2 ar
     3    1   35 1
     4    2    3 ar
     5    2   36 1
     6    3    4 ar
     7    3   37 1
     8    4    5 ar
     9    4    7 1
    10    5    6 ar
    11    5   38 1
    12    6   39 1
    13    7    8 1
    14    7   40 1
    15    7   41 1
    16    8    9 1
    17    8   10 1
    18    8   26 1
    19   10   11 2
    20   10   12 am
    21   12   13 1
    22   12   42 1
    23   13   14 1
    24   13   15 1
    25   13   22 1
    26   15   16 1
    27   15   43 1
    28   15   44 1
    29   16   17 1
    30   16   45 1
    31   16   46 1
    32   17   18 1
    33   17   47 1
    34   17   48 1
    35   18   19 1
    36   18   49 1
    37   19   20 2
    38   19   21 1
    39   20   50 1
    40   20   63 1
    41   21   51 1
    42   21   52 1
    43   22   23 2
    44   22   24 1
    45   24   25 1
    46   24   53 1
    47   24   54 1
    48   26   27 am
    49   26   55 1
    50   27   28 2
    51   27   29 1
    52   29   30 1
    53   29   34 1
    54   29   31 1
    55   31   32 1
    56   31   56 1
    57   31   57 1
    58   32   33 1
    59   32   58 1
    60   32   59 1
    61   33   34 1
    62   33   60 1
    63   33   61 1
    64   34   62 1
    65   34   64 1
@<TRIPOS>MOLECULE
ZINC03941009
   46    49     0     0     0
SMALL
USER_CHARGES
3-chloro-N-[2-[(4-chlorophenyl)carbamoyl]-4-methyl-phenyl]-benzothiophene-2-carboxamide
@<TRIPOS>ATOM
      1 C1          1.0846   -2.3453    0.0878 C.3       1 <0>        -0.1153
      2 C2          1.1218   -0.8393    0.0488 C.ar      1 <0>        -0.1051
      3 C3          2.3395   -0.1787    0.0841 C.ar      1 <0>        -0.0628
      4 C4          2.3876    1.2000    0.0486 C.ar      1 <0>        -0.1251
      5 C5          1.2119    1.9357   -0.0229 C.ar      1 <0>         0.2137
      6 C6         -0.0227    1.2700   -0.0588 C.ar      1 <0>        -0.1709
      7 C7         -0.0550   -0.1262   -0.0221 C.ar      1 <0>        -0.0650
      8 C8         -1.2783    2.0392   -0.1408 C.2       1 <0>         0.5710
      9 O1         -1.2524    3.2535   -0.0810 O.2       1 <0>        -0.5209
     10 N1         -2.4544    1.3964   -0.2820 N.am      1 <0>        -0.6630
     11 C9         -3.6539    2.1150   -0.2383 C.ar      1 <0>         0.1529
     12 C10        -3.7213    3.3145    0.4583 C.ar      1 <0>        -0.1164
     13 C11        -4.9055    4.0242    0.4958 C.ar      1 <0>        -0.0871
     14 C12        -6.0271    3.5359   -0.1511 C.ar      1 <0>        -0.0524
     15 C13        -5.9641    2.3383   -0.8416 C.ar      1 <0>        -0.0870
     16 C14        -4.7811    1.6272   -0.8868 C.ar      1 <0>        -0.1369
     17 Cl1        -7.5156    4.4275   -0.0969 Cl        1 <0>        -0.0685
     18 N2          1.2580    3.3262   -0.0593 N.am      1 <0>        -0.6547
     19 C15         2.2649    3.9505   -0.7018 C.2       1 <0>         0.6025
     20 O2          3.0792    3.3020   -1.3318 O.2       1 <0>        -0.4847
     21 C16         2.3791    5.4125   -0.6417 C.2       1 <0>        -0.2044
     22 C17         3.3189    6.2141   -1.2136 C.2       1 <0>         0.0308
     23 C18         3.2506    7.6091   -1.0388 C.ar      1 <0>        -0.1115
     24 C19         4.1244    8.6021   -1.5519 C.ar      1 <0>        -0.0515
     25 C20         3.9182    9.9164   -1.2803 C.ar      1 <0>        -0.1229
     26 C21         2.8518   10.3398   -0.4961 C.ar      1 <0>        -0.0689
     27 C22         1.9772    9.4070    0.0228 C.ar      1 <0>        -0.0828
     28 C23         2.1743    8.0686   -0.2437 C.ar      1 <0>        -0.0924
     29 S1          1.3247    6.5762    0.2057 S.3       1 <0>         0.1151
     30 Cl2         4.5959    5.5177   -2.1612 Cl        1 <0>        -0.0179
     31 H1          1.1207   -2.7361   -0.9291 H         1 <0>         0.0741
     32 H2          1.9419   -2.7156    0.6500 H         1 <0>         0.0709
     33 H3          0.1642   -2.6737    0.5707 H         1 <0>         0.0688
     34 H4          3.2566   -0.7464    0.1400 H         1 <0>         0.1358
     35 H5          3.3406    1.7074    0.0761 H         1 <0>         0.1450
     36 H6         -1.0013   -0.6460   -0.0497 H         1 <0>         0.1307
     37 H7         -2.4691    0.4355   -0.4140 H         1 <0>         0.4143
     38 H8         -2.8474    3.6940    0.9668 H         1 <0>         0.1525
     39 H9         -4.9573    4.9592    1.0340 H         1 <0>         0.1380
     40 H10        -6.8408    1.9596   -1.3460 H         1 <0>         0.1387
     41 H11        -4.7324    0.6927   -1.4261 H         1 <0>         0.1361
     42 H12         0.5654    3.8460    0.3778 H         1 <0>         0.4246
     43 H13         4.9635    8.3091   -2.1654 H         1 <0>         0.1335
     44 H14         4.5995   10.6508   -1.6838 H         1 <0>         0.1358
     45 H15         2.7086   11.3911   -0.2943 H         1 <0>         0.1426
     46 H16         1.1446    9.7229    0.6340 H         1 <0>         0.1406
@<TRIPOS>BOND
     1    1    2 1
     2    1   31 1
     3    1   32 1
     4    1   33 1
     5    2    7 ar
     6    2    3 ar
     7    3    4 ar
     8    3   34 1
     9    4    5 ar
    10    4   35 1
    11    5    6 ar
    12    5   18 1
    13    6    7 ar
    14    6    8 1
    15    7   36 1
    16    8    9 2
    17    8   10 am
    18   10   11 1
    19   10   37 1
    20   11   16 ar
    21   11   12 ar
    22   12   13 ar
    23   12   38 1
    24   13   14 ar
    25   13   39 1
    26   14   15 ar
    27   14   17 1
    28   15   16 ar
    29   15   40 1
    30   16   41 1
    31   18   19 am
    32   18   42 1
    33   19   20 2
    34   19   21 1
    35   21   29 1
    36   21   22 2
    37   22   23 1
    38   22   30 1
    39   23   28 ar
    40   23   24 ar
    41   24   25 ar
    42   24   43 1
    43   25   26 ar
    44   25   44 1
    45   26   27 ar
    46   26   45 1
    47   27   28 ar
    48   27   46 1
    49   28   29 1
@<TRIPOS>MOLECULE
ZINC45357357
   54    57     0     0     0
SMALL
USER_CHARGES

@<TRIPOS>ATOM
      1 C1          0.4860    1.4259   -0.2635 C.ar      1 <0>        -0.1013
      2 C2          1.7059    2.0761   -0.2533 C.ar      1 <0>        -0.1143
      3 C3          2.8774    1.3463   -0.1770 C.ar      1 <0>        -0.1022
      4 C4          2.8291   -0.0336   -0.1105 C.ar      1 <0>        -0.1335
      5 C5          1.6092   -0.6837   -0.1198 C.ar      1 <0>        -0.0905
      6 C6          0.4377    0.0460   -0.1975 C.ar      1 <0>        -0.1181
      7 C7          4.1063   -0.8292   -0.0283 C.3       1 <0>         0.1202
      8 H1          4.9375   -0.2196   -0.3826 H         1 <0>         0.0977
      9 C8          4.3582   -1.2408    1.4236 C.3       1 <0>         0.1494
     10 N1          5.6575   -1.9103    1.5230 N.am      1 <0>        -0.7442
     11 C9          6.0930   -2.3627    2.7155 C.2       1 <0>         0.7045
     12 O1          5.4076   -2.2152    3.7089 O.2       1 <0>        -0.5627
     13 N2          7.2884   -2.9785    2.8069 N.am      1 <0>        -0.6853
     14 C10         7.6906   -3.5491    4.0198 C.ar      1 <0>         0.1571
     15 C11         9.0286   -3.5246    4.3904 C.ar      1 <0>        -0.1458
     16 C12         9.4223   -4.0882    5.5883 C.ar      1 <0>        -0.0987
     17 C13         8.4856   -4.6764    6.4182 C.ar      1 <0>        -0.1318
     18 C14         7.1525   -4.7029    6.0518 C.ar      1 <0>        -0.1003
     19 C15         6.7516   -4.1360    4.8579 C.ar      1 <0>        -0.1196
     20 O2          3.9923   -1.9984   -0.8419 O.3       1 <0>        -0.2942
     21 C16         4.2844   -1.8624   -2.1610 C.ar      1 <0>         0.2177
     22 C17         4.5619   -0.6176   -2.6728 C.ar      1 <0>        -0.2226
     23 C18         4.8647   -0.4389   -4.0154 C.ar      1 <0>         0.0055
     24 C19         4.8898   -1.5310   -4.8600 C.ar      1 <0>        -0.1270
     25 C20         4.6145   -2.7870   -4.3635 C.ar      1 <0>        -0.0391
     26 C21         4.3065   -3.0107   -3.0010 C.ar      1 <0>        -0.1608
     27 C22         4.0553   -4.3489   -2.6514 C.2       1 <0>         0.0350
     28 C23         4.1224   -5.3217   -3.5980 C.2       1 <0>        -0.2895
     29 S1          4.5391   -4.4117   -5.0753 S.3       1 <0>         0.1382
     30 C24         3.8984   -6.7671   -3.4443 C.cat     1 <0>         0.6502
     31 N3          4.0102   -7.5759   -4.5005 N.pl3     1 <0>        -0.7615
     32 N4          3.5833   -7.2703   -2.2486 N.pl3     1 <0>        -0.7601
     33 H2         -0.4295    1.9963   -0.3186 H         1 <0>         0.1287
     34 H3          1.7436    3.1542   -0.3053 H         1 <0>         0.1304
     35 H4          3.8305    1.8542   -0.1697 H         1 <0>         0.1265
     36 H5          1.5714   -1.7618   -0.0682 H         1 <0>         0.1238
     37 H6         -0.5154   -0.4620   -0.2052 H         1 <0>         0.1272
     38 H7          4.3567   -0.3544    2.0580 H         1 <0>         0.0998
     39 H8          3.5725   -1.9223    1.7496 H         1 <0>         0.0864
     40 H9          6.2043   -2.0279    0.7305 H         1 <0>         0.3971
     41 H10         7.8699   -3.0263    2.0320 H         1 <0>         0.4056
     42 H11         9.7607   -3.0657    3.7425 H         1 <0>         0.1246
     43 H12        10.4629   -4.0698    5.8770 H         1 <0>         0.1285
     44 H13         8.7960   -5.1165    7.3544 H         1 <0>         0.1258
     45 H14         6.4234   -5.1634    6.7020 H         1 <0>         0.1267
     46 H15         5.7096   -4.1527    4.5745 H         1 <0>         0.1317
     47 H16         4.5435    0.2398   -2.0165 H         1 <0>         0.1481
     48 H17         5.0790    0.5484   -4.3973 H         1 <0>         0.1540
     49 H18         5.1242   -1.4015   -5.9063 H         1 <0>         0.1487
     50 H19         3.8094   -4.6038   -1.6312 H         1 <0>         0.1508
     51 H20         4.2391   -7.2102   -5.3693 H         1 <0>         0.4447
     52 H21         3.5021   -6.6827   -1.4811 H         1 <0>         0.4447
     53 H22         3.4356   -8.2237   -2.1472 H         1 <0>         0.4368
     54 H23         3.8624   -8.5292   -4.3992 H         1 <0>         0.4369
@<TRIPOS>BOND
     1    1    6 ar
     2    1    2 ar
     3    1   33 1
     4    2    3 ar
     5    2   34 1
     6    3    4 ar
     7    3   35 1
     8    4    5 ar
     9    4    7 1
    10    5    6 ar
    11    5   36 1
    12    6   37 1
    13    7    8 1
    14    7    9 1
    15    7   20 1
    16    9   10 1
    17    9   38 1
    18    9   39 1
    19   10   11 am
    20   10   40 1
    21   11   12 2
    22   11   13 am
    23   13   14 1
    24   13   41 1
    25   14   19 ar
    26   14   15 ar
    27   15   16 ar
    28   15   42 1
    29   16   17 ar
    30   16   43 1
    31   17   18 ar
    32   17   44 1
    33   18   19 ar
    34   18   45 1
    35   19   46 1
    36   20   21 1
    37   21   26 ar
    38   21   22 ar
    39   22   23 ar
    40   22   47 1
    41   23   24 ar
    42   23   48 1
    43   24   25 ar
    44   24   49 1
    45   25   29 1
    46   25   26 ar
    47   26   27 1
    48   27   28 2
    49   27   50 1
    50   28   29 1
    51   28   30 1
    52   30   31 2
    53   30   32 1
    54   31   51 1
    55   31   54 1
    56   32   52 1
    57   32   53 1
@<TRIPOS>MOLECULE
ZINC45357359
   54    57     0     0     0
SMALL
USER_CHARGES

@<TRIPOS>ATOM
      1 C1          1.1771    2.4562    0.2318 C.ar      1 <0>        -0.1017
      2 C2          2.5131    2.7287    0.0046 C.ar      1 <0>        -0.1139
      3 C3          3.4191    1.6918   -0.1167 C.ar      1 <0>        -0.1023
      4 C4          2.9892    0.3823   -0.0103 C.ar      1 <0>        -0.1335
      5 C5          1.6533    0.1098    0.2178 C.ar      1 <0>        -0.0916
      6 C6          0.7470    1.1467    0.3377 C.ar      1 <0>        -0.1179
      7 C7          3.9767   -0.7482   -0.1436 C.3       1 <0>         0.1206
      8 H1          4.9726   -0.3939    0.1223 H         1 <0>         0.0981
      9 C8          3.9835   -1.2519   -1.5883 C.3       1 <0>         0.1497
     10 N1          4.9435   -2.3509   -1.7178 N.am      1 <0>        -0.7433
     11 C9          5.1202   -2.9544   -2.9098 C.2       1 <0>         0.7042
     12 O1          4.4827   -2.5868   -3.8778 O.2       1 <0>        -0.5624
     13 N2          6.0034   -3.9655   -3.0290 N.am      1 <0>        -0.6846
     14 C10         6.2755   -4.5121   -4.2882 C.ar      1 <0>         0.1577
     15 C11         6.5660   -5.8644   -4.4117 C.ar      1 <0>        -0.1485
     16 C12         6.8337   -6.4009   -5.6558 C.ar      1 <0>        -0.0996
     17 C13         6.8127   -5.5930   -6.7779 C.ar      1 <0>        -0.1323
     18 C14         6.5243   -4.2459   -6.6582 C.ar      1 <0>        -0.0980
     19 C15         6.2501   -3.7044   -5.4175 C.ar      1 <0>        -0.1195
     20 O2          3.6012   -1.8143    0.7308 O.3       1 <0>        -0.2946
     21 C16         4.0150   -1.7280    2.0212 C.ar      1 <0>         0.2168
     22 C17         4.6604   -0.5953    2.4557 C.ar      1 <0>        -0.2213
     23 C18         5.0980   -0.4703    3.7669 C.ar      1 <0>         0.0055
     24 C19         4.8829   -1.5022    4.6588 C.ar      1 <0>        -0.1267
     25 C20         4.2368   -2.6455    4.2402 C.ar      1 <0>        -0.0394
     26 C21         3.7717   -2.8088    2.9142 C.ar      1 <0>        -0.1606
     27 C22         3.1282   -4.0297    2.6469 C.2       1 <0>         0.0345
     28 C23         2.9860   -4.9524    3.6344 C.2       1 <0>        -0.2893
     29 S1          3.7688   -4.1645    5.0311 S.3       1 <0>         0.1384
     30 C24         2.3512   -6.2773    3.5664 C.cat     1 <0>         0.6502
     31 N3          2.3062   -7.0524    4.6524 N.pl3     1 <0>        -0.7614
     32 N4          1.8201   -6.7049    2.4186 N.pl3     1 <0>        -0.7602
     33 H2          0.4700    3.2665    0.3310 H         1 <0>         0.1286
     34 H3          2.8490    3.7518   -0.0785 H         1 <0>         0.1305
     35 H4          4.4628    1.9047   -0.2949 H         1 <0>         0.1270
     36 H5          1.3173   -0.9133    0.3005 H         1 <0>         0.1234
     37 H6         -0.2967    0.9338    0.5155 H         1 <0>         0.1269
     38 H7          2.9876   -1.6062   -1.8542 H         1 <0>         0.0860
     39 H8          4.2699   -0.4387   -2.2552 H         1 <0>         0.0996
     40 H9          5.4520   -2.6442   -0.9456 H         1 <0>         0.3973
     41 H10         6.4503   -4.3143   -2.2419 H         1 <0>         0.4051
     42 H11         6.5829   -6.4959   -3.5357 H         1 <0>         0.1220
     43 H12         7.0600   -7.4525   -5.7525 H         1 <0>         0.1274
     44 H13         7.0224   -6.0149   -7.7497 H         1 <0>         0.1259
     45 H14         6.5091   -3.6174   -7.5364 H         1 <0>         0.1278
     46 H15         6.0202   -2.6532   -5.3253 H         1 <0>         0.1347
     47 H16         4.8311    0.2148    1.7621 H         1 <0>         0.1484
     48 H17         5.6039    0.4284    4.0875 H         1 <0>         0.1540
     49 H18         5.2202   -1.4140    5.6809 H         1 <0>         0.1487
     50 H19         2.7468   -4.2341    1.6574 H         1 <0>         0.1507
     51 H20         2.6921   -6.7417    5.4863 H         1 <0>         0.4447
     52 H21         1.8529   -6.1417    1.6295 H         1 <0>         0.4447
     53 H22         1.4014   -7.5787    2.3738 H         1 <0>         0.4368
     54 H23         1.8875   -7.9262    4.6076 H         1 <0>         0.4369
@<TRIPOS>BOND
     1    1    6 ar
     2    1    2 ar
     3    1   33 1
     4    2    3 ar
     5    2   34 1
     6    3    4 ar
     7    3   35 1
     8    4    5 ar
     9    4    7 1
    10    5    6 ar
    11    5   36 1
    12    6   37 1
    13    7    8 1
    14    7    9 1
    15    7   20 1
    16    9   10 1
    17    9   38 1
    18    9   39 1
    19   10   11 am
    20   10   40 1
    21   11   12 2
    22   11   13 am
    23   13   14 1
    24   13   41 1
    25   14   19 ar
    26   14   15 ar
    27   15   16 ar
    28   15   42 1
    29   16   17 ar
    30   16   43 1
    31   17   18 ar
    32   17   44 1
    33   18   19 ar
    34   18   45 1
    35   19   46 1
    36   20   21 1
    37   21   26 ar
    38   21   22 ar
    39   22   23 ar
    40   22   47 1
    41   23   24 ar
    42   23   48 1
    43   24   25 ar
    44   24   49 1
    45   25   29 1
    46   25   26 ar
    47   26   27 1
    48   27   28 2
    49   27   50 1
    50   28   29 1
    51   28   30 1
    52   30   31 2
    53   30   32 1
    54   31   51 1
    55   31   54 1
    56   32   52 1
    57   32   53 1
@<TRIPOS>MOLECULE
ZINC01902827
   63    66     0     0     0
SMALL
USER_CHARGES
2-[[2-(5-amidino-2-hydroxy-phenoxy)-3,5-difluoro-6-[3-(1-methyl-4,5-dihydroimidazol-2-yl)phenoxy]-4-pyridyl]-methyl-amino]acetic acid
@<TRIPOS>ATOM
      1 H1          3.3872   -5.7811   -4.7880 H         1 <0>         0.4423
      2 C1          3.4525   -4.4102   -6.2927 C.cat     1 <0>         0.6056
      3 C2          2.9031   -3.1043   -6.7183 C.ar      1 <0>        -0.1474
      4 C3          3.2615   -2.5647   -7.9543 C.ar      1 <0>        -0.0559
      5 C4          2.7487   -1.3476   -8.3504 C.ar      1 <0>        -0.1142
      6 C5          1.8758   -0.6565   -7.5222 C.ar      1 <0>         0.1801
      7 C6          1.5141   -1.1901   -6.2867 C.ar      1 <0>         0.0875
      8 C7          2.0254   -2.4100   -5.8847 C.ar      1 <0>        -0.1239
      9 O1          0.6581   -0.5112   -5.4769 O.3       1 <0>        -0.1952
     10 C8          0.2148   -1.1326   -4.3542 C.ar      1 <0>         0.2757
     11 C9         -1.1098   -0.9902   -3.9702 C.ar      1 <0>         0.1247
     12 C10        -1.5546   -1.6330   -2.8158 C.ar      1 <0>         0.1429
     13 C11        -0.6424   -2.3981   -2.0897 C.ar      1 <0>         0.0646
     14 C12         0.6660   -2.4929   -2.5371 C.ar      1 <0>         0.2635
     15 N1          1.0514   -1.8718   -3.6419 N.ar      1 <0>        -0.5224
     16 O2          1.5620   -3.2353   -1.8375 O.3       1 <0>        -0.2158
     17 C13         2.8217   -2.7462   -1.6938 C.ar      1 <0>         0.1110
     18 C14         3.2030   -1.5987   -2.3765 C.ar      1 <0>        -0.1369
     19 C15         4.4812   -1.0940   -2.2291 C.ar      1 <0>        -0.0791
     20 C16         5.3904   -1.7342   -1.4110 C.ar      1 <0>        -0.0878
     21 C17         5.0179   -2.8904   -0.7259 C.ar      1 <0>        -0.1022
     22 C18         3.7268   -3.3955   -0.8706 C.ar      1 <0>        -0.0900
     23 C19         5.9910   -3.5791    0.1528 C.cat     1 <0>         0.5546
     24 C20         7.1107   -5.2445    1.2053 C.3       1 <0>         0.0571
     25 C21         7.7051   -3.8974    1.6619 C.3       1 <0>         0.0663
     26 N2          6.9066   -2.9069    0.9204 N.pl3     1 <0>        -0.5520
     27 C22         7.0641   -1.4522    0.9905 C.3       1 <0>         0.0748
     28 F1         -1.0289   -3.0384   -0.9646 F         1 <0>        -0.0905
     29 N3         -2.8803   -1.5133   -2.3969 N.pl3     1 <0>        -0.4748
     30 C23        -2.9626   -0.8311   -1.0984 C.3       1 <0>         0.0201
     31 C24        -3.5364   -2.8266   -2.3440 C.3       1 <0>         0.0087
     32 C25        -5.0164   -2.6405   -2.1298 C.2       1 <0>         0.4676
     33 O3         -5.4774   -1.5279   -2.0314 O.co2     1 <0>        -0.6087
     34 F2         -1.9582   -0.2381   -4.7048 F         1 <0>        -0.0730
     35 O4          1.3685    0.5397   -7.9190 O.3       1 <0>        -0.4711
     36 N4          4.4012   -5.0438   -7.0658 N.pl3     1 <0>        -0.7785
     37 H2          3.9410   -3.1004   -8.6007 H         1 <0>         0.1471
     38 H3          3.0271   -0.9313   -9.3073 H         1 <0>         0.1677
     39 H4          1.7463   -2.8247   -4.9272 H         1 <0>         0.1741
     40 H5          2.4971   -1.0966   -3.0215 H         1 <0>         0.1804
     41 H6          4.7712   -0.1989   -2.7594 H         1 <0>         0.1515
     42 H7          6.3899   -1.3399   -1.3019 H         1 <0>         0.1444
     43 H8          3.4332   -4.2908   -0.3427 H         1 <0>         0.1496
     44 H9          7.8690   -5.8466    0.7046 H         1 <0>         0.1283
     45 H10         6.6942   -5.7859    2.0549 H         1 <0>         0.1292
     46 H11         8.7571   -3.8278    1.3855 H         1 <0>         0.1231
     47 H12         7.5792   -3.7660    2.7366 H         1 <0>         0.1243
     48 H13         6.0990   -0.9737    0.8243 H         1 <0>         0.1013
     49 H14         7.4424   -1.1747    1.9745 H         1 <0>         0.1109
     50 H15         7.7683   -1.1256    0.2253 H         1 <0>         0.0937
     51 H16        -2.5317    0.1664   -1.1842 H         1 <0>         0.0677
     52 H17        -4.0066   -0.7512   -0.7954 H         1 <0>         0.1228
     53 H18        -2.4104   -1.4025   -0.3522 H         1 <0>         0.0322
     54 H19        -3.3687   -3.3545   -3.2827 H         1 <0>         0.0818
     55 H20        -3.1204   -3.4077   -1.5210 H         1 <0>         0.0595
     56 H21         1.9035    1.3007   -7.6551 H         1 <0>         0.4124
     57 H22         4.7632   -4.6007   -7.8491 H         1 <0>         0.4443
     58 H23         4.7068   -5.9328   -6.8269 H         1 <0>         0.4315
     59 N5          2.9872   -4.9205   -5.1619 N.pl3     1 <0>        -0.7624
     60 H24         2.2240   -4.4495   -4.6619 H         1 <0>         0.4586
     61 N6          6.0436   -4.8676    0.2641 N.pl3     1 <0>        -0.6212
     62 H25         5.4324   -5.5281   -0.2303 H         1 <0>         0.4721
     63 O5         -5.8226   -3.7106   -2.0486 O.co2     1 <0>        -0.7527
@<TRIPOS>BOND
     1    1   59 1
     2    2    3 1
     3    2   36 1
     4    2   59 2
     5    3    8 ar
     6    3    4 ar
     7    4    5 ar
     8    4   37 1
     9    5    6 ar
    10    5   38 1
    11    6    7 ar
    12    6   35 1
    13    7    8 ar
    14    7    9 1
    15    8   39 1
    16    9   10 1
    17   10   15 ar
    18   10   11 ar
    19   11   12 ar
    20   11   34 1
    21   12   13 ar
    22   12   29 1
    23   13   14 ar
    24   13   28 1
    25   14   15 ar
    26   14   16 1
    27   16   17 1
    28   17   22 ar
    29   17   18 ar
    30   18   19 ar
    31   18   40 1
    32   19   20 ar
    33   19   41 1
    34   20   21 ar
    35   20   42 1
    36   21   22 ar
    37   21   23 1
    38   22   43 1
    39   23   26 1
    40   23   61 2
    41   24   25 1
    42   24   44 1
    43   24   45 1
    44   24   61 1
    45   25   26 1
    46   25   46 1
    47   25   47 1
    48   26   27 1
    49   27   48 1
    50   27   49 1
    51   27   50 1
    52   29   30 1
    53   29   31 1
    54   30   51 1
    55   30   52 1
    56   30   53 1
    57   31   32 1
    58   31   54 1
    59   31   55 1
    60   32   33 2
    61   32   63 1
    62   35   56 1
    63   36   57 1
    64   36   58 1
    65   59   60 1
    66   61   62 1
@<TRIPOS>MOLECULE
ZINC03831848
   61    65     0     0     0
SMALL
USER_CHARGES
1-[(3-amidinophenyl)methyl]-4-methyl-N-(1-naphthylmethyl)indole-2-carboxamide
@<TRIPOS>ATOM
      1 C1          4.8163    8.0052   -4.9831 C.3       1 <0>        -0.1226
      2 C2          3.9321    7.9653   -3.7634 C.ar      1 <0>        -0.0156
      3 C3          2.9676    8.9145   -3.5862 C.ar      1 <0>        -0.1526
      4 C4          2.1473    8.8889   -2.4657 C.ar      1 <0>        -0.0746
      5 C5          2.2910    7.9051   -1.5128 C.ar      1 <0>        -0.1509
      6 C6          3.2675    6.9259   -1.6710 C.ar      1 <0>         0.1183
      7 C7          4.0986    6.9544   -2.8082 C.ar      1 <0>        -0.1141
      8 C8          4.9820    5.8531   -2.7016 C.2       1 <0>        -0.1243
      9 C9          4.6920    5.2004   -1.5459 C.2       1 <0>         0.0172
     10 N1          3.6452    5.8426   -0.9132 N.pl3     1 <0>        -0.4494
     11 C10         3.0411    5.4394    0.3590 C.3       1 <0>         0.1379
     12 C11         1.8282    4.5862    0.0912 C.ar      1 <0>        -0.0994
     13 C12         1.9669    3.2183   -0.0638 C.ar      1 <0>        -0.0273
     14 C13         0.8584    2.4284   -0.3095 C.ar      1 <0>        -0.1140
     15 C14        -0.3930    3.0021   -0.4075 C.ar      1 <0>        -0.0494
     16 C15        -0.5401    4.3793   -0.2466 C.ar      1 <0>        -0.1605
     17 C16         0.5815    5.1704    0.0014 C.ar      1 <0>        -0.0467
     18 C17        -1.8809    5.0003   -0.3441 C.cat     1 <0>         0.6020
     19 H1         -2.8510    6.7873   -0.2449 H         1 <0>         0.4448
     20 N2         -2.9871    4.2161   -0.5893 N.pl3     1 <0>        -0.7800
     21 C18         5.3802    3.9994   -1.0493 C.2       1 <0>         0.5857
     22 O1          5.0339    3.4898   -0.0003 O.2       1 <0>        -0.5442
     23 N3          6.3947    3.4633   -1.7563 N.am      1 <0>        -0.7068
     24 C19         7.1533    2.3358   -1.2090 C.3       1 <0>         0.1659
     25 C20         8.2993    2.0068   -2.1307 C.ar      1 <0>        -0.1106
     26 C21         8.2200    0.9343   -2.9652 C.ar      1 <0>        -0.0849
     27 C22         9.2693    0.6147   -3.8243 C.ar      1 <0>        -0.1231
     28 C23        10.4042    1.3658   -3.8543 C.ar      1 <0>        -0.0876
     29 C24        10.5225    2.4809   -3.0078 C.ar      1 <0>        -0.0553
     30 C25         9.4529    2.8090   -2.1373 C.ar      1 <0>        -0.0353
     31 C26         9.5729    3.9219   -1.2875 C.ar      1 <0>        -0.1150
     32 C27        10.7079    4.6723   -1.3170 C.ar      1 <0>        -0.1054
     33 C28        11.7578    4.3522   -2.1760 C.ar      1 <0>        -0.1154
     34 C29        11.6787    3.2799   -3.0102 C.ar      1 <0>        -0.1006
     35 H2          4.3569    7.4254   -5.7838 H         1 <0>         0.0763
     36 H3          4.9409    9.0381   -5.3080 H         1 <0>         0.0730
     37 H4          5.7903    7.5806   -4.7399 H         1 <0>         0.0701
     38 H5          2.8413    9.6929   -4.3241 H         1 <0>         0.1277
     39 H6          1.3889    9.6476   -2.3408 H         1 <0>         0.1285
     40 H7          1.6478    7.8933   -0.6453 H         1 <0>         0.1122
     41 H8          5.7519    5.5832   -3.4094 H         1 <0>         0.1521
     42 H9          2.7446    6.3271    0.9179 H         1 <0>         0.0998
     43 H10         3.7654    4.8691    0.9406 H         1 <0>         0.1336
     44 H11         2.9448    2.7655    0.0076 H         1 <0>         0.1580
     45 H12         0.9729    1.3612   -0.4293 H         1 <0>         0.1505
     46 H13        -1.2573    2.3849   -0.6037 H         1 <0>         0.1393
     47 H14         0.4745    6.2383    0.1225 H         1 <0>         0.1326
     48 H15        -2.8874    3.2575   -0.6979 H         1 <0>         0.4429
     49 H16        -3.8653    4.6228   -0.6531 H         1 <0>         0.4316
     50 H17         6.6225    3.8239   -2.6274 H         1 <0>         0.4076
     51 H18         7.5424    2.6025   -0.2263 H         1 <0>         0.0859
     52 H19         6.4999    1.4682   -1.1178 H         1 <0>         0.0826
     53 H20         7.3306    0.3218   -2.9611 H         1 <0>         0.1259
     54 H21         9.1809   -0.2417   -4.4764 H         1 <0>         0.1283
     55 H22        11.2093    1.1063   -4.5258 H         1 <0>         0.1312
     56 H23         8.7672    4.1825   -0.6172 H         1 <0>         0.1243
     57 H24        10.7962    5.5290   -0.6653 H         1 <0>         0.1242
     58 H25        12.6474    4.9646   -2.1798 H         1 <0>         0.1263
     59 H26        12.4999    3.0444   -3.6709 H         1 <0>         0.1303
     60 N4         -1.9497    6.3130   -0.1866 N.pl3     1 <0>        -0.7598
     61 H27        -1.0958    6.8538   -0.0056 H         1 <0>         0.4586
@<TRIPOS>BOND
     1    1    2 1
     2    1   35 1
     3    1   36 1
     4    1   37 1
     5    2    7 ar
     6    2    3 ar
     7    3    4 ar
     8    3   38 1
     9    4    5 ar
    10    4   39 1
    11    5    6 ar
    12    5   40 1
    13    6   10 1
    14    6    7 ar
    15    7    8 1
    16    8    9 2
    17    8   41 1
    18    9   10 1
    19    9   21 1
    20   10   11 1
    21   11   12 1
    22   11   42 1
    23   11   43 1
    24   12   17 ar
    25   12   13 ar
    26   13   14 ar
    27   13   44 1
    28   14   15 ar
    29   14   45 1
    30   15   16 ar
    31   15   46 1
    32   16   17 ar
    33   16   18 1
    34   17   47 1
    35   18   20 1
    36   18   60 2
    37   19   60 1
    38   20   48 1
    39   20   49 1
    40   21   22 2
    41   21   23 am
    42   23   24 1
    43   23   50 1
    44   24   25 1
    45   24   51 1
    46   24   52 1
    47   25   30 ar
    48   25   26 ar
    49   26   27 ar
    50   26   53 1
    51   27   28 ar
    52   27   54 1
    53   28   29 ar
    54   28   55 1
    55   29   34 ar
    56   29   30 ar
    57   30   31 ar
    58   31   32 ar
    59   31   56 1
    60   32   33 ar
    61   32   57 1
    62   33   34 ar
    63   33   58 1
    64   34   59 1
    65   60   61 1
@<TRIPOS>MOLECULE
ZINC13800223
   53    56     0     0     0
SMALL
USER_CHARGES

@<TRIPOS>ATOM
      1 C1         -0.0164    1.3567    0.0095 C.ar      1 <0>        -0.0981
      2 C2          1.1686    2.0905    0.0021 C.ar      1 <0>        -0.1223
      3 C3          2.3785    1.4675   -0.0131 C.ar      1 <0>        -0.0994
      4 C4          2.4375    0.0634   -0.0211 C.ar      1 <0>        -0.0741
      5 C5          3.6681   -0.6153   -0.0364 C.ar      1 <0>         0.0203
      6 C6          3.6865   -1.9761   -0.0434 C.ar      1 <0>        -0.6500
      7 C7          2.5015   -2.7098   -0.0357 C.ar      1 <0>        -0.0328
      8 C8          1.2917   -2.0868   -0.0209 C.ar      1 <0>        -0.1097
      9 C9          1.2327   -0.6827   -0.0133 C.ar      1 <0>        -0.0054
     10 C10         0.0021   -0.0041    0.0020 C.ar      1 <0>        -0.1150
     11 S1          5.2315   -2.8230   -0.0631 S.o2      1 <0>         2.6871
     12 O1          4.9835   -4.1075   -0.6179 O.2       1 <0>        -0.9454
     13 O2          6.1807   -1.9234   -0.6189 O.2       1 <0>        -0.9510
     14 N1          5.6766   -3.0663    1.5133 N.pl3     1 <0>        -1.0973
     15 C11         4.8732   -3.9368    2.3753 C.3       1 <0>         0.1171
     16 H1          4.3135   -4.6545    1.7756 H         1 <0>         0.1348
     17 C12         5.7752   -4.6703    3.3949 C.3       1 <0>        -0.1341
     18 C13         4.8743   -4.6980    4.6495 C.3       1 <0>         0.0980
     19 N2          3.9612   -3.5586    4.5012 N.am      1 <0>        -0.6148
     20 C14         3.9342   -3.1146    3.2303 C.2       1 <0>         0.5023
     21 O3          3.2589   -2.1905    2.8291 O.2       1 <0>        -0.5021
     22 C15         3.1772   -2.9798    5.5951 C.3       1 <0>         0.1596
     23 C16         3.9746   -1.8888    6.2621 C.ar      1 <0>        -0.1018
     24 C17         4.8093   -2.1938    7.3227 C.ar      1 <0>        -0.0413
     25 C18         5.5446   -1.1980    7.9403 C.ar      1 <0>        -0.1120
     26 C19         5.4493    0.1069    7.5018 C.ar      1 <0>        -0.0570
     27 C20         4.6096    0.4208    6.4330 C.ar      1 <0>        -0.1595
     28 C21         3.8752   -0.5892    5.8104 C.ar      1 <0>        -0.0419
     29 C22         4.5023    1.8181    5.9580 C.cat     1 <0>         0.6019
     30 N3          4.6729    2.8261    6.8110 N.pl3     1 <0>        -0.7589
     31 N4          4.2352    2.0674    4.6777 N.pl3     1 <0>        -0.7570
     32 H2         -0.9633    1.8757    0.0259 H         1 <0>         0.1280
     33 H3          1.1260    3.1696    0.0083 H         1 <0>         0.1263
     34 H4          3.2884    2.0491   -0.0194 H         1 <0>         0.1285
     35 H5          4.5943   -0.0599   -0.0428 H         1 <0>         0.1387
     36 H6          2.5441   -3.7890   -0.0419 H         1 <0>         0.1331
     37 H7          0.3816   -2.6684   -0.0154 H         1 <0>         0.1333
     38 H8         -0.9241   -0.5595    0.0082 H         1 <0>         0.1322
     39 H9          6.4692   -2.6324    1.8660 H         1 <0>         0.4216
     40 H10         6.0043   -5.6809    3.0568 H         1 <0>         0.1096
     41 H11         6.6891   -4.1070    3.5833 H         1 <0>         0.0942
     42 H12         4.3109   -5.6303    4.6888 H         1 <0>         0.0868
     43 H13         5.4779   -4.5830    5.5499 H         1 <0>         0.0859
     44 H14         2.2520   -2.5625    5.1977 H         1 <0>         0.1008
     45 H15         2.9423   -3.7556    6.3239 H         1 <0>         0.1030
     46 H16         4.8868   -3.2134    7.6701 H         1 <0>         0.1451
     47 H17         6.1944   -1.4424    8.7677 H         1 <0>         0.1498
     48 H18         6.0233    0.8835    7.9852 H         1 <0>         0.1404
     49 H19         3.2270   -0.3532    4.9794 H         1 <0>         0.1420
     50 H20         4.8675    2.6445    7.7437 H         1 <0>         0.4461
     51 H21         4.1109    1.3330    4.0563 H         1 <0>         0.4475
     52 H22         4.1648    2.9833    4.3663 H         1 <0>         0.4333
     53 H23         4.6025    3.7421    6.4996 H         1 <0>         0.4335
@<TRIPOS>BOND
     1    1   10 ar
     2    1    2 ar
     3    1   32 1
     4    2    3 ar
     5    2   33 1
     6    3    4 ar
     7    3   34 1
     8    4    9 ar
     9    4    5 ar
    10    5    6 ar
    11    5   35 1
    12    6    7 ar
    13    6   11 1
    14    7    8 ar
    15    7   36 1
    16    8    9 ar
    17    8   37 1
    18    9   10 ar
    19   10   38 1
    20   11   12 2
    21   11   13 2
    22   11   14 1
    23   14   15 1
    24   14   39 1
    25   15   16 1
    26   15   20 1
    27   15   17 1
    28   17   18 1
    29   17   40 1
    30   17   41 1
    31   18   19 1
    32   18   42 1
    33   18   43 1
    34   19   20 am
    35   19   22 1
    36   20   21 2
    37   22   23 1
    38   22   44 1
    39   22   45 1
    40   23   28 ar
    41   23   24 ar
    42   24   25 ar
    43   24   46 1
    44   25   26 ar
    45   25   47 1
    46   26   27 ar
    47   26   48 1
    48   27   28 ar
    49   27   29 1
    50   28   49 1
    51   29   30 2
    52   29   31 1
    53   30   50 1
    54   30   53 1
    55   31   51 1
    56   31   52 1
