@<TRIPOS>MOLECULE
ZINC13507825
   64    65     0     0     0
SMALL
USER_CHARGES

@<TRIPOS>ATOM
      1 C1         -0.0167    1.3781    0.0096 C.ar      1 <0>        -0.1127
      2 C2          1.1709    2.0855    0.0021 C.ar      1 <0>        -0.1238
      3 C3          2.3773    1.4107   -0.0130 C.ar      1 <0>        -0.1240
      4 C4          2.3960    0.0285   -0.0201 C.ar      1 <0>        -0.0727
      5 C5          1.2084   -0.6789   -0.0117 C.ar      1 <0>        -0.1003
      6 C6          0.0021   -0.0041    0.0020 C.ar      1 <0>        -0.1055
      7 C7          3.7112   -0.7071   -0.0376 C.3       1 <0>        -0.0919
      8 C8          4.1714   -0.9633    1.3989 C.3       1 <0>         0.1393
      9 H1          3.3868   -1.4885    1.9436 H         1 <0>         0.1251
     10 C9          5.4216   -1.8045    1.3834 C.2       1 <0>         0.5181
     11 O1          6.4455   -1.3782    1.8741 O.2       1 <0>        -0.5209
     12 N1          5.4019   -3.0307    0.8243 N.am      1 <0>        -0.7086
     13 C10         6.6173   -3.8485    0.8092 C.3       1 <0>         0.1068
     14 H2          7.1849   -3.6726    1.7230 H         1 <0>         0.1284
     15 C11         6.2357   -5.3276    0.7225 C.3       1 <0>        -0.1248
     16 C12         5.4883   -5.7368    1.9932 C.3       1 <0>        -0.1323
     17 C13         5.1067   -7.2159    1.9065 C.3       1 <0>         0.0916
     18 N2          4.3910   -7.6077    3.1233 N.pl3     1 <0>        -0.6982
     19 C14         3.9481   -8.8933    3.2723 C.cat     1 <0>         0.7431
     20 N3          3.2974   -9.2495    4.3785 N.pl3     1 <0>        -0.7927
     21 N4          4.1676   -9.7889    2.3111 N.pl3     1 <0>        -0.7912
     22 C15         7.4587   -3.4760   -0.3843 C.2       1 <0>         0.3308
     23 O2          6.9786   -2.8273   -1.2826 O.2       1 <0>        -0.4026
     24 C16         8.8991   -3.9129   -0.4567 C.3       1 <0>        -0.1026
     25 Cl1         9.6313   -3.3174   -1.9929 Cl        1 <0>        -0.1247
     26 N5          4.4511    0.3151    2.0574 N.am      1 <0>        -0.6885
     27 C17         3.4510    1.0070    2.6383 C.2       1 <0>         0.5138
     28 O3          2.3193    0.5713    2.6159 O.2       1 <0>        -0.5051
     29 C18         3.7387    2.3221    3.3156 C.3       1 <0>         0.0042
     30 H3          4.4632    2.1842    4.1182 H         1 <0>         0.1704
     31 C19         4.2632    3.3550    2.2872 C.3       1 <0>        -0.1399
     32 C20         3.8956    4.6963    2.9749 C.3       1 <0>        -0.1392
     33 C21         2.5532    4.3764    3.6655 C.3       1 <0>        -0.0093
     34 N6          2.4908    2.9126    3.8446 N.4       1 <0>        -0.5018
     35 H4         -0.9591    1.9053    0.0259 H         1 <0>         0.1234
     36 H5          1.1563    3.1654    0.0076 H         1 <0>         0.1184
     37 H6          3.3051    1.9634   -0.0196 H         1 <0>         0.1121
     38 H7          1.2231   -1.7588   -0.0176 H         1 <0>         0.1181
     39 H8         -0.9258   -0.5567    0.0082 H         1 <0>         0.1239
     40 H9          3.5884   -1.6586   -0.5549 H         1 <0>         0.0944
     41 H10         4.4573   -0.1052   -0.5563 H         1 <0>         0.0900
     42 H11         4.5830   -3.3717    0.4319 H         1 <0>         0.4099
     43 H12         5.5938   -5.4870   -0.1439 H         1 <0>         0.0908
     44 H13         7.1383   -5.9304    0.6219 H         1 <0>         0.1024
     45 H14         6.1302   -5.5773    2.8596 H         1 <0>         0.0897
     46 H15         4.5857   -5.1340    2.0939 H         1 <0>         0.0841
     47 H16         4.4648   -7.3754    1.0402 H         1 <0>         0.0951
     48 H17         6.0093   -7.8187    1.8059 H         1 <0>         0.0967
     49 H18         4.2312   -6.9555    3.8233 H         1 <0>         0.4350
     50 H19         3.1376   -8.5973    5.0785 H         1 <0>         0.4410
     51 H20         4.6415   -9.5295    1.5055 H         1 <0>         0.4399
     52 H21         3.8535  -10.7006    2.4168 H         1 <0>         0.4430
     53 H22         9.4469   -3.5006    0.3907 H         1 <0>         0.1305
     54 H23         8.9505   -5.0013   -0.4276 H         1 <0>         0.1283
     55 H24         5.3562    0.6636    2.0753 H         1 <0>         0.4197
     56 H25         5.3418    3.2649    2.1587 H         1 <0>         0.1277
     57 H26         3.7477    3.2517    1.3324 H         1 <0>         0.1064
     58 H27         4.6513    4.9720    3.7104 H         1 <0>         0.1070
     59 H28         3.7697    5.4868    2.2351 H         1 <0>         0.1205
     60 H29         2.5091    4.8694    4.6366 H         1 <0>         0.1412
     61 H30         1.7255    4.7102    3.0398 H         1 <0>         0.1373
     62 H31         1.6994    2.5425    3.3397 H         1 <0>         0.4363
     63 H32         2.9833  -10.1612    4.4842 H         1 <0>         0.4433
     64 H33         2.3998    2.6921    4.8250 H         1 <0>         0.4357
@<TRIPOS>BOND
     1    1    6 ar
     2    1    2 ar
     3    1   35 1
     4    2    3 ar
     5    2   36 1
     6    3    4 ar
     7    3   37 1
     8    4    5 ar
     9    4    7 1
    10    5    6 ar
    11    5   38 1
    12    6   39 1
    13    7    8 1
    14    7   40 1
    15    7   41 1
    16    8    9 1
    17    8   10 1
    18    8   26 1
    19   10   11 2
    20   10   12 am
    21   12   13 1
    22   12   42 1
    23   13   14 1
    24   13   15 1
    25   13   22 1
    26   15   16 1
    27   15   43 1
    28   15   44 1
    29   16   17 1
    30   16   45 1
    31   16   46 1
    32   17   18 1
    33   17   47 1
    34   17   48 1
    35   18   19 1
    36   18   49 1
    37   19   20 2
    38   19   21 1
    39   20   50 1
    40   20   63 1
    41   21   51 1
    42   21   52 1
    43   22   23 2
    44   22   24 1
    45   24   25 1
    46   24   53 1
    47   24   54 1
    48   26   27 am
    49   26   55 1
    50   27   28 2
    51   27   29 1
    52   29   30 1
    53   29   34 1
    54   29   31 1
    55   31   32 1
    56   31   56 1
    57   31   57 1
    58   32   33 1
    59   32   58 1
    60   32   59 1
    61   33   34 1
    62   33   60 1
    63   33   61 1
    64   34   62 1
    65   34   64 1
