@<TRIPOS>MOLECULE
ZINC15684793
   43    46     0     0     0
SMALL
USER_CHARGES

@<TRIPOS>ATOM
      1 C1         -0.0184    1.5028    0.0103 C.3       1 <0>        -0.0784
      2 C2          0.0021   -0.0041    0.0020 C.2       1 <0>         0.1337
      3 N1          0.0082   -0.7656   -1.0506 N.2       1 <0>        -0.2440
      4 N2          0.0284   -2.1152   -0.6991 N.am      1 <0>        -0.4125
      5 C3          0.0359   -2.2431    0.6432 C.2       1 <0>         0.5135
      6 O1          0.0531   -3.2827    1.2808 O.2       1 <0>        -0.4435
      7 C4          0.0251   -0.8772    1.1816 C.2       1 <0>        -0.2662
      8 C5          0.0326   -0.4931    2.5217 C.2       1 <0>         0.1175
      9 C6          0.0554   -1.4664    3.5292 C.2       1 <0>        -0.0817
     10 C7          0.0595   -1.2237    4.8976 C.2       1 <0>        -0.1119
     11 C8          0.0847   -2.4663    5.5262 C.2       1 <0>        -0.2346
     12 C9          0.0951   -3.4231    4.5317 C.2       1 <0>         0.1199
     13 O2          0.0713   -2.8036    3.3394 O.3       1 <0>        -0.0968
     14 C10         0.1214   -4.8832    4.7424 C.ar      1 <0>        -0.0767
     15 C11         0.1324   -5.4041    6.0405 C.ar      1 <0>        -0.0921
     16 C12         0.1571   -6.7698    6.2395 C.ar      1 <0>        -0.1434
     17 C13         0.1715   -7.6316    5.1606 C.ar      1 <0>        -0.0629
     18 C14         0.1613   -7.1257    3.8571 C.ar      1 <0>        -0.1389
     19 C15         0.1296   -5.7474    3.6481 C.ar      1 <0>        -0.0432
     20 C16         0.1777   -8.0483    2.7056 C.2       1 <0>         0.5202
     21 O3          0.2004   -9.2569    2.8906 O.co2     1 <0>        -0.6863
     22 O4          0.1687   -7.6042    1.5662 O.co2     1 <0>        -0.6766
     23 C17         0.0394   -3.1815   -1.6075 C.ar      1 <0>         0.1904
     24 C18         0.0532   -4.4904   -1.1436 C.ar      1 <0>        -0.1357
     25 C19         0.0635   -5.5397   -2.0413 C.ar      1 <0>        -0.0493
     26 C20         0.0600   -5.2880   -3.4019 C.ar      1 <0>        -0.1132
     27 C21         0.0467   -3.9848   -3.8668 C.ar      1 <0>        -0.0727
     28 C22         0.0306   -2.9318   -2.9735 C.ar      1 <0>        -0.1369
     29 Br1         0.0741   -6.7275   -4.6281 Br        1 <0>        -0.0575
     30 H1          1.0042    1.8801    0.0026 H         1 <0>         0.0894
     31 H2         -0.5455    1.8639   -0.8728 H         1 <0>         0.0853
     32 H3         -0.5286    1.8543    0.9071 H         1 <0>         0.0849
     33 H4          0.0209    0.5547    2.7832 H         1 <0>         0.1719
     34 H5          0.0459   -0.2578    5.3805 H         1 <0>         0.1605
     35 H6          0.0945   -2.6470    6.5909 H         1 <0>         0.1572
     36 H7          0.1219   -4.7362    6.8892 H         1 <0>         0.1207
     37 H8          0.1655   -7.1663    7.2440 H         1 <0>         0.1235
     38 H9          0.1912   -8.6990    5.3240 H         1 <0>         0.1318
     39 H10         0.1164   -5.3510    2.6435 H         1 <0>         0.1441
     40 H11         0.0563   -4.6874   -0.0817 H         1 <0>         0.1678
     41 H12         0.0746   -6.5578   -1.6811 H         1 <0>         0.1493
     42 H13         0.0444   -3.7911   -4.9293 H         1 <0>         0.1345
     43 H14         0.0153   -1.9149   -3.3370 H         1 <0>         0.1390
@<TRIPOS>BOND
     1    1    2 1
     2    1   30 1
     3    1   31 1
     4    1   32 1
     5    2    7 1
     6    2    3 2
     7    3    4 1
     8    4    5 am
     9    4   23 1
    10    5    6 2
    11    5    7 1
    12    7    8 2
    13    8    9 1
    14    8   33 1
    15    9   13 1
    16    9   10 2
    17   10   11 1
    18   10   34 1
    19   11   12 2
    20   11   35 1
    21   12   13 1
    22   12   14 1
    23   14   19 ar
    24   14   15 ar
    25   15   16 ar
    26   15   36 1
    27   16   17 ar
    28   16   37 1
    29   17   18 ar
    30   17   38 1
    31   18   19 ar
    32   18   20 1
    33   19   39 1
    34   20   21 2
    35   20   22 1
    36   23   28 ar
    37   23   24 ar
    38   24   25 ar
    39   24   40 1
    40   25   26 ar
    41   25   41 1
    42   26   27 ar
    43   26   29 1
    44   27   28 ar
    45   27   42 1
    46   28   43 1
@<TRIPOS>MOLECULE
ZINC00762977
   59    63     0     0     0
SMALL
USER_CHARGES
(2R)-1-(isopropylamino)-3-(3-phenyl-4,5-dihydropyrazolo[4,5-a]carbazol-10-yl)propan-2-ol
@<TRIPOS>ATOM
      1 C1          4.5933    8.1184    2.4990 C.3       1 <0>        -0.1837
      2 C2          5.7600    7.1289    2.4755 C.3       1 <0>         0.0267
      3 C3          6.6913    7.4103    3.6563 C.3       1 <0>        -0.1862
      4 C4          4.8590    5.2413    1.2557 C.3       1 <0>        -0.0416
      5 C5          4.3251    3.8149    1.4013 C.3       1 <0>         0.0615
      6 H1          5.0668    3.1996    1.9106 H         1 <0>         0.1293
      7 C6          4.0437    3.2317    0.0151 C.3       1 <0>         0.0840
      8 N1          3.6466    1.8278    0.1473 N.pl3     1 <0>        -0.4591
      9 C7          2.3612    1.3814    0.3058 C.ar      1 <0>         0.1042
     10 C8          1.1466    2.0591    0.3670 C.ar      1 <0>        -0.1278
     11 C9          0.0061    1.2913    0.5330 C.ar      1 <0>        -0.0974
     12 C10         0.0537   -0.0892    0.6355 C.ar      1 <0>        -0.1418
     13 C11         1.2356   -0.7850    0.5804 C.ar      1 <0>        -0.0666
     14 C12         2.4064   -0.0350    0.4132 C.ar      1 <0>        -0.0853
     15 C13         3.7969   -0.4047    0.3178 C.2       1 <0>        -0.1660
     16 C14         4.4986    0.7652    0.1322 C.2       1 <0>         0.1489
     17 C15         5.9628    0.6801   -0.0395 C.2       1 <0>        -0.1936
     18 C16         6.9752    1.6336   -0.0059 C.2       1 <0>         0.0624
     19 N2          8.1163    1.0137   -0.1960 N.2       1 <0>        -0.2831
     20 N3          7.8621   -0.3572   -0.3617 N.pl3     1 <0>        -0.2926
     21 C17         6.5389   -0.5525   -0.2814 C.2       1 <0>         0.1274
     22 C18         5.7331   -1.8152   -0.4221 C.3       1 <0>        -0.0620
     23 C19         4.4575   -1.7515    0.4203 C.3       1 <0>        -0.0361
     24 C20         8.8271   -1.3511   -0.5740 C.ar      1 <0>         0.1282
     25 C21         8.5940   -2.3609   -1.4980 C.ar      1 <0>        -0.1198
     26 C22         9.5494   -3.3358   -1.7091 C.ar      1 <0>        -0.0977
     27 C23        10.7322   -3.3132   -0.9931 C.ar      1 <0>        -0.1068
     28 C24        10.9648   -2.3120   -0.0681 C.ar      1 <0>        -0.1011
     29 C25        10.0157   -1.3311    0.1434 C.ar      1 <0>        -0.1008
     30 O1          3.1170    3.8340    2.1643 O.3       1 <0>        -0.5380
     31 H2          3.9298    7.9180    1.6577 H         1 <0>         0.0787
     32 H3          4.0409    8.0067    3.4320 H         1 <0>         0.0833
     33 H4          4.9779    9.1355    2.4240 H         1 <0>         0.1073
     34 H5          6.3124    7.2406    1.5425 H         1 <0>         0.1385
     35 H6          7.5225    6.7054    3.6395 H         1 <0>         0.0826
     36 H7          7.0759    8.4274    3.5814 H         1 <0>         0.1079
     37 H8          6.1389    7.2986    4.5893 H         1 <0>         0.0828
     38 H9          5.7301    5.2382    0.6005 H         1 <0>         0.1437
     39 H10         4.0843    5.8772    0.8272 H         1 <0>         0.1388
     40 H11         4.9432    3.2988   -0.5968 H         1 <0>         0.1063
     41 H12         3.2390    3.7938   -0.4590 H         1 <0>         0.1035
     42 H13         1.0960    3.1350    0.2883 H         1 <0>         0.1185
     43 H14        -0.9532    1.7853    0.5797 H         1 <0>         0.1223
     44 H15        -0.8689   -0.6358    0.7633 H         1 <0>         0.1215
     45 H16         1.2615   -1.8616    0.6618 H         1 <0>         0.1320
     46 H17         6.8454    2.6946    0.1490 H         1 <0>         0.1765
     47 H18         5.4636   -1.9526   -1.4693 H         1 <0>         0.0965
     48 H19         6.3359   -2.6624   -0.0948 H         1 <0>         0.0922
     49 H20         3.7628   -2.5165    0.0733 H         1 <0>         0.0891
     50 H21         4.7089   -1.9467    1.4628 H         1 <0>         0.0762
     51 H22         7.6685   -2.3816   -2.0543 H         1 <0>         0.1318
     52 H23         9.3704   -4.1192   -2.4306 H         1 <0>         0.1388
     53 H24        11.4760   -4.0789   -1.1570 H         1 <0>         0.1355
     54 H25        11.8897   -2.2969    0.4894 H         1 <0>         0.1369
     55 H26        10.1981   -0.5493    0.8657 H         1 <0>         0.1321
     56 H27         2.4110    4.3640    1.7697 H         1 <0>         0.3869
     57 N4          5.2407    5.7526    2.5857 N.4       1 <0>        -0.5143
     58 H28         4.4172    5.7494    3.1989 H         1 <0>         0.4360
     59 H29         5.9675    5.1474    2.9854 H         1 <0>         0.4327
@<TRIPOS>BOND
     1    1    2 1
     2    1   31 1
     3    1   32 1
     4    1   33 1
     5    2    3 1
     6    2   34 1
     7    2   57 1
     8    3   35 1
     9    3   36 1
    10    3   37 1
    11    4    5 1
    12    4   38 1
    13    4   39 1
    14    4   57 1
    15    5    6 1
    16    5    7 1
    17    5   30 1
    18    7    8 1
    19    7   40 1
    20    7   41 1
    21    8   16 1
    22    8    9 1
    23    9   14 ar
    24    9   10 ar
    25   10   11 ar
    26   10   42 1
    27   11   12 ar
    28   11   43 1
    29   12   13 ar
    30   12   44 1
    31   13   14 ar
    32   13   45 1
    33   14   15 1
    34   15   23 1
    35   15   16 2
    36   16   17 1
    37   17   21 2
    38   17   18 1
    39   18   19 2
    40   18   46 1
    41   19   20 1
    42   20   21 1
    43   20   24 1
    44   21   22 1
    45   22   23 1
    46   22   47 1
    47   22   48 1
    48   23   49 1
    49   23   50 1
    50   24   29 ar
    51   24   25 ar
    52   25   26 ar
    53   25   51 1
    54   26   27 ar
    55   26   52 1
    56   27   28 ar
    57   27   53 1
    58   28   29 ar
    59   28   54 1
    60   29   55 1
    61   30   56 1
    62   57   58 1
    63   57   59 1
@<TRIPOS>MOLECULE
ZINC09262865
   58    61     0     0     0
SMALL
USER_CHARGES
4-[[2-ethoxy-4-[[1-[(2-fluorophenyl)methyl]-2,5-dioxo-imidazolidin-4-ylidene]methyl]phenoxy]methyl]benzoic acid
@<TRIPOS>ATOM
      1 C1          2.0049   -6.7759   -7.6310 C.3       1 <0>        -0.1533
      2 C2          2.1297   -5.5454   -6.7303 C.3       1 <0>         0.0545
      3 O1          1.5246   -5.8180   -5.4648 O.3       1 <0>        -0.3005
      4 C3          1.5494   -4.8204   -4.5409 C.ar      1 <0>         0.0906
      5 C4          2.1356   -3.6087   -4.8491 C.ar      1 <0>        -0.1434
      6 C5          2.1647   -2.5861   -3.8930 C.ar      1 <0>        -0.0952
      7 C6          1.5881   -2.7941   -2.6342 C.ar      1 <0>        -0.0437
      8 C7          0.9997   -4.0039   -2.3382 C.ar      1 <0>        -0.1820
      9 C8          0.9769   -5.0193   -3.2851 C.ar      1 <0>         0.1334
     10 O2          0.3955   -6.2103   -2.9869 O.3       1 <0>        -0.2907
     11 C9         -0.1714   -6.3469   -1.6823 C.3       1 <0>         0.1069
     12 C10        -0.7659   -7.7237   -1.5346 C.ar      1 <0>        -0.1095
     13 C11        -2.0891   -7.9427   -1.8751 C.ar      1 <0>        -0.1121
     14 C12        -2.6383   -9.2016   -1.7469 C.ar      1 <0>        -0.0822
     15 C13        -1.8588  -10.2538   -1.2623 C.ar      1 <0>        -0.1004
     16 C14        -0.5258  -10.0246   -0.9156 C.ar      1 <0>        -0.0909
     17 C15         0.0122   -8.7619   -1.0537 C.ar      1 <0>        -0.1107
     18 C16        -2.4416  -11.6034   -1.1175 C.2       1 <0>         0.4875
     19 O3         -1.7609  -12.5169   -0.6960 O.co2     1 <0>        -0.6297
     20 C17         2.7929   -1.2975   -4.2117 C.2       1 <0>        -0.0116
     21 C18         3.5272   -0.6500   -3.2723 C.2       1 <0>         0.0030
     22 C19         3.9332   -1.1543   -1.9515 C.2       1 <0>         0.5469
     23 O4          3.6781   -2.2450   -1.4754 O.2       1 <0>        -0.4297
     24 N1          4.6434   -0.1644   -1.3736 N.am      1 <0>        -0.5734
     25 C20         4.7196    0.8864   -2.2045 C.2       1 <0>         0.7046
     26 O5          5.3033    1.9229   -1.9519 O.2       1 <0>        -0.5298
     27 N2          4.0658    0.6416   -3.3538 N.am      1 <0>        -0.6623
     28 C21         5.2469   -0.2290   -0.0403 C.3       1 <0>         0.1681
     29 C22         4.2635    0.2810    0.9815 C.ar      1 <0>        -0.1597
     30 C23         4.3732    1.5722    1.4624 C.ar      1 <0>        -0.0640
     31 C24         3.4708    2.0404    2.3988 C.ar      1 <0>        -0.1367
     32 C25         2.4577    1.2179    2.8560 C.ar      1 <0>        -0.0790
     33 C26         2.3432   -0.0717    2.3731 C.ar      1 <0>        -0.1603
     34 C27         3.2496   -0.5435    1.4385 C.ar      1 <0>         0.1203
     35 F1          3.1411   -1.8056    0.9688 F         1 <0>        -0.1194
     36 H1          2.5080   -7.6217   -7.1624 H         1 <0>         0.0679
     37 H2          0.9513   -7.0147   -7.7760 H         1 <0>         0.0680
     38 H3          2.4664   -6.5679   -8.5963 H         1 <0>         0.0759
     39 H4          1.6265   -4.6996   -7.1989 H         1 <0>         0.0591
     40 H5          3.1833   -5.3066   -6.5854 H         1 <0>         0.0587
     41 H6          2.5748   -3.4518   -5.8232 H         1 <0>         0.1361
     42 H7          1.6049   -2.0064   -1.8955 H         1 <0>         0.1229
     43 H8          0.5551   -4.1633   -1.3670 H         1 <0>         0.1380
     44 H9          0.6060   -6.2043   -0.9316 H         1 <0>         0.0697
     45 H10        -0.9511   -5.5978   -1.5447 H         1 <0>         0.0689
     46 H11        -2.6920   -7.1270   -2.2459 H         1 <0>         0.1172
     47 H12        -3.6699   -9.3721   -2.0172 H         1 <0>         0.1328
     48 H13         0.0827  -10.8341   -0.5404 H         1 <0>         0.1290
     49 H14         1.0432   -8.5834   -0.7862 H         1 <0>         0.1173
     50 H15         2.6703   -0.8652   -5.1938 H         1 <0>         0.1464
     51 H16         3.9816    1.2499   -4.1046 H         1 <0>         0.4384
     52 H17         6.1459    0.3869   -0.0182 H         1 <0>         0.1106
     53 H18         5.5081   -1.2617    0.1907 H         1 <0>         0.1092
     54 H19         5.1640    2.2155    1.1060 H         1 <0>         0.1368
     55 H20         3.5568    3.0497    2.7735 H         1 <0>         0.1317
     56 H21         1.7530    1.5850    3.5874 H         1 <0>         0.1343
     57 H22         1.5492   -0.7125    2.7270 H         1 <0>         0.1385
     58 O6         -3.7280  -11.8212   -1.4529 O.co2     1 <0>        -0.7530
@<TRIPOS>BOND
     1    1    2 1
     2    1   36 1
     3    1   37 1
     4    1   38 1
     5    2    3 1
     6    2   39 1
     7    2   40 1
     8    3    4 1
     9    4    9 ar
    10    4    5 ar
    11    5    6 ar
    12    5   41 1
    13    6    7 ar
    14    6   20 1
    15    7    8 ar
    16    7   42 1
    17    8    9 ar
    18    8   43 1
    19    9   10 1
    20   10   11 1
    21   11   12 1
    22   11   44 1
    23   11   45 1
    24   12   17 ar
    25   12   13 ar
    26   13   14 ar
    27   13   46 1
    28   14   15 ar
    29   14   47 1
    30   15   16 ar
    31   15   18 1
    32   16   17 ar
    33   16   48 1
    34   17   49 1
    35   18   19 2
    36   18   58 1
    37   20   21 2
    38   20   50 1
    39   21   27 1
    40   21   22 1
    41   22   23 2
    42   22   24 am
    43   24   25 am
    44   24   28 1
    45   25   26 2
    46   25   27 am
    47   27   51 1
    48   28   29 1
    49   28   52 1
    50   28   53 1
    51   29   34 ar
    52   29   30 ar
    53   30   31 ar
    54   30   54 1
    55   31   32 ar
    56   31   55 1
    57   32   33 ar
    58   32   56 1
    59   33   34 ar
    60   33   57 1
    61   34   35 1
@<TRIPOS>MOLECULE
ZINC22146651
   45    48     0     0     0
SMALL
USER_CHARGES

@<TRIPOS>ATOM
      1 C1         -0.0184    1.5028    0.0103 C.3       1 <0>        -0.0781
      2 C2          0.0021   -0.0041    0.0020 C.2       1 <0>         0.1096
      3 N1          0.0081   -0.7656   -1.0506 N.2       1 <0>        -0.2108
      4 N2          0.0279   -2.1152   -0.6991 N.am      1 <0>        -0.3986
      5 C3          0.0351   -2.2431    0.6432 C.2       1 <0>         0.5171
      6 O1          0.0524   -3.2827    1.2808 O.2       1 <0>        -0.4720
      7 C4          0.0251   -0.8772    1.1816 C.2       1 <0>        -0.2178
      8 C5          0.0326   -0.4931    2.5217 C.2       1 <0>         0.0795
      9 C6          0.0554   -1.4664    3.5292 C.2       1 <0>        -0.0221
     10 C7          0.0595   -1.2237    4.8976 C.2       1 <0>        -0.1404
     11 C8          0.0841   -2.4662    5.5263 C.2       1 <0>        -0.1864
     12 C9          0.0943   -3.4231    4.5317 C.2       1 <0>         0.0375
     13 O2          0.0713   -2.8036    3.3394 O.3       1 <0>        -0.0905
     14 C10         0.1201   -4.8830    4.7425 C.ar      1 <0>         0.0316
     15 C11         0.1308   -5.4051    6.0387 C.ar      1 <0>        -0.0986
     16 C12         0.1549   -6.7710    6.2280 C.ar      1 <0>        -0.0537
     17 C13         0.1690   -7.6239    5.1382 C.ar      1 <0>        -0.0466
     18 C14         0.1586   -7.1140    3.8516 C.ar      1 <0>        -0.0493
     19 C15         0.1281   -5.7505    3.6469 C.ar      1 <0>        -0.0911
     20 N3          0.1960   -9.0891    5.3497 N.pl3     1 <0>         0.0331
     21 O3          0.2056   -9.5377    6.4724 O.2       1 <0>        -0.1602
     22 O4          0.2083   -9.8369    4.3998 O.3       1 <0>        -0.1538
     23 C16         0.0382   -3.1815   -1.6075 C.ar      1 <0>         0.1372
     24 C17         0.0517   -4.4912   -1.1416 C.ar      1 <0>        -0.1528
     25 C18         0.0620   -5.5475   -2.0331 C.ar      1 <0>        -0.1174
     26 C19         0.0589   -5.3096   -3.3924 C.ar      1 <0>        -0.0951
     27 C20         0.0454   -3.9972   -3.8714 C.ar      1 <0>        -0.1144
     28 C21         0.0293   -2.9307   -2.9702 C.ar      1 <0>        -0.0895
     29 C22         0.0421   -3.7391   -5.3242 C.2       1 <0>         0.5217
     30 O5          0.0512   -4.6749   -6.1115 O.co2     1 <0>        -0.6842
     31 O6          0.0303   -2.5895   -5.7411 O.co2     1 <0>        -0.6831
     32 H1          1.0042    1.8801    0.0026 H         1 <0>         0.0898
     33 H2         -0.5455    1.8639   -0.8728 H         1 <0>         0.0893
     34 H3         -0.5286    1.8543    0.9071 H         1 <0>         0.0838
     35 H4          0.0208    0.5547    2.7832 H         1 <0>         0.1779
     36 H5          0.0466   -0.2577    5.3805 H         1 <0>         0.1662
     37 H6          0.0938   -2.6469    6.5910 H         1 <0>         0.1610
     38 H7          0.1205   -4.7407    6.8900 H         1 <0>         0.1527
     39 H8          0.1632   -7.1760    7.2291 H         1 <0>         0.1593
     40 H9          0.1701   -7.7856    3.0059 H         1 <0>         0.1604
     41 H10         0.1155   -5.3541    2.6424 H         1 <0>         0.1646
     42 H11         0.0545   -4.6841   -0.0789 H         1 <0>         0.1415
     43 H12         0.0728   -6.5626   -1.6646 H         1 <0>         0.1228
     44 H13         0.0673   -6.1377   -4.0857 H         1 <0>         0.1306
     45 H14         0.0145   -1.9139   -3.3340 H         1 <0>         0.1392
@<TRIPOS>BOND
     1    1    2 1
     2    1   32 1
     3    1   33 1
     4    1   34 1
     5    2    7 1
     6    2    3 2
     7    3    4 1
     8    4    5 am
     9    4   23 1
    10    5    6 2
    11    5    7 1
    12    7    8 2
    13    8    9 1
    14    8   35 1
    15    9   13 1
    16    9   10 2
    17   10   11 1
    18   10   36 1
    19   11   12 2
    20   11   37 1
    21   12   13 1
    22   12   14 1
    23   14   19 ar
    24   14   15 ar
    25   15   16 ar
    26   15   38 1
    27   16   17 ar
    28   16   39 1
    29   17   18 ar
    30   17   20 1
    31   18   19 ar
    32   18   40 1
    33   19   41 1
    34   20   21 2
    35   20   22 1
    36   23   28 ar
    37   23   24 ar
    38   24   25 ar
    39   24   42 1
    40   25   26 ar
    41   25   43 1
    42   26   27 ar
    43   26   44 1
    44   27   28 ar
    45   27   29 1
    46   28   45 1
    47   29   30 2
    48   29   31 1
@<TRIPOS>MOLECULE
ZINC15659837
   47    50     0     0     0
SMALL
USER_CHARGES
(4Z)-1-(3-chlorophenyl)-4-[[5-(4,5-dimethyl-2-nitro-phenyl)-2-furyl]methylene]pyrazolidine-3,5-dione
@<TRIPOS>ATOM
      1 C1         -1.2937   -0.7734    0.0098 C.3       1 <0>        -0.1278
      2 C2          0.0021   -0.0041    0.0020 C.ar      1 <0>        -0.0356
      3 C3         -0.0166    1.3751    0.0096 C.ar      1 <0>        -0.0879
      4 C4          1.1857    2.0867    0.0019 C.ar      1 <0>         0.0340
      5 C5          2.3995    1.3943   -0.0134 C.ar      1 <0>        -0.0238
      6 C6          2.4028    0.0154   -0.0203 C.ar      1 <0>        -0.0522
      7 C7          1.2077   -0.6829   -0.0131 C.ar      1 <0>        -0.0730
      8 C8          1.2197   -2.1898   -0.0213 C.3       1 <0>        -0.1227
      9 N1          3.6786    2.1393   -0.0221 N.pl3     1 <0>         0.0274
     10 O1          4.7356    1.5344   -0.0354 O.2       1 <0>        -0.1743
     11 O2          3.6740    3.3573   -0.0159 O.3       1 <0>        -0.1166
     12 C9          1.1739    3.5621    0.0105 C.2       1 <0>         0.0537
     13 C10         0.4431    4.3661   -0.8398 C.2       1 <0>        -0.1927
     14 C11         0.7177    5.6866   -0.4901 C.2       1 <0>        -0.1200
     15 C12         1.6208    5.6427    0.5635 C.2       1 <0>        -0.0423
     16 O3          1.8777    4.3468    0.8439 O.3       1 <0>        -0.0686
     17 C13         2.1714    6.7523    1.2225 C.2       1 <0>         0.1399
     18 C14         3.0686    6.5653    2.2671 C.2       1 <0>        -0.2902
     19 C15         3.7451    7.6037    3.0620 C.2       1 <0>         0.5772
     20 O4          3.6270    8.8079    2.9317 O.2       1 <0>        -0.4954
     21 N2          4.5164    6.9664    3.9631 N.am      1 <0>        -0.5188
     22 N3          4.4040    5.5843    3.8119 N.am      1 <0>        -0.3589
     23 C16         3.5519    5.2867    2.8128 C.2       1 <0>         0.5638
     24 O5          3.2407    4.1729    2.4333 O.2       1 <0>        -0.4474
     25 C17         5.0820    4.6398    4.5890 C.ar      1 <0>         0.1839
     26 C18         4.8933    3.2831    4.3572 C.ar      1 <0>        -0.1418
     27 C19         5.5681    2.3525    5.1225 C.ar      1 <0>        -0.0695
     28 C20         6.4232    2.7693    6.1262 C.ar      1 <0>        -0.1309
     29 C21         6.6093    4.1198    6.3640 C.ar      1 <0>        -0.0020
     30 C22         5.9407    5.0561    5.5976 C.ar      1 <0>        -0.1536
     31 Cl1         7.6829    4.6385    7.6258 Cl        1 <0>        -0.0581
     32 H1         -1.6155   -0.9534   -1.0160 H         1 <0>         0.0868
     33 H2         -1.1471   -1.7269    0.5171 H         1 <0>         0.0832
     34 H3         -2.0557   -0.1965    0.5337 H         1 <0>         0.0783
     35 H4         -0.9584    1.9037    0.0169 H         1 <0>         0.1532
     36 H5          3.3401   -0.5210   -0.0318 H         1 <0>         0.1582
     37 H6          1.2128   -2.5476   -1.0509 H         1 <0>         0.0836
     38 H7          2.1174   -2.5488    0.4820 H         1 <0>         0.0769
     39 H8          0.3376   -2.5630    0.4989 H         1 <0>         0.0821
     40 H9         -0.2188    4.0345   -1.6262 H         1 <0>         0.1603
     41 H10         0.3104    6.5734   -0.9528 H         1 <0>         0.1678
     42 H11         1.8980    7.7517    0.9178 H         1 <0>         0.1823
     43 H12         5.0757    7.4068    4.6220 H         1 <0>         0.4383
     44 H13         4.2223    2.9565    3.5766 H         1 <0>         0.1587
     45 H14         5.4249    1.2979    4.9394 H         1 <0>         0.1415
     46 H15         6.9465    2.0394    6.7260 H         1 <0>         0.1392
     47 H16         6.0863    6.1101    5.7830 H         1 <0>         0.1338
@<TRIPOS>BOND
     1    1    2 1
     2    1   32 1
     3    1   33 1
     4    1   34 1
     5    2    7 ar
     6    2    3 ar
     7    3    4 ar
     8    3   35 1
     9    4    5 ar
    10    4   12 1
    11    5    6 ar
    12    5    9 1
    13    6    7 ar
    14    6   36 1
    15    7    8 1
    16    8   37 1
    17    8   38 1
    18    8   39 1
    19    9   10 2
    20    9   11 1
    21   12   16 1
    22   12   13 2
    23   13   14 1
    24   13   40 1
    25   14   15 2
    26   14   41 1
    27   15   16 1
    28   15   17 1
    29   17   18 2
    30   17   42 1
    31   18   23 1
    32   18   19 1
    33   19   20 2
    34   19   21 am
    35   21   22 1
    36   21   43 1
    37   22   23 am
    38   22   25 1
    39   23   24 2
    40   25   30 ar
    41   25   26 ar
    42   26   27 ar
    43   26   44 1
    44   27   28 ar
    45   27   45 1
    46   28   29 ar
    47   28   46 1
    48   29   30 ar
    49   29   31 1
    50   30   47 1
@<TRIPOS>MOLECULE
ZINC15799433
   49    53     0     0     0
SMALL
USER_CHARGES

@<TRIPOS>ATOM
      1 C1         -1.8150   -0.5771   -2.9489 C.3       1 <0>         0.0227
      2 O1         -1.2434   -1.5295   -2.0499 O.3       1 <0>        -0.2525
      3 C2         -2.0959   -2.3969   -1.4472 C.ar      1 <0>         0.1647
      4 C3         -3.4539   -2.3391   -1.7174 C.ar      1 <0>        -0.1589
      5 C4         -4.3207   -3.2222   -1.1029 C.ar      1 <0>        -0.0032
      6 C5         -3.8420   -4.1706   -0.2138 C.ar      1 <0>        -0.1005
      7 C6         -2.4947   -4.2428    0.0671 C.ar      1 <0>        -0.0549
      8 C7         -1.6056   -3.3595   -0.5523 C.ar      1 <0>        -0.0040
      9 C8         -0.1632   -3.4349   -0.2620 C.2       1 <0>         0.0400
     10 C9          0.4044   -3.4803    0.9974 C.2       1 <0>        -0.1895
     11 C10         1.7828   -3.5470    0.8219 C.2       1 <0>        -0.1663
     12 C11         2.0143   -3.5402   -0.5497 C.2       1 <0>         0.0199
     13 O2          0.8194   -3.4769   -1.1776 O.3       1 <0>        -0.0918
     14 C12         3.2667   -3.5946   -1.1714 C.2       1 <0>         0.0508
     15 C13         3.5036   -2.8532   -2.3280 C.2       1 <0>        -0.2458
     16 C14         2.5363   -1.8503   -2.8125 C.2       1 <0>         0.5262
     17 N1          2.8279   -1.1714   -3.9345 N.2       1 <0>        -0.6612
     18 C15         3.9367   -1.3760   -4.6001 C.2       1 <0>         0.6333
     19 O3          4.1523   -0.6517   -5.7161 O.3       1 <0>        -0.6439
     20 N2          4.8829   -2.2787   -4.2274 N.am      1 <0>        -0.5284
     21 C16         4.7316   -3.0312   -3.1167 C.2       1 <0>         0.5641
     22 O4          5.5827   -3.8350   -2.7815 O.2       1 <0>        -0.5148
     23 C17         6.0395   -2.4262   -5.0071 C.ar      1 <0>         0.1702
     24 C18         6.9771   -1.4037   -5.0581 C.ar      1 <0>        -0.0795
     25 C19         8.1167   -1.5471   -5.8259 C.ar      1 <0>        -0.0898
     26 C20         8.3273   -2.7116   -6.5468 C.ar      1 <0>         0.0251
     27 C21         7.3884   -3.7393   -6.4972 C.ar      1 <0>         0.0369
     28 C22         6.2491   -3.5965   -5.7231 C.ar      1 <0>        -0.0846
     29 O5          7.8231   -4.7658   -7.2852 O.3       1 <0>        -0.3096
     30 C23         8.8332   -4.1951   -8.1379 C.3       1 <0>         0.2139
     31 O6          9.3505   -3.0950   -7.3663 O.3       1 <0>        -0.3107
     32 O7          1.4965   -1.6428   -2.2091 O.2       1 <0>        -0.4997
     33 N3         -5.7699   -3.1543   -1.3961 N.pl3     1 <0>         0.0341
     34 O8         -6.1918   -2.3279   -2.1711 O.2       1 <0>        -0.1595
     35 O9         -6.5318   -3.9252   -0.8605 O.3       1 <0>        -0.1561
     36 H1         -1.0265    0.0532   -3.3602 H         1 <0>         0.1181
     37 H2         -2.3214   -1.1010   -3.7595 H         1 <0>         0.0572
     38 H3         -2.5333    0.0432   -2.4126 H         1 <0>         0.0548
     39 H4         -3.8352   -1.6025   -2.4091 H         1 <0>         0.1619
     40 H5         -4.5277   -4.8562    0.2617 H         1 <0>         0.1583
     41 H6         -2.1259   -4.9832    0.7614 H         1 <0>         0.1590
     42 H7         -0.1227   -3.4660    1.9399 H         1 <0>         0.1528
     43 H8          2.5295   -3.5943    1.6008 H         1 <0>         0.1567
     44 H9          4.0499   -4.2109   -0.7552 H         1 <0>         0.1626
     45 H10         6.8154   -0.4950   -4.4972 H         1 <0>         0.1402
     46 H11         8.8445   -0.7501   -5.8646 H         1 <0>         0.1394
     47 H12         5.5219   -4.3937   -5.6800 H         1 <0>         0.1326
     48 H13         9.6186   -4.9230   -8.3413 H         1 <0>         0.1281
     49 H14         8.3917   -3.8366   -9.0677 H         1 <0>         0.0818
@<TRIPOS>BOND
     1    1    2 1
     2    1   36 1
     3    1   37 1
     4    1   38 1
     5    2    3 1
     6    3    8 ar
     7    3    4 ar
     8    4    5 ar
     9    4   39 1
    10    5    6 ar
    11    5   33 1
    12    6    7 ar
    13    6   40 1
    14    7    8 ar
    15    7   41 1
    16    8    9 1
    17    9   13 1
    18    9   10 2
    19   10   11 1
    20   10   42 1
    21   11   12 2
    22   11   43 1
    23   12   13 1
    24   12   14 1
    25   14   15 2
    26   14   44 1
    27   15   21 1
    28   15   16 1
    29   16   17 1
    30   16   32 2
    31   17   18 2
    32   18   19 1
    33   18   20 1
    34   20   21 am
    35   20   23 1
    36   21   22 2
    37   23   28 ar
    38   23   24 ar
    39   24   25 ar
    40   24   45 1
    41   25   26 ar
    42   25   46 1
    43   26   31 1
    44   26   27 ar
    45   27   28 ar
    46   27   29 1
    47   28   47 1
    48   29   30 1
    49   30   31 1
    50   30   48 1
    51   30   49 1
    52   33   34 2
    53   33   35 1
