@<TRIPOS>MOLECULE
ZINC19811901
   49    52     0     0     0
SMALL
USER_CHARGES
(5Z)-5-[[5-chloro-2-[(4-nitrophenyl)methoxy]phenyl]methylene]-1-(2-fluorophenyl)hexahydropyrimidine-2,4,6-trione
@<TRIPOS>ATOM
      1 C1         -3.6141   -0.3078    1.1832 C.ar      1 <0>        -0.1244
      2 C2         -4.7957   -0.7975    1.7088 C.ar      1 <0>        -0.0936
      3 C3         -4.9490   -2.1540    1.9275 C.ar      1 <0>        -0.1518
      4 C4         -3.9196   -3.0255    1.6207 C.ar      1 <0>         0.1135
      5 C5         -2.7310   -2.5351    1.0922 C.ar      1 <0>         0.1251
      6 C6         -2.5820   -1.1725    0.8746 C.ar      1 <0>        -0.0742
      7 N1         -1.6846   -3.4152    0.7802 N.am      1 <0>        -0.5454
      8 C7         -0.7618   -3.7015    1.7216 C.2       1 <0>         0.5627
      9 O1         -0.8273   -3.2079    2.8314 O.2       1 <0>        -0.5111
     10 C8          0.3293   -4.6305    1.3680 C.2       1 <0>        -0.2500
     11 C9          1.3105   -4.9716    2.2794 C.2       1 <0>         0.0413
     12 C10         1.4071   -4.2572    3.5513 C.ar      1 <0>        -0.0882
     13 C11         1.3763   -2.8547    3.5782 C.ar      1 <0>         0.0116
     14 C12         1.4678   -2.1904    4.7806 C.ar      1 <0>        -0.0736
     15 C13         1.5905   -2.9009    5.9668 C.ar      1 <0>        -0.0586
     16 C14         1.6222   -4.2813    5.9568 C.ar      1 <0>        -0.2084
     17 C15         1.5257   -4.9713    4.7583 C.ar      1 <0>         0.1534
     18 O2          1.5508   -6.3270    4.7485 O.3       1 <0>        -0.2968
     19 C16         1.6733   -6.9828    6.0122 C.3       1 <0>         0.0898
     20 C17         1.6838   -8.4754    5.8047 C.ar      1 <0>        -0.0417
     21 C18         0.4967   -9.1835    5.8189 C.ar      1 <0>        -0.0913
     22 C19         0.5059  -10.5522    5.6247 C.ar      1 <0>        -0.0554
     23 C20         1.7030  -11.2138    5.4243 C.ar      1 <0>        -0.0365
     24 C21         2.8906  -10.5063    5.4154 C.ar      1 <0>        -0.0565
     25 C22         2.8810   -9.1372    5.6058 C.ar      1 <0>        -0.0921
     26 N2          1.7132  -12.6797    5.2200 N.pl3     1 <0>         0.0271
     27 O3          2.7681  -13.2627    5.0439 O.2       1 <0>        -0.1578
     28 O4          0.6668  -13.3030    5.2279 O.3       1 <0>        -0.1572
     29 Cl1         1.4292   -0.4551    4.8136 Cl        1 <0>        -0.0737
     30 C23         0.3255   -5.1795   -0.0025 C.2       1 <0>         0.5345
     31 O5          1.1910   -5.9516   -0.3688 O.3       1 <0>        -0.5555
     32 N3         -0.6647   -4.8016   -0.8371 N.2       1 <0>        -0.6974
     33 C24        -1.6279   -3.9563   -0.4447 C.2       1 <0>         0.6637
     34 O6         -2.4938   -3.6603   -1.2445 O.2       1 <0>        -0.5745
     35 F1         -4.0692   -4.3512    1.8338 F         1 <0>        -0.1340
     36 H1         -3.4981    0.7525    1.0135 H         1 <0>         0.1313
     37 H2         -5.6008   -0.1188    1.9487 H         1 <0>         0.1322
     38 H3         -5.8747   -2.5339    2.3340 H         1 <0>         0.1359
     39 H4         -1.6597   -0.7885    0.4645 H         1 <0>         0.1300
     40 H5          2.0189   -5.7807    2.0479 H         1 <0>         0.1566
     41 H6          1.2806   -2.2976    2.6579 H         1 <0>         0.1345
     42 H7          1.6619   -2.3700    6.9046 H         1 <0>         0.1340
     43 H8          1.7179   -4.8247    6.8852 H         1 <0>         0.1363
     44 H9          2.6112   -6.6733    6.4965 H         1 <0>         0.0847
     45 H10         0.8220   -6.7076    6.6522 H         1 <0>         0.0839
     46 H11        -0.4383   -8.6671    5.9787 H         1 <0>         0.1513
     47 H12        -0.4219  -11.1049    5.6320 H         1 <0>         0.1574
     48 H13         3.8259  -11.0233    5.2592 H         1 <0>         0.1573
     49 H14         3.8088   -8.5845    5.5987 H         1 <0>         0.1515
@<TRIPOS>BOND
     1    1    6 ar
     2    1    2 ar
     3    1   36 1
     4    2    3 ar
     5    2   37 1
     6    3    4 ar
     7    3   38 1
     8    4    5 ar
     9    4   35 1
    10    5    6 ar
    11    5    7 1
    12    6   39 1
    13    7   33 am
    14    7    8 am
    15    8    9 2
    16    8   10 1
    17   10   11 2
    18   10   30 1
    19   11   12 1
    20   11   40 1
    21   12   17 ar
    22   12   13 ar
    23   13   14 ar
    24   13   41 1
    25   14   15 ar
    26   14   29 1
    27   15   16 ar
    28   15   42 1
    29   16   17 ar
    30   16   43 1
    31   17   18 1
    32   18   19 1
    33   19   20 1
    34   19   44 1
    35   19   45 1
    36   20   25 ar
    37   20   21 ar
    38   21   22 ar
    39   21   46 1
    40   22   23 ar
    41   22   47 1
    42   23   24 ar
    43   23   26 1
    44   24   25 ar
    45   24   48 1
    46   25   49 1
    47   26   27 2
    48   26   28 1
    49   30   31 1
    50   30   32 2
    51   32   33 1
    52   33   34 2
@<TRIPOS>MOLECULE
ZINC36123841
   61    64     0     0     0
SMALL
USER_CHARGES

@<TRIPOS>ATOM
      1 C1         -0.0166    1.3727    0.0096 C.ar      1 <0>        -0.0727
      2 C2          1.1689    2.0927    0.0021 C.ar      1 <0>        -0.0638
      3 C3          2.3836    1.4389   -0.0135 C.ar      1 <0>        -0.0811
      4 C4          2.4213    0.0528   -0.0213 C.ar      1 <0>         0.0893
      5 C5          1.2239   -0.6813   -0.0133 C.ar      1 <0>         0.0508
      6 C6          0.0021   -0.0041    0.0020 C.ar      1 <0>        -0.0848
      7 N1          1.5618   -1.9977   -0.0242 N.pl3     1 <0>        -0.4392
      8 C7          2.8660   -2.1168   -0.0381 C.cat     1 <0>         0.6498
      9 N2          3.5521   -3.3129   -0.0527 N.pl3     1 <0>        -0.7923
     10 N3          3.4451   -0.8803   -0.0369 N.pl3     1 <0>        -0.4521
     11 C8          4.8817   -0.5937   -0.0494 C.3       1 <0>         0.0689
     12 C9          5.3961   -0.5024    1.3887 C.3       1 <0>         0.0887
     13 H1          4.8106    0.2349    1.9379 H         1 <0>         0.1315
     14 C10         6.8668   -0.0808    1.3785 C.3       1 <0>         0.0258
     15 O1          7.3148    0.1173    2.7209 O.3       1 <0>        -0.2872
     16 C11         8.6091    0.4976    2.8898 C.ar      1 <0>         0.1313
     17 C12         9.4285    0.6815    1.7861 C.ar      1 <0>        -0.1861
     18 C13        10.7435    1.0679    1.9595 C.ar      1 <0>        -0.0636
     19 C14        11.2439    1.2715    3.2335 C.ar      1 <0>        -0.0540
     20 C15        10.4288    1.0888    4.3363 C.ar      1 <0>        -0.0613
     21 C16         9.1107    0.7077    4.1669 C.ar      1 <0>        -0.0531
     22 Cl1         8.0858    0.4854    5.5503 Cl        1 <0>        -0.0357
     23 Cl2        12.8969    1.7564    3.4482 Cl        1 <0>        -0.0400
     24 O2          5.2705   -1.7776    2.0213 O.3       1 <0>        -0.5375
     25 C17         0.6120   -3.1131   -0.0205 C.3       1 <0>         0.0714
     26 C18         0.2663   -3.4934   -1.4616 C.3       1 <0>        -0.0348
     27 N4         -0.6860   -4.6119   -1.4578 N.4       1 <0>        -0.3796
     28 C19        -0.0437   -5.7975   -0.8779 C.3       1 <0>        -0.0192
     29 C20        -1.0557   -6.9424   -0.7970 C.3       1 <0>        -0.1463
     30 C21        -1.5604   -7.2707   -2.2051 C.3       1 <0>        -0.1422
     31 C22        -2.1615   -6.0077   -2.8286 C.3       1 <0>        -0.1475
     32 C23        -1.1085   -4.8974   -2.8342 C.3       1 <0>        -0.0063
     33 H2         -0.9613    1.8958    0.0260 H         1 <0>         0.1594
     34 H3          1.1408    3.1724    0.0082 H         1 <0>         0.1609
     35 H4          3.3031    2.0053   -0.0199 H         1 <0>         0.1530
     36 H5         -0.9247   -0.5585    0.0083 H         1 <0>         0.1456
     37 H6          3.0648   -4.1516   -0.0532 H         1 <0>         0.4341
     38 H7          5.4070   -1.3923   -0.5732 H         1 <0>         0.1191
     39 H8          5.0589    0.3532   -0.5594 H         1 <0>         0.1416
     40 H9          7.4651   -0.8606    0.9072 H         1 <0>         0.0783
     41 H10         6.9746    0.8481    0.8186 H         1 <0>         0.0855
     42 H11         9.0389    0.5224    0.7914 H         1 <0>         0.1425
     43 H12        11.3817    1.2107    1.1001 H         1 <0>         0.1477
     44 H13        10.8213    1.2479    5.3298 H         1 <0>         0.1567
     45 H14         5.7667   -2.4837    1.5850 H         1 <0>         0.3746
     46 H15         1.0595   -3.9695    0.4840 H         1 <0>         0.1290
     47 H16        -0.2957   -2.8157    0.5046 H         1 <0>         0.1463
     48 H17        -0.1811   -2.6370   -1.9660 H         1 <0>         0.1508
     49 H18         1.1741   -3.7908   -1.9866 H         1 <0>         0.1398
     50 H19         0.7957   -6.0987   -1.5047 H         1 <0>         0.1344
     51 H20         0.3179   -5.5614    0.1229 H         1 <0>         0.1265
     52 H21        -0.5764   -7.8222   -0.3678 H         1 <0>         0.1186
     53 H22        -1.8954   -6.6423   -0.1701 H         1 <0>         0.0926
     54 H23        -0.7294   -7.6197   -2.8180 H         1 <0>         0.0842
     55 H24        -2.3233   -8.0470   -2.1471 H         1 <0>         0.1012
     56 H25        -2.4726   -6.2194   -3.8516 H         1 <0>         0.1196
     57 H26        -3.0241   -5.6882   -2.2439 H         1 <0>         0.0920
     58 H27        -1.5331   -3.9968   -3.2777 H         1 <0>         0.1353
     59 H28        -0.2465   -5.2178   -3.4194 H         1 <0>         0.1325
     60 H29         4.5220   -3.3156   -0.0624 H         1 <0>         0.4417
     61 H30        -1.4922   -4.3640   -0.9041 H         1 <0>         0.4291
@<TRIPOS>BOND
     1    1    6 ar
     2    1    2 ar
     3    1   33 1
     4    2    3 ar
     5    2   34 1
     6    3    4 ar
     7    3   35 1
     8    4   10 1
     9    4    5 ar
    10    5    6 ar
    11    5    7 1
    12    6   36 1
    13    7    8 2
    14    7   25 1
    15    8    9 1
    16    8   10 1
    17    9   37 1
    18    9   60 1
    19   10   11 1
    20   11   12 1
    21   11   38 1
    22   11   39 1
    23   12   13 1
    24   12   14 1
    25   12   24 1
    26   14   15 1
    27   14   40 1
    28   14   41 1
    29   15   16 1
    30   16   21 ar
    31   16   17 ar
    32   17   18 ar
    33   17   42 1
    34   18   19 ar
    35   18   43 1
    36   19   20 ar
    37   19   23 1
    38   20   21 ar
    39   20   44 1
    40   21   22 1
    41   24   45 1
    42   25   26 1
    43   25   46 1
    44   25   47 1
    45   26   27 1
    46   26   48 1
    47   26   49 1
    48   27   32 1
    49   27   28 1
    50   27   61 1
    51   28   29 1
    52   28   50 1
    53   28   51 1
    54   29   30 1
    55   29   52 1
    56   29   53 1
    57   30   31 1
    58   30   54 1
    59   30   55 1
    60   31   32 1
    61   31   56 1
    62   31   57 1
    63   32   58 1
    64   32   59 1
