@<TRIPOS>MOLECULE
ZINC05639287
   40    42     0     0     0
SMALL
USER_CHARGES
1-[5-(4-fluorophenyl)-3-(4-methoxyphenyl)-4,5-dihydropyrazol-1-yl]ethanone
@<TRIPOS>ATOM
      1 C1         -3.3528    7.9801    0.0728 C.3       1 <0>        -0.1666
      2 C2         -4.3743    6.8721    0.0767 C.2       1 <0>         0.5503
      3 O1         -5.5578    7.1384    0.0889 O.2       1 <0>        -0.5180
      4 N1         -3.9731    5.5855    0.0666 N.am      1 <0>        -0.4657
      5 C3         -4.8609    4.4120    0.0690 C.3       1 <0>         0.1496
      6 H1         -5.4907    4.4057   -0.8206 H         1 <0>         0.1044
      7 C4         -3.8841    3.2196    0.0489 C.3       1 <0>        -0.1275
      8 C5         -2.5181    3.8678    0.0455 C.2       1 <0>         0.1521
      9 N2         -2.6498    5.1493    0.0527 N.2       1 <0>        -0.2438
     10 C6         -1.2334    3.1447    0.0298 C.ar      1 <0>        -0.0787
     11 C7         -1.2158    1.7475    0.0173 C.ar      1 <0>        -0.0457
     12 C8         -0.0126    1.0758    0.0080 C.ar      1 <0>        -0.1538
     13 C9          1.1814    1.7856    0.0004 C.ar      1 <0>         0.1490
     14 C10         1.1686    3.1745    0.0075 C.ar      1 <0>        -0.2128
     15 C11        -0.0298    3.8546    0.0221 C.ar      1 <0>        -0.0355
     16 O2          2.3651    1.1193   -0.0145 O.3       1 <0>        -0.3139
     17 C12         3.5550    1.9107   -0.0216 C.3       1 <0>         0.0241
     18 C13        -5.7069    4.3895    1.3159 C.ar      1 <0>        -0.1024
     19 C14        -5.1609    4.7692    2.5279 C.ar      1 <0>        -0.0728
     20 C15        -5.9371    4.7536    3.6712 C.ar      1 <0>        -0.1508
     21 C16        -7.2591    4.3474    3.6043 C.ar      1 <0>         0.1047
     22 C17        -7.8033    3.9623    2.3908 C.ar      1 <0>        -0.1499
     23 C18        -7.0267    3.9838    1.2479 C.ar      1 <0>        -0.0691
     24 F1         -8.0175    4.3273    4.7222 F         1 <0>        -0.1373
     25 H2         -2.3510    7.5506    0.0614 H         1 <0>         0.0908
     26 H3         -3.4924    8.5999   -0.8129 H         1 <0>         0.0967
     27 H4         -3.4760    8.5911    0.9670 H         1 <0>         0.0961
     28 H5         -4.0260    2.6219   -0.8515 H         1 <0>         0.1113
     29 H6         -4.0140    2.6062    0.9406 H         1 <0>         0.1095
     30 H7         -2.1437    1.1948    0.0187 H         1 <0>         0.1372
     31 H8          0.0021   -0.0041    0.0020 H         1 <0>         0.1388
     32 H9          2.0994    3.7222    0.0012 H         1 <0>         0.1348
     33 H10        -0.0387    4.9345    0.0280 H         1 <0>         0.1365
     34 H11         3.5645    2.5445   -0.9083 H         1 <0>         0.0589
     35 H12         3.5814    2.5350    0.8715 H         1 <0>         0.0588
     36 H13         4.4265    1.2562   -0.0335 H         1 <0>         0.1035
     37 H14        -4.1285    5.0821    2.5805 H         1 <0>         0.1253
     38 H15        -5.5115    5.0542    4.6172 H         1 <0>         0.1369
     39 H16        -8.8345    3.6457    2.3374 H         1 <0>         0.1395
     40 H17        -7.4511    3.6838    0.3012 H         1 <0>         0.1354
@<TRIPOS>BOND
     1    1    2 1
     2    1   25 1
     3    1   26 1
     4    1   27 1
     5    2    3 2
     6    2    4 am
     7    4    9 1
     8    4    5 1
     9    5    6 1
    10    5    7 1
    11    5   18 1
    12    7    8 1
    13    7   28 1
    14    7   29 1
    15    8    9 2
    16    8   10 1
    17   10   15 ar
    18   10   11 ar
    19   11   12 ar
    20   11   30 1
    21   12   13 ar
    22   12   31 1
    23   13   14 ar
    24   13   16 1
    25   14   15 ar
    26   14   32 1
    27   15   33 1
    28   16   17 1
    29   17   34 1
    30   17   35 1
    31   17   36 1
    32   18   23 ar
    33   18   19 ar
    34   19   20 ar
    35   19   37 1
    36   20   21 ar
    37   20   38 1
    38   21   22 ar
    39   21   24 1
    40   22   23 ar
    41   22   39 1
    42   23   40 1
@<TRIPOS>MOLECULE
ZINC05639290
   40    42     0     0     0
SMALL
USER_CHARGES
1-[5-(4-fluorophenyl)-3-(4-methoxyphenyl)-4,5-dihydropyrazol-1-yl]ethanone
@<TRIPOS>ATOM
      1 C1         -2.5188    6.4682    2.9138 C.3       1 <0>        -0.1668
      2 C2         -1.3318    5.8948    2.1835 C.2       1 <0>         0.5503
      3 O1         -0.5118    5.2329    2.7844 O.2       1 <0>        -0.5179
      4 N1         -1.1813    6.1174    0.8628 N.am      1 <0>        -0.4658
      5 C3         -0.0742    5.6188    0.0315 C.3       1 <0>         0.1492
      6 H1          0.8787    6.0124    0.3854 H         1 <0>         0.1046
      7 C4         -0.3982    6.1642   -1.3735 C.3       1 <0>        -0.1264
      8 C5         -1.6910    6.9298   -1.1740 C.2       1 <0>         0.1515
      9 N2         -2.0483    6.8577    0.0617 N.2       1 <0>        -0.2424
     10 C6         -2.4256    7.6476   -2.2315 C.ar      1 <0>        -0.0783
     11 C7         -1.9359    7.6601   -3.5402 C.ar      1 <0>        -0.0442
     12 C8         -2.6293    8.3271   -4.5267 C.ar      1 <0>        -0.2115
     13 C9         -3.8067    8.9968   -4.2194 C.ar      1 <0>         0.1490
     14 C10        -4.2943    8.9919   -2.9188 C.ar      1 <0>        -0.1550
     15 C11        -3.6109    8.3223   -1.9271 C.ar      1 <0>        -0.0372
     16 O2         -4.4837    9.6582   -5.1939 O.3       1 <0>        -0.3137
     17 C12        -3.9266    9.6228   -6.5093 C.3       1 <0>         0.0241
     18 C13        -0.0538    4.1120    0.0237 C.ar      1 <0>        -0.1023
     19 C14         1.1530    3.4377    0.0090 C.ar      1 <0>        -0.0702
     20 C15         1.1730    2.0559    0.0019 C.ar      1 <0>        -0.1500
     21 C16        -0.0162    1.3468    0.0094 C.ar      1 <0>         0.1044
     22 C17        -1.2243    2.0233    0.0188 C.ar      1 <0>        -0.1506
     23 C18        -1.2418    3.4051    0.0317 C.ar      1 <0>        -0.0725
     24 F1          0.0021   -0.0041    0.0020 F         1 <0>        -0.1373
     25 H2         -3.1398    7.0281    2.2146 H         1 <0>         0.0914
     26 H3         -3.1030    5.6579    3.3502 H         1 <0>         0.0963
     27 H4         -2.1723    7.1331    3.7049 H         1 <0>         0.0969
     28 H5          0.3936    6.8299   -1.7172 H         1 <0>         0.1104
     29 H6         -0.5428    5.3449   -2.0777 H         1 <0>         0.1088
     30 H7         -1.0177    7.1439   -3.7790 H         1 <0>         0.1326
     31 H8         -2.2540    8.3333   -5.5394 H         1 <0>         0.1355
     32 H9         -5.2102    9.5140   -2.6844 H         1 <0>         0.1381
     33 H10        -3.9909    8.3187   -0.9161 H         1 <0>         0.1410
     34 H11        -4.5639   10.1883   -7.1892 H         1 <0>         0.1034
     35 H12        -2.9300   10.0641   -6.4939 H         1 <0>         0.0587
     36 H13        -3.8609    8.5889   -6.8484 H         1 <0>         0.0587
     37 H14         2.0805    3.9910    0.0035 H         1 <0>         0.1353
     38 H15         2.1158    1.5293   -0.0092 H         1 <0>         0.1394
     39 H16        -2.1526    1.4712    0.0206 H         1 <0>         0.1370
     40 H17        -2.1839    3.9329    0.0439 H         1 <0>         0.1255
@<TRIPOS>BOND
     1    1    2 1
     2    1   25 1
     3    1   26 1
     4    1   27 1
     5    2    3 2
     6    2    4 am
     7    4    9 1
     8    4    5 1
     9    5    6 1
    10    5    7 1
    11    5   18 1
    12    7    8 1
    13    7   28 1
    14    7   29 1
    15    8    9 2
    16    8   10 1
    17   10   15 ar
    18   10   11 ar
    19   11   12 ar
    20   11   30 1
    21   12   13 ar
    22   12   31 1
    23   13   14 ar
    24   13   16 1
    25   14   15 ar
    26   14   32 1
    27   15   33 1
    28   16   17 1
    29   17   34 1
    30   17   35 1
    31   17   36 1
    32   18   23 ar
    33   18   19 ar
    34   19   20 ar
    35   19   37 1
    36   20   21 ar
    37   20   38 1
    38   21   22 ar
    39   21   24 1
    40   22   23 ar
    41   22   39 1
    42   23   40 1
@<TRIPOS>MOLECULE
ZINC00088680
   40    42     0     0     0
SMALL
USER_CHARGES
1-[5-(4-chlorophenyl)-3-(4-methoxyphenyl)-4,5-dihydropyrazol-1-yl]ethanone
@<TRIPOS>ATOM
      1 C1         -0.7784   -3.3626    2.8467 C.3       1 <0>        -0.1667
      2 C2         -0.8822   -2.0364    2.1385 C.2       1 <0>         0.5503
      3 O1         -0.7126   -1.0050    2.7543 O.2       1 <0>        -0.5177
      4 N1         -1.1633   -1.9962    0.8210 N.am      1 <0>        -0.4656
      5 C3         -1.2928   -0.7750    0.0103 C.3       1 <0>         0.1474
      6 H1         -2.1063   -0.1521    0.3823 H         1 <0>         0.1047
      7 C4         -1.6172   -1.3057   -1.4002 C.3       1 <0>        -0.1260
      8 C5         -1.6324   -2.8110   -1.2245 C.2       1 <0>         0.1517
      9 N2         -1.3792   -3.1042    0.0042 N.2       1 <0>        -0.2421
     10 C6         -1.8975   -3.7891   -2.2952 C.ar      1 <0>        -0.0784
     11 C7         -2.1660   -3.3503   -3.5945 C.ar      1 <0>        -0.0442
     12 C8         -2.4071   -4.2684   -4.5935 C.ar      1 <0>        -0.2114
     13 C9         -2.3958   -5.6276   -4.3079 C.ar      1 <0>         0.1491
     14 C10        -2.1350   -6.0682   -3.0167 C.ar      1 <0>        -0.1550
     15 C11        -1.8867   -5.1576   -2.0127 C.ar      1 <0>        -0.0371
     16 O2         -2.6400   -6.5289   -5.2946 O.3       1 <0>        -0.3137
     17 C12        -2.9007   -6.0077   -6.5993 C.3       1 <0>         0.0241
     18 C13         0.0021   -0.0041    0.0020 C.ar      1 <0>        -0.0864
     19 C14        -0.0167    1.3782    0.0096 C.ar      1 <0>        -0.0874
     20 C15         1.1706    2.0858    0.0021 C.ar      1 <0>        -0.1067
     21 C16         2.3780    1.4104   -0.0127 C.ar      1 <0>        -0.0294
     22 C17         2.3961    0.0270   -0.0199 C.ar      1 <0>        -0.1071
     23 C18         1.2082   -0.6795   -0.0127 C.ar      1 <0>        -0.0892
     24 Cl1         3.8696    2.2984   -0.0222 Cl        1 <0>        -0.0662
     25 H2         -0.9601   -4.1690    2.1363 H         1 <0>         0.0914
     26 H3          0.2196   -3.4705    3.2715 H         1 <0>         0.0964
     27 H4         -1.5197   -3.4073    3.6446 H         1 <0>         0.0969
     28 H5         -2.5928   -0.9472   -1.7286 H         1 <0>         0.1105
     29 H6         -0.8423   -1.0102   -2.1075 H         1 <0>         0.1088
     30 H7         -2.1801   -2.2934   -3.8163 H         1 <0>         0.1325
     31 H8         -2.6099   -3.9303   -5.5989 H         1 <0>         0.1356
     32 H9         -2.1273   -7.1260   -2.7992 H         1 <0>         0.1381
     33 H10        -1.6837   -5.5010   -1.0091 H         1 <0>         0.1409
     34 H11        -3.0789   -6.8314   -7.2907 H         1 <0>         0.1034
     35 H12        -3.7808   -5.3655   -6.5649 H         1 <0>         0.0587
     36 H13        -2.0414   -5.4287   -6.9377 H         1 <0>         0.0587
     37 H14        -0.9593    1.9053    0.0170 H         1 <0>         0.1344
     38 H15         1.1558    3.1656    0.0077 H         1 <0>         0.1372
     39 H16         3.3383   -0.5008   -0.0314 H         1 <0>         0.1347
     40 H17         1.2222   -1.7594   -0.0183 H         1 <0>         0.1248
@<TRIPOS>BOND
     1    1    2 1
     2    1   25 1
     3    1   26 1
     4    1   27 1
     5    2    3 2
     6    2    4 am
     7    4    9 1
     8    4    5 1
     9    5    6 1
    10    5    7 1
    11    5   18 1
    12    7    8 1
    13    7   28 1
    14    7   29 1
    15    8    9 2
    16    8   10 1
    17   10   15 ar
    18   10   11 ar
    19   11   12 ar
    20   11   30 1
    21   12   13 ar
    22   12   31 1
    23   13   14 ar
    24   13   16 1
    25   14   15 ar
    26   14   32 1
    27   15   33 1
    28   16   17 1
    29   17   34 1
    30   17   35 1
    31   17   36 1
    32   18   23 ar
    33   18   19 ar
    34   19   20 ar
    35   19   37 1
    36   20   21 ar
    37   20   38 1
    38   21   22 ar
    39   21   24 1
    40   22   23 ar
    41   22   39 1
    42   23   40 1
@<TRIPOS>MOLECULE
ZINC00088684
   40    42     0     0     0
SMALL
USER_CHARGES
1-[5-(4-chlorophenyl)-3-(4-methoxyphenyl)-4,5-dihydropyrazol-1-yl]ethanone
@<TRIPOS>ATOM
      1 C1         -3.3528    7.9801    0.0728 C.3       1 <0>        -0.1665
      2 C2         -4.3743    6.8721    0.0767 C.2       1 <0>         0.5503
      3 O1         -5.5578    7.1384    0.0889 O.2       1 <0>        -0.5178
      4 N1         -3.9731    5.5855    0.0666 N.am      1 <0>        -0.4655
      5 C3         -4.8609    4.4120    0.0690 C.3       1 <0>         0.1478
      6 H1         -5.4907    4.4057   -0.8206 H         1 <0>         0.1045
      7 C4         -3.8841    3.2196    0.0489 C.3       1 <0>        -0.1272
      8 C5         -2.5181    3.8678    0.0455 C.2       1 <0>         0.1523
      9 N2         -2.6498    5.1493    0.0527 N.2       1 <0>        -0.2435
     10 C6         -1.2334    3.1447    0.0298 C.ar      1 <0>        -0.0787
     11 C7         -1.2158    1.7475    0.0173 C.ar      1 <0>        -0.0457
     12 C8         -0.0126    1.0758    0.0080 C.ar      1 <0>        -0.1537
     13 C9          1.1814    1.7856    0.0004 C.ar      1 <0>         0.1491
     14 C10         1.1686    3.1745    0.0075 C.ar      1 <0>        -0.2127
     15 C11        -0.0298    3.8546    0.0221 C.ar      1 <0>        -0.0354
     16 O2          2.3651    1.1193   -0.0145 O.3       1 <0>        -0.3138
     17 C12         3.5550    1.9107   -0.0216 C.3       1 <0>         0.0241
     18 C13        -5.7069    4.3895    1.3159 C.ar      1 <0>        -0.0865
     19 C14        -5.1612    4.7692    2.5280 C.ar      1 <0>        -0.0895
     20 C15        -5.9382    4.7542    3.6710 C.ar      1 <0>        -0.1073
     21 C16        -7.2591    4.3483    3.6039 C.ar      1 <0>        -0.0292
     22 C17        -7.8031    3.9630    2.3915 C.ar      1 <0>        -0.1067
     23 C18        -7.0267    3.9838    1.2482 C.ar      1 <0>        -0.0862
     24 Cl1        -8.2338    4.3230    5.0402 Cl        1 <0>        -0.0662
     25 H2         -2.3510    7.5506    0.0614 H         1 <0>         0.0908
     26 H3         -3.4924    8.5999   -0.8129 H         1 <0>         0.0967
     27 H4         -3.4760    8.5911    0.9670 H         1 <0>         0.0962
     28 H5         -4.0260    2.6219   -0.8515 H         1 <0>         0.1114
     29 H6         -4.0140    2.6062    0.9406 H         1 <0>         0.1094
     30 H7         -2.1437    1.1948    0.0187 H         1 <0>         0.1371
     31 H8          0.0021   -0.0041    0.0020 H         1 <0>         0.1388
     32 H9          2.0994    3.7222    0.0012 H         1 <0>         0.1349
     33 H10        -0.0387    4.9345    0.0280 H         1 <0>         0.1365
     34 H11         3.5645    2.5445   -0.9083 H         1 <0>         0.0589
     35 H12         3.5814    2.5350    0.8715 H         1 <0>         0.0589
     36 H13         4.4265    1.2562   -0.0335 H         1 <0>         0.1035
     37 H14        -4.1288    5.0818    2.5810 H         1 <0>         0.1246
     38 H15        -5.5130    5.0551    4.6171 H         1 <0>         0.1347
     39 H16        -8.8343    3.6464    2.3384 H         1 <0>         0.1373
     40 H17        -7.4513    3.6834    0.3017 H         1 <0>         0.1345
@<TRIPOS>BOND
     1    1    2 1
     2    1   25 1
     3    1   26 1
     4    1   27 1
     5    2    3 2
     6    2    4 am
     7    4    9 1
     8    4    5 1
     9    5    6 1
    10    5    7 1
    11    5   18 1
    12    7    8 1
    13    7   28 1
    14    7   29 1
    15    8    9 2
    16    8   10 1
    17   10   15 ar
    18   10   11 ar
    19   11   12 ar
    20   11   30 1
    21   12   13 ar
    22   12   31 1
    23   13   14 ar
    24   13   16 1
    25   14   15 ar
    26   14   32 1
    27   15   33 1
    28   16   17 1
    29   17   34 1
    30   17   35 1
    31   17   36 1
    32   18   23 ar
    33   18   19 ar
    34   19   20 ar
    35   19   37 1
    36   20   21 ar
    37   20   38 1
    38   21   22 ar
    39   21   24 1
    40   22   23 ar
    41   22   39 1
    42   23   40 1
@<TRIPOS>MOLECULE
ZINC01712041
   26    27     0     0     0
SMALL
USER_CHARGES
3-benzyl-1,1-dioxo-1,3-thiazolidin-2-one
@<TRIPOS>ATOM
      1 C1         -0.0167    1.3781    0.0096 C.ar      1 <0>        -0.1108
      2 C2          1.1709    2.0855    0.0021 C.ar      1 <0>        -0.1190
      3 C3          2.3773    1.4107   -0.0136 C.ar      1 <0>        -0.0988
      4 C4          2.3960    0.0285   -0.0217 C.ar      1 <0>        -0.1188
      5 C5          1.2084   -0.6789   -0.0136 C.ar      1 <0>        -0.1067
      6 C6          0.0021   -0.0041    0.0020 C.ar      1 <0>        -0.1220
      7 C7          3.7112   -0.7071   -0.0387 C.3       1 <0>         0.1429
      8 N1          4.1236   -0.9381   -1.4254 N.am      1 <0>        -0.6058
      9 C8          3.7187   -2.1522   -2.1106 C.3       1 <0>         0.0934
     10 C9          3.8027   -1.9828   -3.6523 C.3       1 <0>        -0.5713
     11 S1          5.0821   -0.6578   -3.7211 S.o2      1 <0>         2.3741
     12 O1          4.6838    0.3939   -4.5898 O.2       1 <0>        -0.8964
     13 O2          6.3903   -1.2101   -3.7742 O.2       1 <0>        -0.8965
     14 C10         4.8833   -0.0263   -2.0633 C.2       1 <0>         0.1015
     15 O3          5.3350    1.0034   -1.6086 O.2       1 <0>        -0.4274
     16 H1         -0.9592    1.9054    0.0170 H         1 <0>         0.1246
     17 H2          1.1563    3.1654    0.0081 H         1 <0>         0.1254
     18 H3          3.3051    1.9634   -0.0195 H         1 <0>         0.1262
     19 H4          1.2231   -1.7587   -0.0199 H         1 <0>         0.1229
     20 H5         -0.9258   -0.5567    0.0079 H         1 <0>         0.1250
     21 H6          4.4678   -0.1105    0.4708 H         1 <0>         0.0995
     22 H7          3.5989   -1.6640    0.4711 H         1 <0>         0.0981
     23 H8          4.3696   -2.9702   -1.8018 H         1 <0>         0.1041
     24 H9          2.6919   -2.3921   -1.8348 H         1 <0>         0.1122
     25 H10         2.8554   -1.6460   -4.0733 H         1 <0>         0.1577
     26 H11         4.1482   -2.8975   -4.1340 H         1 <0>         0.1661
@<TRIPOS>BOND
     1    1    6 ar
     2    1    2 ar
     3    1   16 1
     4    2    3 ar
     5    2   17 1
     6    3    4 ar
     7    3   18 1
     8    4    5 ar
     9    4    7 1
    10    5    6 ar
    11    5   19 1
    12    6   20 1
    13    7    8 1
    14    7   21 1
    15    7   22 1
    16    8   14 am
    17    8    9 1
    18    9   10 1
    19    9   23 1
    20    9   24 1
    21   10   11 1
    22   10   25 1
    23   10   26 1
    24   11   12 2
    25   11   13 2
    26   11   14 1
    27   14   15 2
@<TRIPOS>MOLECULE
ZINC13124254
   34    35     0     0     0
SMALL
USER_CHARGES

@<TRIPOS>ATOM
      1 C1         -0.0046    1.3692   -0.2721 C.ar      1 <0>        -0.1601
      2 C2          1.1739    2.0802   -0.2506 C.ar      1 <0>         0.0010
      3 C3          2.3865    1.4158   -0.0448 C.ar      1 <0>        -0.2162
      4 C4          2.3952    0.0246    0.1390 C.ar      1 <0>         0.1815
      5 C5          1.2038   -0.6790    0.1153 C.ar      1 <0>        -0.1802
      6 C6          0.0059   -0.0096   -0.0896 C.ar      1 <0>         0.2130
      7 O1         -1.1608   -0.7033   -0.1118 O.3       1 <0>        -0.4871
      8 O2          3.5678   -0.6286    0.3389 O.3       1 <0>        -0.4938
      9 C7          3.6490    2.1722   -0.0216 C.2       1 <0>         0.3637
     10 N1          4.7788    1.5442    0.0620 N.pl3     1 <0>        -0.5339
     11 C8          6.0305    2.2986    0.1640 C.3       1 <0>         0.0803
     12 C9          6.9335    1.9511   -1.0213 C.3       1 <0>        -0.1331
     13 C10         8.2406    2.7390   -0.9147 C.3       1 <0>        -0.1184
     14 C11         8.9504    2.3754    0.3910 C.3       1 <0>        -0.1314
     15 C12         8.0474    2.7229    1.5762 C.3       1 <0>        -0.1182
     16 C13         6.7402    1.9350    1.4697 C.3       1 <0>        -0.1325
     17 H1         -0.9411    1.8843   -0.4267 H         1 <0>         0.1594
     18 H2          1.1618    3.1507   -0.3930 H         1 <0>         0.1614
     19 H3          1.2064   -1.7497    0.2561 H         1 <0>         0.1595
     20 H4         -1.4141   -1.0190   -0.9900 H         1 <0>         0.4171
     21 H5          3.8229   -0.7032    1.2687 H         1 <0>         0.4147
     22 H6          3.6334    3.2508   -0.0743 H         1 <0>         0.2078
     23 H7          5.8128    3.3666    0.1540 H         1 <0>         0.1264
     24 H8          7.1512    0.8831   -1.0113 H         1 <0>         0.0825
     25 H9          6.4278    2.2102   -1.9515 H         1 <0>         0.0810
     26 H10         8.8840    2.4914   -1.7591 H         1 <0>         0.0833
     27 H11         8.0230    3.8070   -0.9247 H         1 <0>         0.0734
     28 H12         9.1681    1.3074    0.4010 H         1 <0>         0.0695
     29 H13         9.8816    2.9367    0.4669 H         1 <0>         0.0788
     30 H14         8.5530    2.4638    2.5064 H         1 <0>         0.0834
     31 H15         7.8297    3.7909    1.5662 H         1 <0>         0.0737
     32 H16         6.0969    2.1826    2.3141 H         1 <0>         0.0805
     33 H17         6.9579    0.8670    1.4797 H         1 <0>         0.0822
     34 H18         4.7962    0.5743    0.0570 H         1 <0>         0.4309
@<TRIPOS>BOND
     1    1    6 ar
     2    1    2 ar
     3    1   17 1
     4    2    3 ar
     5    2   18 1
     6    3    4 ar
     7    3    9 1
     8    4    5 ar
     9    4    8 1
    10    5    6 ar
    11    5   19 1
    12    6    7 1
    13    7   20 1
    14    8   21 1
    15    9   10 2
    16    9   22 1
    17   10   11 1
    18   10   34 1
    19   11   16 1
    20   11   12 1
    21   11   23 1
    22   12   13 1
    23   12   24 1
    24   12   25 1
    25   13   14 1
    26   13   26 1
    27   13   27 1
    28   14   15 1
    29   14   28 1
    30   14   29 1
    31   15   16 1
    32   15   30 1
    33   15   31 1
    34   16   32 1
    35   16   33 1
@<TRIPOS>MOLECULE
ZINC13124254
   33    34     0     0     0
SMALL
USER_CHARGES

@<TRIPOS>ATOM
      1 C1         -0.0187    1.5258    0.0104 C.3       1 <0>        -0.1259
      2 C2          1.4167    2.0553   -0.0004 C.3       1 <0>        -0.1165
      3 C3          2.1328    1.5619   -1.2592 C.3       1 <0>        -0.1301
      4 C4          2.1536    0.0321   -1.2676 C.3       1 <0>         0.1249
      5 C5          0.7182   -0.4975   -1.2568 C.3       1 <0>        -0.1357
      6 C6          0.0021   -0.0041    0.0020 C.3       1 <0>        -0.1184
      7 N1          2.8393   -0.4404   -2.4730 N.pl3     1 <0>        -0.6697
      8 C7          3.4222   -1.6499   -2.4832 C.2       1 <0>         0.2957
      9 C8          4.0753   -2.0999   -3.6312 C.2       1 <0>        -0.2772
     10 C9          4.1298   -1.2818   -4.7830 C.2       1 <0>        -0.0202
     11 C10         4.7652   -1.7213   -5.8964 C.2       1 <0>        -0.2507
     12 C11         5.3729   -2.9935   -5.9113 C.2       1 <0>         0.4071
     13 O1          5.9454   -3.3845   -6.9207 O.2       1 <0>        -0.5323
     14 C12         5.3243   -3.8128   -4.7733 C.2       1 <0>        -0.3853
     15 C13         4.6918   -3.3772   -3.6447 C.2       1 <0>         0.2559
     16 O2          4.6485   -4.1647   -2.5427 O.3       1 <0>        -0.4834
     17 H1         -0.5289    1.8773    0.9072 H         1 <0>         0.0688
     18 H2         -0.5459    1.8868   -0.8726 H         1 <0>         0.0651
     19 H3          1.4019    3.1452    0.0056 H         1 <0>         0.0728
     20 H4          1.9439    1.6943    0.8826 H         1 <0>         0.0680
     21 H5          1.6057    1.9230   -2.1423 H         1 <0>         0.0737
     22 H6          3.1554    1.9392   -1.2670 H         1 <0>         0.0750
     23 H7          2.6808   -0.3290   -0.3846 H         1 <0>         0.0971
     24 H8          0.1910   -0.1364   -2.1398 H         1 <0>         0.0725
     25 H9          0.7330   -1.5874   -1.2628 H         1 <0>         0.0709
     26 H10         0.5293   -0.3651    0.8851 H         1 <0>         0.0672
     27 H11        -1.0205   -0.3814    0.0098 H         1 <0>         0.0714
     28 H12         2.8723    0.1206   -3.2636 H         1 <0>         0.4100
     29 H13         3.3855   -2.2745   -1.6029 H         1 <0>         0.1689
     30 H14         3.6649   -0.3070   -4.7757 H         1 <0>         0.1160
     31 H15         4.8060   -1.0951   -6.7754 H         1 <0>         0.1262
     32 H16         5.7908   -4.7868   -4.7890 H         1 <0>         0.1282
     33 H17         5.0962   -5.0152   -2.6491 H         1 <0>         0.4098
@<TRIPOS>BOND
     1    1    6 1
     2    1    2 1
     3    1   17 1
     4    1   18 1
     5    2    3 1
     6    2   19 1
     7    2   20 1
     8    3    4 1
     9    3   21 1
    10    3   22 1
    11    4    5 1
    12    4    7 1
    13    4   23 1
    14    5    6 1
    15    5   24 1
    16    5   25 1
    17    6   26 1
    18    6   27 1
    19    7    8 1
    20    7   28 1
    21    8    9 2
    22    8   29 1
    23    9   15 1
    24    9   10 1
    25   10   11 2
    26   10   30 1
    27   11   12 1
    28   11   31 1
    29   12   13 2
    30   12   14 1
    31   14   15 2
    32   14   32 1
    33   15   16 1
    34   16   33 1
@<TRIPOS>MOLECULE
ZINC04616667
   34    36     0     0     0
SMALL
USER_CHARGES

@<TRIPOS>ATOM
      1 C1         -0.0168    1.3897    0.0097 C.ar      1 <0>        -0.0740
      2 C2          1.1701    2.0934    0.0021 C.ar      1 <0>        -0.1132
      3 C3          2.3782    1.4176   -0.0130 C.ar      1 <0>        -0.0304
      4 C4          2.4024    0.0334   -0.0212 C.ar      1 <0>        -0.1101
      5 C5          1.2211   -0.6797   -0.0142 C.ar      1 <0>        -0.0913
      6 C6          0.0021   -0.0041    0.0020 C.ar      1 <0>        -0.0188
      7 C7         -1.2707   -0.7656    0.0106 C.2       1 <0>         0.1312
      8 C8         -1.2566   -2.1323    0.0083 C.2       1 <0>        -0.2361
      9 S1         -3.0100   -2.4824    0.0211 S.3       1 <0>         0.0615
     10 C9         -3.5762   -0.7870    0.0282 C.2       1 <0>         0.3892
     11 N1         -2.4314   -0.1272    0.0260 N.2       1 <0>        -0.5609
     12 N2         -4.8705   -0.2956    0.0385 N.pl3     1 <0>        -0.5233
     13 N3         -5.9560   -1.1813    0.0455 N.2       1 <0>        -0.2069
     14 C10        -7.1699   -0.7205    0.0551 C.2       1 <0>         0.1134
     15 C11        -8.3118   -1.6522    0.0625 C.ar      1 <0>        -0.0784
     16 C12        -9.6191   -1.1606    0.0671 C.ar      1 <0>        -0.0437
     17 C13       -10.6838   -2.0385    0.0740 C.ar      1 <0>        -0.1068
     18 C14       -10.4610   -3.4056    0.0768 C.ar      1 <0>        -0.0553
     19 C15        -9.1714   -3.9036    0.0722 C.ar      1 <0>        -0.1439
     20 C16        -8.0918   -3.0363    0.0590 C.ar      1 <0>         0.1638
     21 O1         -6.8244   -3.5252    0.0483 O.3       1 <0>        -0.4730
     22 Br1       -12.4536   -1.3727    0.0803 Br        1 <0>        -0.0373
     23 Cl1         3.8679    2.3089   -0.0225 Cl        1 <0>        -0.0684
     24 H1         -0.9588    1.9178    0.0260 H         1 <0>         0.1409
     25 H2          1.1565    3.1733    0.0077 H         1 <0>         0.1358
     26 H3          3.3475   -0.4892   -0.0333 H         1 <0>         0.1379
     27 H4          1.2411   -1.7595   -0.0212 H         1 <0>         0.1359
     28 H5         -0.4180   -2.8129    0.0004 H         1 <0>         0.1994
     29 H6         -5.0257    0.6618    0.0409 H         1 <0>         0.4053
     30 H7         -7.3428    0.3456    0.0579 H         1 <0>         0.1308
     31 H8         -9.7965   -0.0952    0.0657 H         1 <0>         0.1442
     32 H9        -11.2994   -4.0863    0.0829 H         1 <0>         0.1418
     33 H10        -9.0056   -4.9708    0.0744 H         1 <0>         0.1450
     34 H11        -6.4505   -3.6679    0.9286 H         1 <0>         0.3958
@<TRIPOS>BOND
     1    1    6 ar
     2    1    2 ar
     3    1   24 1
     4    2    3 ar
     5    2   25 1
     6    3    4 ar
     7    3   23 1
     8    4    5 ar
     9    4   26 1
    10    5    6 ar
    11    5   27 1
    12    6    7 1
    13    7   11 1
    14    7    8 2
    15    8    9 1
    16    8   28 1
    17    9   10 1
    18   10   11 2
    19   10   12 1
    20   12   13 1
    21   12   29 1
    22   13   14 2
    23   14   15 1
    24   14   30 1
    25   15   20 ar
    26   15   16 ar
    27   16   17 ar
    28   16   31 1
    29   17   18 ar
    30   17   22 1
    31   18   19 ar
    32   18   32 1
    33   19   20 ar
    34   19   33 1
    35   20   21 1
    36   21   34 1
