@<TRIPOS>MOLECULE
ZINC00859479
   45    46     0     0     0
SMALL
USER_CHARGES

@<TRIPOS>ATOM
      1 C1          0.2082    1.3185   -0.2416 C.3       1 <0>        -0.1800
      2 C2          0.1252   -0.0493    0.4390 C.3       1 <0>         0.1061
      3 N1         -1.2705   -0.4930    0.4749 N.pl3     1 <0>        -0.9881
      4 C3         -1.9920   -0.7433   -0.7753 C.3       1 <0>         0.1166
      5 C4         -1.7047   -2.1681   -1.2534 C.3       1 <0>        -0.1731
      6 S1         -2.0327   -0.7115    1.9288 S.o2      1 <0>         2.6828
      7 O1         -2.9821   -1.7513    1.7373 O.2       1 <0>        -0.9448
      8 O2         -1.0125   -0.7836    2.9153 O.2       1 <0>        -0.9377
      9 C5         -2.9517    0.7547    2.2608 C.ar      1 <0>        -0.6691
     10 C6         -4.3304    0.7233    2.2357 C.ar      1 <0>         0.0405
     11 C7         -5.0571    1.8858    2.4995 C.ar      1 <0>        -0.1261
     12 C8         -4.3822    3.0740    2.7872 C.ar      1 <0>        -0.0184
     13 C9         -3.0037    3.0925    2.8092 C.ar      1 <0>        -0.1120
     14 C10        -2.2885    1.9347    2.5519 C.ar      1 <0>         0.0125
     15 Br1        -0.3982    1.9672    2.5918 Br        1 <0>        -0.0135
     16 C11        -6.5341    1.8591    2.4738 C.2       1 <0>         0.5494
     17 O3         -7.1191    0.8235    2.2226 O.2       1 <0>        -0.5267
     18 N2         -7.2330    2.9830    2.7288 N.am      1 <0>        -0.6307
     19 C12        -8.6200    2.9344    2.8166 C.ar      1 <0>         0.1706
     20 C13        -9.2484    1.8041    3.3231 C.ar      1 <0>        -0.1403
     21 C14       -10.6248    1.7581    3.4093 C.ar      1 <0>        -0.1078
     22 C15       -11.3912    2.8357    2.9929 C.ar      1 <0>        -0.1531
     23 C16       -10.7871    3.9655    2.4879 C.ar      1 <0>        -0.0678
     24 C17        -9.3927    4.0305    2.3991 C.ar      1 <0>        -0.1628
     25 C18        -8.7400    5.2366    1.8663 C.2       1 <0>         0.5268
     26 O4         -9.4060    6.2309    1.6118 O.co2     1 <0>        -0.6770
     27 O5         -7.5312    5.2453    1.6777 O.co2     1 <0>        -0.6917
     28 H1          1.2238    1.7052   -0.1576 H         1 <0>         0.0668
     29 H2         -0.0560    1.2172   -1.2943 H         1 <0>         0.0593
     30 H3         -0.4841    2.0076    0.2420 H         1 <0>         0.0679
     31 H4          0.7214   -0.7702   -0.1204 H         1 <0>         0.0762
     32 H5          0.5084    0.0274    1.4565 H         1 <0>         0.0993
     33 H6         -3.0624   -0.6255   -0.6069 H         1 <0>         0.0809
     34 H7         -1.6629   -0.0325   -1.5333 H         1 <0>         0.0841
     35 H8         -0.6343   -2.2859   -1.4217 H         1 <0>         0.0587
     36 H9         -2.0338   -2.8789   -0.4954 H         1 <0>         0.0658
     37 H10        -2.2415   -2.3543   -2.1836 H         1 <0>         0.0688
     38 H11        -4.8466   -0.1986    2.0122 H         1 <0>         0.1653
     39 H12        -4.9389    3.9766    2.9917 H         1 <0>         0.1548
     40 H13        -2.4806    4.0110    3.0313 H         1 <0>         0.1514
     41 H14        -6.7684    3.8257    2.8511 H         1 <0>         0.4241
     42 H15        -8.6591    0.9599    3.6494 H         1 <0>         0.1287
     43 H16       -11.1084    0.8765    3.8036 H         1 <0>         0.1173
     44 H17       -12.4678    2.7887    3.0646 H         1 <0>         0.1161
     45 H18       -11.3891    4.8020    2.1646 H         1 <0>         0.1297
@<TRIPOS>BOND
     1    1    2 1
     2    1   28 1
     3    1   29 1
     4    1   30 1
     5    2    3 1
     6    2   31 1
     7    2   32 1
     8    3    4 1
     9    3    6 1
    10    4    5 1
    11    4   33 1
    12    4   34 1
    13    5   35 1
    14    5   36 1
    15    5   37 1
    16    6    7 2
    17    6    8 2
    18    6    9 1
    19    9   14 ar
    20    9   10 ar
    21   10   11 ar
    22   10   38 1
    23   11   12 ar
    24   11   16 1
    25   12   13 ar
    26   12   39 1
    27   13   14 ar
    28   13   40 1
    29   14   15 1
    30   16   17 2
    31   16   18 am
    32   18   19 1
    33   18   41 1
    34   19   24 ar
    35   19   20 ar
    36   20   21 ar
    37   20   42 1
    38   21   22 ar
    39   21   43 1
    40   22   23 ar
    41   22   44 1
    42   23   24 ar
    43   23   45 1
    44   24   25 1
    45   25   26 2
    46   25   27 1
