@<TRIPOS>MOLECULE
ZINC00119305
   32    33     0     0     0
SMALL
USER_CHARGES

@<TRIPOS>ATOM
      1 C1         -0.0046    1.4124   -0.0051 C.3       1 <0>         0.0367
      2 O1          0.0099   -0.0164   -0.0169 O.3       1 <0>        -0.3519
      3 C2         -1.1869   -0.6418   -0.0024 C.2       1 <0>         0.5600
      4 O2         -2.2146    0.0108    0.0198 O.2       1 <0>        -0.5065
      5 C3         -1.2465   -2.0520   -0.0128 C.2       1 <0>        -0.3069
      6 C4         -2.3700   -2.8831   -0.0068 C.2       1 <0>         0.2583
      7 C5         -2.1756   -4.2408   -0.0201 C.2       1 <0>        -0.1806
      8 C6         -0.8772   -4.7280   -0.0389 C.2       1 <0>        -0.0213
      9 S1          0.0938   -3.2305   -0.0449 S.3       1 <0>         0.1718
     10 C7         -0.4174   -6.1241   -0.0548 C.2       1 <0>        -0.0973
     11 C8          0.8751   -6.6164   -0.0679 C.2       1 <0>        -0.1283
     12 C9          1.0557   -7.9799   -0.0812 C.2       1 <0>        -0.1593
     13 C10        -0.0317   -8.7946   -0.0812 C.2       1 <0>        -0.1725
     14 S2         -1.3815   -7.6269   -0.0545 S.3       1 <0>         0.1177
     15 N1         -3.6558   -2.3459    0.0126 N.am      1 <0>        -0.6498
     16 C11        -4.6806   -3.0683    0.5070 C.2       1 <0>         0.5513
     17 O3         -4.4690   -4.1460    1.0273 O.2       1 <0>        -0.5221
     18 C12        -6.0615   -2.5498    0.4165 C.2       1 <0>        -0.2199
     19 C13        -7.0829   -3.2698    0.9092 C.2       1 <0>        -0.0782
     20 C14        -8.4601   -2.7528    0.8190 C.2       1 <0>         0.5034
     21 O4         -8.6730   -1.6683    0.2955 O.co2     1 <0>        -0.6778
     22 O5         -9.3899   -3.4082    1.2675 O.co2     1 <0>        -0.6789
     23 H1          1.0192    1.7863   -0.0189 H         1 <0>         0.1017
     24 H2         -0.5366    1.7777   -0.8836 H         1 <0>         0.0623
     25 H3         -0.5074    1.7633    0.8961 H         1 <0>         0.0622
     26 H4         -3.0174   -4.9174   -0.0157 H         1 <0>         0.1733
     27 H5          1.7221   -5.9464   -0.0679 H         1 <0>         0.1389
     28 H6          2.0512   -8.3984   -0.0920 H         1 <0>         0.1393
     29 H7         -0.0696   -9.8739   -0.0909 H         1 <0>         0.1907
     30 H8         -3.8131   -1.4520   -0.3296 H         1 <0>         0.4286
     31 H9         -6.2495   -1.5920   -0.0458 H         1 <0>         0.1396
     32 H10        -6.8949   -4.2276    1.3716 H         1 <0>         0.1153
@<TRIPOS>BOND
     1    1    2 1
     2    1   23 1
     3    1   24 1
     4    1   25 1
     5    2    3 1
     6    3    4 2
     7    3    5 1
     8    5    9 1
     9    5    6 2
    10    6    7 1
    11    6   15 1
    12    7    8 2
    13    7   26 1
    14    8    9 1
    15    8   10 1
    16   10   14 1
    17   10   11 2
    18   11   12 1
    19   11   27 1
    20   12   13 2
    21   12   28 1
    22   13   14 1
    23   13   29 1
    24   15   16 am
    25   15   30 1
    26   16   17 2
    27   16   18 1
    28   18   19 2
    29   18   31 1
    30   19   20 1
    31   19   32 1
    32   20   21 2
    33   20   22 1
@<TRIPOS>MOLECULE
ZINC00001655
   29    30     0     0     0
SMALL
USER_CHARGES

@<TRIPOS>ATOM
      1 C1          0.6464    1.4590   -0.0291 C.3       1 <0>        -0.1134
      2 C2          0.4033   -0.0283   -0.0363 C.ar      1 <0>        -0.0408
      3 C3          0.2472   -0.6967   -1.2370 C.ar      1 <0>        -0.1657
      4 C4          0.0235   -2.0611   -1.2487 C.ar      1 <0>        -0.0679
      5 C5         -0.0443   -2.7623   -0.0593 C.ar      1 <0>        -0.1035
      6 C6          0.1125   -2.0943    1.1490 C.ar      1 <0>         0.2889
      7 C7          0.3424   -0.7234    1.1565 C.ar      1 <0>        -0.0658
      8 Cl1         0.5456    0.1155    2.6627 Cl        1 <0>        -0.0657
      9 N1          0.0441   -2.8002    2.3544 N.pl3     1 <0>        -0.6647
     10 C8          0.2738   -4.1685    2.3711 C.ar      1 <0>         0.1811
     11 C9         -0.7785   -5.0514    2.5833 C.ar      1 <0>        -0.1380
     12 C10        -0.5475   -6.4110    2.5989 C.ar      1 <0>        -0.1237
     13 C11         0.7321   -6.9091    2.4043 C.ar      1 <0>        -0.1445
     14 C12         1.7883   -6.0519    2.1929 C.ar      1 <0>        -0.0789
     15 C13         1.5710   -4.6698    2.1677 C.ar      1 <0>        -0.1332
     16 C14         2.6930   -3.7482    1.9364 C.2       1 <0>         0.5171
     17 O1          3.7985   -4.1892    1.6527 O.co2     1 <0>        -0.6940
     18 O2          2.5212   -2.5401    2.0277 O.co2     1 <0>        -0.6627
     19 Cl2        -0.3257   -4.4753   -0.0751 Cl        1 <0>        -0.0573
     20 H1          1.7183    1.6522   -0.0719 H         1 <0>         0.0746
     21 H2          0.1609    1.9107   -0.8942 H         1 <0>         0.0660
     22 H3          0.2358    1.8898    0.8841 H         1 <0>         0.0698
     23 H4          0.2997   -0.1515   -2.1678 H         1 <0>         0.1283
     24 H5         -0.0986   -2.5795   -2.1882 H         1 <0>         0.1285
     25 H6         -0.1640   -2.3333    3.1788 H         1 <0>         0.4051
     26 H7         -1.7781   -4.6724    2.7365 H         1 <0>         0.1137
     27 H8         -1.3688   -7.0926    2.7642 H         1 <0>         0.1117
     28 H9          0.9010   -7.9758    2.4190 H         1 <0>         0.1112
     29 H10         2.7826   -6.4458    2.0424 H         1 <0>         0.1239
@<TRIPOS>BOND
     1    1    2 1
     2    1   20 1
     3    1   21 1
     4    1   22 1
     5    2    7 ar
     6    2    3 ar
     7    3    4 ar
     8    3   23 1
     9    4    5 ar
    10    4   24 1
    11    5    6 ar
    12    5   19 1
    13    6    7 ar
    14    6    9 1
    15    7    8 1
    16    9   10 1
    17    9   25 1
    18   10   15 ar
    19   10   11 ar
    20   11   12 ar
    21   11   26 1
    22   12   13 ar
    23   12   27 1
    24   13   14 ar
    25   13   28 1
    26   14   15 ar
    27   14   29 1
    28   15   16 1
    29   16   17 2
    30   16   18 1
@<TRIPOS>MOLECULE
ZINC06072466
   49    48     0     0     0
SMALL
USER_CHARGES
palmitic acid
@<TRIPOS>ATOM
      1 H1          6.8090   11.4123   -0.8917 H         1 <0>         0.0599
      2 C1          7.3169   11.0245   -0.0086 C.3       1 <0>        -0.1203
      3 C2          8.7780   11.4783   -0.0201 C.3       1 <0>        -0.1206
      4 C3          8.8373   13.0071   -0.0125 C.3       1 <0>        -0.1205
      5 C4         10.2985   13.4608   -0.0240 C.3       1 <0>        -0.1212
      6 C5         10.3578   14.9897   -0.0163 C.3       1 <0>        -0.1212
      7 C6         11.8189   15.4434   -0.0279 C.3       1 <0>        -0.1262
      8 C7         11.8783   16.9722   -0.0202 C.3       1 <0>        -0.1538
      9 C8          7.2575    9.4957   -0.0162 C.3       1 <0>        -0.1206
     10 H2          7.7653    9.1080    0.8669 H         1 <0>         0.0601
     11 C9          5.7964    9.0420   -0.0047 C.3       1 <0>        -0.1200
     12 C10         5.7370    7.5131   -0.0124 C.3       1 <0>        -0.1205
     13 C11         4.2759    7.0594   -0.0009 C.3       1 <0>        -0.1193
     14 C12         4.2166    5.5306   -0.0085 C.3       1 <0>        -0.1194
     15 C13         2.7554    5.0768    0.0030 C.3       1 <0>        -0.1198
     16 C14         2.6961    3.5480   -0.0046 C.3       1 <0>        -0.0989
     17 C15         1.2350    3.0943    0.0069 C.3       1 <0>        -0.1583
     18 C16         1.1765    1.5884   -0.0006 C.2       1 <0>         0.4569
     19 O1          2.1986    0.9442   -0.0139 O.co2     1 <0>        -0.6426
     20 H3          6.8260   11.4027    0.8882 H         1 <0>         0.0599
     21 H4          9.2858   11.0905    0.8630 H         1 <0>         0.0602
     22 H5          9.2688   11.1001   -0.9169 H         1 <0>         0.0602
     23 H6          8.3295   13.3948   -0.8956 H         1 <0>         0.0602
     24 H7          8.3465   13.3853    0.8843 H         1 <0>         0.0601
     25 H8         10.8063   13.0731    0.8591 H         1 <0>         0.0604
     26 H9         10.7893   13.0826   -0.9207 H         1 <0>         0.0604
     27 H10         9.8500   15.3774   -0.8994 H         1 <0>         0.0604
     28 H11         9.8670   15.3678    0.8804 H         1 <0>         0.0604
     29 H12        12.3268   15.0556    0.8553 H         1 <0>         0.0602
     30 H13        12.3098   15.0652   -0.9246 H         1 <0>         0.0602
     31 H14        11.3704   17.3600   -0.9033 H         1 <0>         0.0531
     32 H15        11.3874   17.3504    0.8765 H         1 <0>         0.0531
     33 H16        12.9192   17.2955   -0.0284 H         1 <0>         0.0526
     34 H17         7.7483    9.1175   -0.9130 H         1 <0>         0.0601
     35 H18         5.2886    9.4297   -0.8878 H         1 <0>         0.0595
     36 H19         5.3056    9.4201    0.8920 H         1 <0>         0.0595
     37 H20         6.2449    7.1254    0.8707 H         1 <0>         0.0599
     38 H21         6.2279    7.1350   -0.9091 H         1 <0>         0.0599
     39 H22         3.7681    7.4471   -0.8840 H         1 <0>         0.0587
     40 H23         3.7851    7.4376    0.8959 H         1 <0>         0.0587
     41 H24         4.7244    5.1428    0.8746 H         1 <0>         0.0595
     42 H25         4.7074    5.1524   -0.9053 H         1 <0>         0.0595
     43 H26         2.2476    5.4646   -0.8801 H         1 <0>         0.0553
     44 H27         2.2646    5.4550    0.8998 H         1 <0>         0.0553
     45 H28         3.2039    3.1603    0.8785 H         1 <0>         0.0583
     46 H29         3.1869    3.1698   -0.9014 H         1 <0>         0.0583
     47 H30         0.7272    3.4820   -0.8762 H         1 <0>         0.0612
     48 H31         0.7441    3.4725    0.9036 H         1 <0>         0.0612
     49 O2         -0.0110    0.9628    0.0073 O.co2     1 <0>        -0.7801
@<TRIPOS>BOND
     1    1    2 1
     2    2    3 1
     3    2    9 1
     4    2   20 1
     5    3    4 1
     6    3   21 1
     7    3   22 1
     8    4    5 1
     9    4   23 1
    10    4   24 1
    11    5    6 1
    12    5   25 1
    13    5   26 1
    14    6    7 1
    15    6   27 1
    16    6   28 1
    17    7    8 1
    18    7   29 1
    19    7   30 1
    20    8   31 1
    21    8   32 1
    22    8   33 1
    23    9   10 1
    24    9   11 1
    25    9   34 1
    26   11   12 1
    27   11   35 1
    28   11   36 1
    29   12   13 1
    30   12   37 1
    31   12   38 1
    32   13   14 1
    33   13   39 1
    34   13   40 1
    35   14   15 1
    36   14   41 1
    37   14   42 1
    38   15   16 1
    39   15   43 1
    40   15   44 1
    41   16   17 1
    42   16   45 1
    43   16   46 1
    44   17   18 1
    45   17   47 1
    46   17   48 1
    47   18   19 2
    48   18   49 1
@<TRIPOS>MOLECULE
ZINC00001984
   36    37     0     0     0
SMALL
USER_CHARGES
2-[4-(4-chlorobenzoyl)phenoxy]-2-methyl-propanoic acid
@<TRIPOS>ATOM
      1 C1          1.1776    5.7094   -0.8744 C.3       1 <0>        -0.1146
      2 C2          1.6106    4.2440   -0.7952 C.3       1 <0>         0.0548
      3 C3          2.4400    4.0251    0.4717 C.3       1 <0>        -0.1744
      4 C4          2.4406    3.8993   -2.0048 C.2       1 <0>         0.4475
      5 O1          2.0782    3.0263   -2.7573 O.co2     1 <0>        -0.6128
      6 O2          0.4532    3.4068   -0.7573 O.3       1 <0>        -0.2969
      7 C5          0.6631    2.0696   -0.6608 C.ar      1 <0>         0.1975
      8 C6         -0.4158    1.2091   -0.4913 C.ar      1 <0>        -0.1779
      9 C7         -0.2075   -0.1481   -0.3934 C.ar      1 <0>        -0.0556
     10 C8          1.0915   -0.6610   -0.4646 C.ar      1 <0>        -0.2179
     11 C9          2.1737    0.2082   -0.6351 C.ar      1 <0>        -0.0343
     12 C10         1.9563    1.5640   -0.7322 C.ar      1 <0>        -0.1759
     13 C11         1.3197   -2.1144   -0.3596 C.2       1 <0>         0.4455
     14 O3          2.1902   -2.6427   -1.0241 O.2       1 <0>        -0.4523
     15 C12         0.4905   -2.9282    0.5528 C.ar      1 <0>        -0.1486
     16 C13        -0.3924   -2.3074    1.4397 C.ar      1 <0>        -0.0644
     17 C14        -1.1673   -3.0727    2.2850 C.ar      1 <0>        -0.1234
     18 C15        -1.0637   -4.4540    2.2639 C.ar      1 <0>        -0.0116
     19 C16        -0.1858   -5.0754    1.3907 C.ar      1 <0>        -0.1244
     20 C17         0.5904   -4.3215    0.5363 C.ar      1 <0>        -0.0527
     21 Cl1        -2.0385   -5.4104    3.3357 Cl        1 <0>        -0.0685
     22 H1          0.5057    5.9350   -0.0464 H         1 <0>         0.0551
     23 H2          2.0563    6.3516   -0.8147 H         1 <0>         0.0823
     24 H3          0.6624    5.8854   -1.8187 H         1 <0>         0.0583
     25 H4          2.7982    2.9960    0.4982 H         1 <0>         0.0697
     26 H5          3.2911    4.7061    0.4709 H         1 <0>         0.0795
     27 H6          1.8217    4.2174    1.3485 H         1 <0>         0.0557
     28 H7         -1.4191    1.6056   -0.4410 H         1 <0>         0.1306
     29 H8         -1.0461   -0.8158   -0.2613 H         1 <0>         0.1303
     30 H9          3.1786   -0.1837   -0.6903 H         1 <0>         0.1252
     31 H10         2.7915    2.2359   -0.8643 H         1 <0>         0.1497
     32 H11        -0.4711   -1.2304    1.4600 H         1 <0>         0.1523
     33 H12        -1.8538   -2.5941    2.9677 H         1 <0>         0.1400
     34 H13        -0.1095   -6.1526    1.3789 H         1 <0>         0.1384
     35 H14         1.2739   -4.8071   -0.1444 H         1 <0>         0.1433
     36 O4          3.5825    4.5623   -2.2463 O.co2     1 <0>        -0.7493
@<TRIPOS>BOND
     1    1    2 1
     2    1   22 1
     3    1   23 1
     4    1   24 1
     5    2    3 1
     6    2    4 1
     7    2    6 1
     8    3   25 1
     9    3   26 1
    10    3   27 1
    11    4    5 2
    12    4   36 1
    13    6    7 1
    14    7   12 ar
    15    7    8 ar
    16    8    9 ar
    17    8   28 1
    18    9   10 ar
    19    9   29 1
    20   10   11 ar
    21   10   13 1
    22   11   12 ar
    23   11   30 1
    24   12   31 1
    25   13   14 2
    26   13   15 1
    27   15   20 ar
    28   15   16 ar
    29   16   17 ar
    30   16   32 1
    31   17   18 ar
    32   17   33 1
    33   18   19 ar
    34   18   21 1
    35   19   20 ar
    36   19   34 1
    37   20   35 1
