@<TRIPOS>MOLECULE
ZINC04428529
   53    56     0     0     0
SMALL
USER_CHARGES

@<TRIPOS>ATOM
      1 C1          0.4282    0.7651    1.2384 C.3       1 <0>        -0.2080
      2 C2          0.0050   -0.0027    0.0127 C.2       1 <0>         0.3647
      3 O1          0.7040   -0.0010   -0.9721 O.2       1 <0>        -0.4542
      4 C3         -1.2905   -0.7727    0.0158 C.3       1 <0>        -0.1325
      5 H1         -2.0415   -0.2446    0.6034 H         1 <0>         0.0972
      6 C4         -1.7935   -0.9827   -1.4341 C.3       1 <0>        -0.1186
      7 C5         -1.9305   -2.5169   -1.6323 C.3       1 <0>        -0.1151
      8 C6         -2.1068   -3.0336   -0.2000 C.3       1 <0>        -0.0796
      9 H2         -3.1156   -2.8264    0.1569 H         1 <0>         0.0777
     10 C7         -1.0708   -2.1742    0.5759 C.3       1 <0>        -0.0487
     11 C8         -1.3489   -2.3630    2.0549 C.3       1 <0>        -0.1047
     12 C9         -1.0643   -3.8367    2.3850 C.3       1 <0>        -0.1222
     13 C10        -1.9046   -4.7802    1.5293 C.3       1 <0>        -0.0680
     14 H3         -2.9551   -4.6575    1.7928 H         1 <0>         0.0704
     15 C11        -1.7585   -4.4942    0.0214 C.3       1 <0>        -0.0776
     16 H4         -0.7305   -4.6831   -0.2877 H         1 <0>         0.0863
     17 C12        -2.7266   -5.3822   -0.7660 C.3       1 <0>        -0.1118
     18 C13        -2.3186   -6.8466   -0.5915 C.3       1 <0>        -0.0977
     19 C14        -2.2642   -7.1658    0.8913 C.2       1 <0>        -0.0206
     20 C15        -2.8820   -8.2703    1.3099 C.2       1 <0>        -0.2434
     21 H5         -3.4070   -8.8958    0.6032 H         1 <0>         0.1337
     22 C16        -2.8495   -8.6362    2.7300 C.2       1 <0>         0.3882
     23 O2         -3.6756   -9.3796    3.2168 O.2       1 <0>        -0.4580
     24 C17        -1.7290   -8.0371    3.5574 C.3       1 <0>        -0.1668
     25 H6         -1.9153   -8.2141    4.6167 H         1 <0>         0.0925
     26 H7         -0.7768   -8.4825    3.2693 H         1 <0>         0.0997
     27 C18        -1.7074   -6.5351    3.2776 C.3       1 <0>        -0.1069
     28 C19        -1.4839   -6.2270    1.8163 C.3       1 <0>        -0.0241
     29 C20         0.0121   -6.3503    1.5204 C.3       1 <0>        -0.1492
     30 C21         0.3461   -2.6481    0.2465 C.3       1 <0>        -0.1572
     31 H8          1.3837    1.2542    1.0489 H         1 <0>         0.0809
     32 H9         -0.3247    1.5173    1.4738 H         1 <0>         0.0918
     33 H10         0.5316    0.0791    2.0791 H         1 <0>         0.0918
     34 H11        -2.7617   -0.5002   -1.5678 H         1 <0>         0.0675
     35 H12        -1.0717   -0.5769   -2.1430 H         1 <0>         0.0790
     36 H13        -2.8065   -2.7509   -2.2372 H         1 <0>         0.0676
     37 H14        -1.0279   -2.9297   -2.0829 H         1 <0>         0.0698
     38 H15        -0.6944   -1.7180    2.6411 H         1 <0>         0.0661
     39 H16        -2.3917   -2.1291    2.2695 H         1 <0>         0.0682
     40 H17        -0.0085   -4.0427    2.2091 H         1 <0>         0.0749
     41 H18        -1.2894   -4.0152    3.4365 H         1 <0>         0.0667
     42 H19        -3.7398   -5.2390   -0.3905 H         1 <0>         0.0659
     43 H20        -2.6874   -5.1165   -1.8224 H         1 <0>         0.0725
     44 H21        -3.0518   -7.4905   -1.0771 H         1 <0>         0.0771
     45 H22        -1.3365   -7.0077   -1.0361 H         1 <0>         0.0840
     46 H23        -2.6504   -6.0986    3.6068 H         1 <0>         0.0701
     47 H24        -0.8915   -6.0806    3.8396 H         1 <0>         0.0811
     48 H25         0.5667   -5.6628    2.1591 H         1 <0>         0.0702
     49 H26         0.3383   -7.3717    1.7166 H         1 <0>         0.0587
     50 H27         0.1972   -6.1043    0.4748 H         1 <0>         0.0638
     51 H28         1.0689   -2.0310    0.7800 H         1 <0>         0.0510
     52 H29         0.4614   -3.6883    0.5512 H         1 <0>         0.0714
     53 H30         0.5175   -2.5628   -0.8266 H         1 <0>         0.0644
@<TRIPOS>BOND
     1    1    2 1
     2    1   31 1
     3    1   32 1
     4    1   33 1
     5    2    3 2
     6    2    4 1
     7    4    5 1
     8    4   10 1
     9    4    6 1
    10    6    7 1
    11    6   34 1
    12    6   35 1
    13    7    8 1
    14    7   36 1
    15    7   37 1
    16    8    9 1
    17    8   15 1
    18    8   10 1
    19   10   11 1
    20   10   30 1
    21   11   12 1
    22   11   38 1
    23   11   39 1
    24   12   13 1
    25   12   40 1
    26   12   41 1
    27   13   14 1
    28   13   28 1
    29   13   15 1
    30   15   16 1
    31   15   17 1
    32   17   18 1
    33   17   42 1
    34   17   43 1
    35   18   19 1
    36   18   44 1
    37   18   45 1
    38   19   28 1
    39   19   20 2
    40   20   21 1
    41   20   22 1
    42   22   23 2
    43   22   24 1
    44   24   25 1
    45   24   26 1
    46   24   27 1
    47   27   28 1
    48   27   46 1
    49   27   47 1
    50   28   29 1
    51   29   48 1
    52   29   49 1
    53   29   50 1
    54   30   51 1
    55   30   52 1
    56   30   53 1
@<TRIPOS>MOLECULE
ZINC00006427
   33    35     0     0     0
SMALL
USER_CHARGES

@<TRIPOS>ATOM
      1 C1          0.5645    1.4220    0.1928 C.3       1 <0>         0.0583
      2 N1          0.3235   -0.0204    0.1049 N.am      1 <0>        -0.5555
      3 C2         -0.9927   -0.4531    0.1626 C.ar      1 <0>         0.1844
      4 C3         -1.9457    0.2992   -0.5272 C.ar      1 <0>        -0.1319
      5 C4         -3.2733   -0.0670   -0.5149 C.ar      1 <0>        -0.0651
      6 C5         -3.6777   -1.1917    0.1872 C.ar      1 <0>        -0.0514
      7 C6         -2.7519   -1.9453    0.8726 C.ar      1 <0>        -0.0516
      8 C7         -1.3954   -1.5853    0.8674 C.ar      1 <0>        -0.1200
      9 C8         -0.4607   -2.4388    1.6175 C.2       1 <0>         0.2679
     10 N2          0.7150   -2.7715    1.2168 N.2       1 <0>        -0.4888
     11 C9          1.2537   -2.3110   -0.0624 C.3       1 <0>         0.0242
     12 C10         1.3847   -0.8126   -0.0296 C.2       1 <0>         0.5094
     13 O1          2.4861   -0.3137   -0.1239 O.2       1 <0>        -0.5107
     14 C11        -0.9076   -2.9538    2.9327 C.ar      1 <0>        -0.0709
     15 C12        -0.3330   -4.1079    3.4647 C.ar      1 <0>        -0.0682
     16 C13        -0.7535   -4.5827    4.6901 C.ar      1 <0>        -0.1263
     17 C14        -1.7429   -3.9163    5.3909 C.ar      1 <0>        -0.0986
     18 C15        -2.3166   -2.7710    4.8684 C.ar      1 <0>        -0.1241
     19 C16        -1.9005   -2.2832    3.6466 C.ar      1 <0>        -0.0904
     20 Cl1        -5.3522   -1.6496    0.2025 Cl        1 <0>        -0.0531
     21 H1          1.6353    1.6160    0.1296 H         1 <0>         0.1025
     22 H2          0.0549    1.9262   -0.6283 H         1 <0>         0.0740
     23 H3          0.1827    1.7970    1.1424 H         1 <0>         0.0729
     24 H4         -1.6385    1.1774   -1.0758 H         1 <0>         0.1452
     25 H5         -4.0004    0.5233   -1.0528 H         1 <0>         0.1468
     26 H6         -3.0719   -2.8206    1.4183 H         1 <0>         0.1484
     27 H7          2.2331   -2.7595   -0.2287 H         1 <0>         0.1343
     28 H8          0.5774   -2.5976   -0.8678 H         1 <0>         0.0942
     29 H9          0.4392   -4.6292    2.9184 H         1 <0>         0.1347
     30 H10        -0.3096   -5.4765    5.1029 H         1 <0>         0.1285
     31 H11        -2.0690   -4.2920    6.3495 H         1 <0>         0.1264
     32 H12        -3.0889   -2.2553    5.4199 H         1 <0>         0.1284
     33 H13        -2.3460   -1.3865    3.2417 H         1 <0>         0.1261
@<TRIPOS>BOND
     1    1    2 1
     2    1   21 1
     3    1   22 1
     4    1   23 1
     5    2   12 am
     6    2    3 1
     7    3    8 ar
     8    3    4 ar
     9    4    5 ar
    10    4   24 1
    11    5    6 ar
    12    5   25 1
    13    6    7 ar
    14    6   20 1
    15    7    8 ar
    16    7   26 1
    17    8    9 1
    18    9   10 2
    19    9   14 1
    20   10   11 1
    21   11   12 1
    22   11   27 1
    23   11   28 1
    24   12   13 2
    25   14   19 ar
    26   14   15 ar
    27   15   16 ar
    28   15   29 1
    29   16   17 ar
    30   16   30 1
    31   17   18 ar
    32   17   31 1
    33   18   19 ar
    34   18   32 1
    35   19   33 1
@<TRIPOS>MOLECULE
ZINC03833821
   54    57     0     0     0
SMALL
NO_CHARGES

@<TRIPOS>ATOM
      1 C1         -0.7520    1.6588   -0.1667 C.3       1 <0>        -0.1663
      2 C2         -0.9770    0.1457   -0.1413 C.3       1 <0>        -0.0388
      3 C3         -2.2972   -0.1663    0.5373 C.3       1 <0>        -0.1261
      4 C4         -2.2689    0.5080    1.9180 C.3       1 <0>         0.1082
      5 H1         -3.1924    0.2731    2.4472 H         1 <0>         0.0604
      6 C5         -1.0827    0.0350    2.7533 C.3       1 <0>        -0.0524
      7 H2         -1.2058   -1.0229    2.9849 H         1 <0>         0.0866
      8 C6          0.2486    0.2394    2.0127 C.3       1 <0>        -0.0814
      9 H3          0.4066    1.3018    1.8270 H         1 <0>         0.1028
     10 C7          0.1391   -0.5386    0.6930 C.3       1 <0>        -0.0780
     11 H4         -0.1092   -1.5841    0.8759 H         1 <0>         0.0846
     12 C8          1.3459   -0.4177   -0.2439 C.3       1 <0>        -0.1120
     13 C9          0.7399   -0.7462   -1.6357 C.3       1 <0>        -0.1478
     14 C10        -0.7736   -0.4308   -1.5386 C.3       1 <0>         0.1037
     15 C11        -1.1639    0.5826   -2.5834 C.2       1 <0>         0.3356
     16 O1         -0.3311    1.3258   -3.0444 O.2       1 <0>        -0.4139
     17 C12        -2.5933    0.6686   -3.0529 C.3       1 <0>         0.0292
     18 O2         -2.7101    1.6977   -4.0376 O.3       1 <0>        -0.5558
     19 O3         -1.5397   -1.6267   -1.6970 O.3       1 <0>        -0.5395
     20 C13         1.3968   -0.3125    2.8596 C.3       1 <0>        -0.1141
     21 C14         1.5075    0.4888    4.1606 C.3       1 <0>        -0.0960
     22 C15         0.1584    0.4521    4.8538 C.2       1 <0>        -0.0243
     23 C16         0.1019    0.0895    6.1279 C.2       1 <0>        -0.2310
     24 C17        -1.1894    0.0201    6.8291 C.2       1 <0>         0.4075
     25 O4         -1.2417   -0.2722    8.0092 O.2       1 <0>        -0.4610
     26 C18        -2.4174    0.3120    6.0704 C.2       1 <0>        -0.2221
     27 C19        -2.3362    0.6803    4.8015 C.2       1 <0>        -0.0651
     28 C20        -1.0322    0.8343    4.0586 C.3       1 <0>        -0.0103
     29 C21        -0.8801    2.3122    3.6932 C.3       1 <0>        -0.1338
     30 O5         -2.1793    1.9234    1.7436 O.3       1 <0>        -0.5459
     31 H5          0.1094    1.8876   -0.7941 H         1 <0>         0.0526
     32 H6         -1.6367    2.1510   -0.5706 H         1 <0>         0.0495
     33 H7         -0.5684    2.0159    0.8467 H         1 <0>         0.1148
     34 H8         -3.1217    0.2324   -0.0537 H         1 <0>         0.0675
     35 H9         -2.4094   -1.2444    0.6529 H         1 <0>         0.0847
     36 H10         1.7470    0.5957   -0.2274 H         1 <0>         0.0739
     37 H11         2.1152   -1.1425    0.0225 H         1 <0>         0.0724
     38 H12         1.2032   -0.1244   -2.4017 H         1 <0>         0.0846
     39 H13         0.8881   -1.8006   -1.8689 H         1 <0>         0.0802
     40 H14        -2.8910   -0.2856   -3.4876 H         1 <0>         0.0817
     41 H15        -3.2403    0.9002   -2.2069 H         1 <0>         0.0808
     42 H16        -3.6054    1.8095   -4.3853 H         1 <0>         0.3862
     43 H17        -1.4500   -2.0388   -2.5672 H         1 <0>         0.3798
     44 H18         1.2044   -1.3596    3.0935 H         1 <0>         0.0668
     45 H19         2.3302   -0.2310    2.3027 H         1 <0>         0.0752
     46 H20         2.2645    0.0418    4.8049 H         1 <0>         0.0800
     47 H21         1.7776    1.5206    3.9355 H         1 <0>         0.0861
     48 H22         1.0116   -0.1573    6.6552 H         1 <0>         0.1356
     49 H23        -3.3822    0.2255    6.5481 H         1 <0>         0.1372
     50 H24        -3.2561    0.8801    4.2721 H         1 <0>         0.1262
     51 H25        -1.8492    2.7154    3.3993 H         1 <0>         0.0948
     52 H26        -0.5039    2.8628    4.5554 H         1 <0>         0.0440
     53 H27        -0.1789    2.4114    2.8646 H         1 <0>         0.0739
     54 H28        -2.9172    2.3063    1.2496 H         1 <0>         0.3686
@<TRIPOS>BOND
     1    1    2 1
     2    1   31 1
     3    1   32 1
     4    1   33 1
     5    2   10 1
     6    2   14 1
     7    2    3 1
     8    3    4 1
     9    3   34 1
    10    3   35 1
    11    4    5 1
    12    4    6 1
    13    4   30 1
    14    6    7 1
    15    6   28 1
    16    6    8 1
    17    8    9 1
    18    8   10 1
    19    8   20 1
    20   10   11 1
    21   10   12 1
    22   12   13 1
    23   12   36 1
    24   12   37 1
    25   13   14 1
    26   13   38 1
    27   13   39 1
    28   14   15 1
    29   14   19 1
    30   15   16 2
    31   15   17 1
    32   17   18 1
    33   17   40 1
    34   17   41 1
    35   18   42 1
    36   19   43 1
    37   20   21 1
    38   20   44 1
    39   20   45 1
    40   21   22 1
    41   21   46 1
    42   21   47 1
    43   22   28 1
    44   22   23 2
    45   23   24 1
    46   23   48 1
    47   24   25 2
    48   24   26 1
    49   26   27 2
    50   26   49 1
    51   27   28 1
    52   27   50 1
    53   28   29 1
    54   29   51 1
    55   29   52 1
    56   29   53 1
    57   30   54 1
@<TRIPOS>MOLECULE
ZINC00001281
   29    30     0     0     0
SMALL
USER_CHARGES

@<TRIPOS>ATOM
      1 C1         -0.1806    1.0357    0.2000 C.ar      1 <0>        -0.1222
      2 C2          0.9245    1.8481    0.0217 C.ar      1 <0>        -0.1361
      3 C3          2.1862    1.2928   -0.0570 C.ar      1 <0>        -0.1180
      4 C4          2.3450   -0.0840    0.0433 C.ar      1 <0>         0.1573
      5 C5          1.2329   -0.8970    0.2224 C.ar      1 <0>        -0.0156
      6 C6         -0.0262   -0.3347    0.3002 C.ar      1 <0>        -0.1119
      7 C7          1.4001   -2.3907    0.3312 C.3       1 <0>        -0.1565
      8 C8          1.7182   -2.7580    1.7577 C.2       1 <0>         0.5052
      9 O1          1.8014   -1.8875    2.6073 O.co2     1 <0>        -0.6883
     10 O2          1.8923   -3.9257    2.0622 O.co2     1 <0>        -0.7010
     11 N1          3.6199   -0.6493   -0.0363 N.pl3     1 <0>        -0.6799
     12 C9          3.9705   -1.4310   -1.1417 C.ar      1 <0>         0.2371
     13 C10         3.3529   -1.2194   -2.3686 C.ar      1 <0>        -0.0923
     14 C11         3.7019   -1.9940   -3.4588 C.ar      1 <0>        -0.0712
     15 C12         4.6640   -2.9789   -3.3298 C.ar      1 <0>        -0.1540
     16 C13         5.2803   -3.1928   -2.1105 C.ar      1 <0>        -0.0674
     17 C14         4.9413   -2.4177   -1.0174 C.ar      1 <0>        -0.0897
     18 Cl1         5.7217   -2.6815    0.5107 Cl        1 <0>        -0.0512
     19 Cl2         2.1442    0.0160   -2.5315 Cl        1 <0>        -0.0473
     20 H1         -1.1659    1.4731    0.2657 H         1 <0>         0.1132
     21 H2          0.8003    2.9181   -0.0565 H         1 <0>         0.1137
     22 H3          3.0486    1.9277   -0.1966 H         1 <0>         0.1147
     23 H4         -0.8913   -0.9662    0.4394 H         1 <0>         0.1149
     24 H5          0.4765   -2.8828    0.0266 H         1 <0>         0.0630
     25 H6          2.2146   -2.7133   -0.3173 H         1 <0>         0.0663
     26 H7          4.2621   -0.4997    0.6751 H         1 <0>         0.4125
     27 H8          3.2224   -1.8301   -4.4125 H         1 <0>         0.1341
     28 H9          4.9344   -3.5828   -4.1833 H         1 <0>         0.1345
     29 H10         6.0307   -3.9634   -2.0133 H         1 <0>         0.1361
@<TRIPOS>BOND
     1    1    6 ar
     2    1    2 ar
     3    1   20 1
     4    2    3 ar
     5    2   21 1
     6    3    4 ar
     7    3   22 1
     8    4    5 ar
     9    4   11 1
    10    5    6 ar
    11    5    7 1
    12    6   23 1
    13    7    8 1
    14    7   24 1
    15    7   25 1
    16    8    9 2
    17    8   10 1
    18   11   12 1
    19   11   26 1
    20   12   17 ar
    21   12   13 ar
    22   13   14 ar
    23   13   19 1
    24   14   15 ar
    25   14   27 1
    26   15   16 ar
    27   15   28 1
    28   16   17 ar
    29   16   29 1
    30   17   18 1
@<TRIPOS>MOLECULE
ZINC00000391
   35    37     0     0     0
SMALL
USER_CHARGES

@<TRIPOS>ATOM
      1 C1         -0.0187    1.5258    0.0104 C.3       1 <0>        -0.1172
      2 C2          0.0021   -0.0041    0.0020 C.3       1 <0>        -0.1298
      3 H1          0.5293   -0.3651    0.8851 H         1 <0>         0.0679
      4 C3         -1.4117   -0.5257    0.0127 C.ar      1 <0>        -0.0532
      5 C4         -2.2745   -0.2014   -1.0181 C.ar      1 <0>        -0.0765
      6 C5         -3.5708   -0.6778   -1.0114 C.ar      1 <0>        -0.1491
      7 C6         -4.0074   -1.4838    0.0321 C.ar      1 <0>         0.1415
      8 C7         -3.1382   -1.8080    1.0657 C.ar      1 <0>        -0.1558
      9 C8         -1.8417   -1.3322    1.0504 C.ar      1 <0>        -0.0985
     10 N1         -5.3195   -1.9675    0.0423 N.am      1 <0>        -0.5468
     11 C9         -5.9084   -2.8192    1.0819 C.3       1 <0>         0.1358
     12 C10        -7.3331   -3.0772    0.6591 C.ar      1 <0>        -0.0806
     13 C11        -8.3663   -3.7947    1.2161 C.ar      1 <0>        -0.1020
     14 C12        -9.5937   -3.8490    0.5773 C.ar      1 <0>        -0.0889
     15 C13        -9.7847   -3.1833   -0.6208 C.ar      1 <0>        -0.1277
     16 C14        -8.7555   -2.4611   -1.1880 C.ar      1 <0>        -0.0445
     17 C15        -7.5149   -2.4015   -0.5498 C.ar      1 <0>        -0.1520
     18 C16        -6.2510   -1.7240   -0.8958 C.2       1 <0>         0.5520
     19 O1         -6.0762   -1.0445   -1.8885 O.2       1 <0>        -0.5042
     20 C17         0.7074   -0.4901   -1.2379 C.2       1 <0>         0.5035
     21 O2          1.4615   -1.4461   -1.1751 O.co2     1 <0>        -0.6984
     22 O3          0.5241    0.0728   -2.3037 O.co2     1 <0>        -0.6891
     23 H2          1.0039    1.9031    0.0027 H         1 <0>         0.0479
     24 H3         -0.5459    1.8868   -0.8726 H         1 <0>         0.0604
     25 H4         -0.5289    1.8773    0.9072 H         1 <0>         0.0367
     26 H5         -1.9344    0.4254   -1.8292 H         1 <0>         0.1381
     27 H6         -4.2444   -0.4236   -1.8164 H         1 <0>         0.1484
     28 H7         -3.4747   -2.4342    1.8788 H         1 <0>         0.1188
     29 H8         -1.1640   -1.5873    1.8518 H         1 <0>         0.1237
     30 H9         -5.3617   -3.7597    1.1498 H         1 <0>         0.1035
     31 H10        -5.8902   -2.3046    2.0426 H         1 <0>         0.1028
     32 H11        -8.2201   -4.3156    2.1509 H         1 <0>         0.1328
     33 H12       -10.4041   -4.4129    1.0152 H         1 <0>         0.1333
     34 H13       -10.7442   -3.2298   -1.1143 H         1 <0>         0.1333
     35 H14        -8.9089   -1.9427   -2.1229 H         1 <0>         0.1339
@<TRIPOS>BOND
     1    1    2 1
     2    1   23 1
     3    1   24 1
     4    1   25 1
     5    2    3 1
     6    2    4 1
     7    2   20 1
     8    4    9 ar
     9    4    5 ar
    10    5    6 ar
    11    5   26 1
    12    6    7 ar
    13    6   27 1
    14    7    8 ar
    15    7   10 1
    16    8    9 ar
    17    8   28 1
    18    9   29 1
    19   10   18 am
    20   10   11 1
    21   11   12 1
    22   11   30 1
    23   11   31 1
    24   12   17 ar
    25   12   13 ar
    26   13   14 ar
    27   13   32 1
    28   14   15 ar
    29   14   33 1
    30   15   16 ar
    31   15   34 1
    32   16   17 ar
    33   16   35 1
    34   17   18 1
    35   18   19 2
    36   20   21 2
    37   20   22 1
@<TRIPOS>MOLECULE
ZINC00156823
   35    37     0     0     0
SMALL
USER_CHARGES

@<TRIPOS>ATOM
      1 C1         -0.0187    1.5258    0.0104 C.3       1 <0>        -0.1183
      2 C2          0.0021   -0.0041    0.0020 C.3       1 <0>        -0.1322
      3 H1          0.5293   -0.3651    0.8851 H         1 <0>         0.0702
      4 C3          0.7074   -0.4901   -1.2379 C.ar      1 <0>        -0.0415
      5 C4          0.2205   -0.1501   -2.4867 C.ar      1 <0>        -0.0530
      6 C5          0.8646   -0.5938   -3.6249 C.ar      1 <0>        -0.1502
      7 C6          2.0028   -1.3820   -3.5144 C.ar      1 <0>         0.1402
      8 C7          2.4895   -1.7213   -2.2585 C.ar      1 <0>        -0.1570
      9 C8          1.8435   -1.2703   -1.1243 C.ar      1 <0>        -0.1043
     10 N1          2.6571   -1.8334   -4.6649 N.am      1 <0>        -0.5460
     11 C9          3.8600   -2.6733   -4.6902 C.3       1 <0>         0.1360
     12 C10         4.1883   -2.8967   -6.1453 C.ar      1 <0>        -0.0807
     13 C11         5.1858   -3.5902   -6.7908 C.ar      1 <0>        -0.1022
     14 C12         5.2278   -3.6134   -8.1747 C.ar      1 <0>        -0.0894
     15 C13         4.2687   -2.9406   -8.9114 C.ar      1 <0>        -0.1279
     16 C14         3.2643   -2.2422   -8.2742 C.ar      1 <0>        -0.0448
     17 C15         3.2152   -2.2141   -6.8790 C.ar      1 <0>        -0.1516
     18 C16         2.2845   -1.5742   -5.9302 C.2       1 <0>         0.5517
     19 O1          1.3197   -0.9060   -6.2472 O.2       1 <0>        -0.5050
     20 C17        -1.4117   -0.5257    0.0127 C.2       1 <0>         0.4994
     21 O2         -1.8097   -1.2271   -0.9017 O.co2     1 <0>        -0.6855
     22 O3         -2.1576   -0.2463    0.9358 O.co2     1 <0>        -0.6992
     23 H2          1.0039    1.9031    0.0027 H         1 <0>         0.0400
     24 H3         -0.5459    1.8868   -0.8726 H         1 <0>         0.0476
     25 H4         -0.5289    1.8773    0.9072 H         1 <0>         0.0594
     26 H5         -0.6646    0.4629   -2.5720 H         1 <0>         0.1237
     27 H6          0.4834   -0.3285   -4.6000 H         1 <0>         0.1464
     28 H7          3.3742   -2.3344   -2.1692 H         1 <0>         0.1166
     29 H8          2.2238   -1.5304   -0.1475 H         1 <0>         0.1199
     30 H9          4.6848   -2.1614   -4.1944 H         1 <0>         0.1026
     31 H10         3.6615   -3.6266   -4.2004 H         1 <0>         0.1030
     32 H11         5.9358   -4.1159   -6.2185 H         1 <0>         0.1326
     33 H12         6.0114   -4.1578   -8.6805 H         1 <0>         0.1330
     34 H13         4.3071   -2.9622   -9.9905 H         1 <0>         0.1330
     35 H14         2.5176   -1.7188   -8.8529 H         1 <0>         0.1337
@<TRIPOS>BOND
     1    1    2 1
     2    1   23 1
     3    1   24 1
     4    1   25 1
     5    2    3 1
     6    2    4 1
     7    2   20 1
     8    4    9 ar
     9    4    5 ar
    10    5    6 ar
    11    5   26 1
    12    6    7 ar
    13    6   27 1
    14    7    8 ar
    15    7   10 1
    16    8    9 ar
    17    8   28 1
    18    9   29 1
    19   10   18 am
    20   10   11 1
    21   11   12 1
    22   11   30 1
    23   11   31 1
    24   12   17 ar
    25   12   13 ar
    26   13   14 ar
    27   13   32 1
    28   14   15 ar
    29   14   33 1
    30   15   16 ar
    31   15   34 1
    32   16   17 ar
    33   16   35 1
    34   17   18 1
    35   18   19 2
    36   20   21 2
    37   20   22 1
@<TRIPOS>MOLECULE
ZINC01530641
   39    39     0     0     0
SMALL
USER_CHARGES

@<TRIPOS>ATOM
      1 C1         -0.0184    1.5028    0.0103 C.3       1 <0>        -0.1157
      2 C2          0.0021   -0.0041    0.0020 C.ar      1 <0>        -0.0532
      3 C3          0.0057   -0.6883   -1.1997 C.ar      1 <0>        -0.1620
      4 C4          0.0244   -2.0706   -1.2107 C.ar      1 <0>        -0.0820
      5 C5          0.0391   -2.7719   -0.0203 C.ar      1 <0>        -0.1287
      6 C6          0.0355   -2.0879    1.1864 C.ar      1 <0>         0.1394
      7 C7          0.0229   -0.7004    1.1947 C.ar      1 <0>        -0.2076
      8 O1          0.0500   -2.7755    2.3585 O.3       1 <0>        -0.3121
      9 C8          0.0452   -2.0055    3.5624 C.3       1 <0>         0.0595
     10 C9          0.0632   -2.9458    4.7692 C.3       1 <0>        -0.1204
     11 C10         0.0581   -2.1215    6.0581 C.3       1 <0>        -0.0823
     12 C11         0.0761   -3.0618    7.2650 C.3       1 <0>        -0.1352
     13 C12        -1.1615   -3.9607    7.2296 C.3       1 <0>        -0.1171
     14 C13         1.3367   -3.9275    7.2182 C.3       1 <0>        -0.1218
     15 C14         0.0710   -2.2498    8.5345 C.2       1 <0>         0.5023
     16 O2         -0.4464   -2.6986    9.5431 O.co2     1 <0>        -0.6979
     17 O3          0.5844   -1.1441    8.5530 O.co2     1 <0>        -0.6997
     18 C15         0.0585   -4.2788   -0.0330 C.3       1 <0>        -0.1034
     19 H1          1.0042    1.8801    0.0026 H         1 <0>         0.0712
     20 H2         -0.5455    1.8639   -0.8728 H         1 <0>         0.0663
     21 H3         -0.5286    1.8543    0.9071 H         1 <0>         0.0669
     22 H4         -0.0065   -0.1419   -2.1312 H         1 <0>         0.1199
     23 H5          0.0272   -2.6027   -2.1505 H         1 <0>         0.1254
     24 H6          0.0248   -0.1655    2.1329 H         1 <0>         0.1294
     25 H7          0.9269   -1.3651    3.5876 H         1 <0>         0.0615
     26 H8         -0.8529   -1.3888    3.5957 H         1 <0>         0.0603
     27 H9         -0.8185   -3.5862    4.7440 H         1 <0>         0.0716
     28 H10         0.9613   -3.5626    4.7359 H         1 <0>         0.0722
     29 H11         0.9398   -1.4811    6.0833 H         1 <0>         0.0671
     30 H12        -0.8400   -1.5047    6.0914 H         1 <0>         0.0541
     31 H13        -1.1579   -4.5480    6.3113 H         1 <0>         0.0368
     32 H14        -1.1487   -4.6306    8.0893 H         1 <0>         0.0552
     33 H15        -2.0596   -3.3440    7.2629 H         1 <0>         0.0424
     34 H16         2.2184   -3.2871    7.2434 H         1 <0>         0.0480
     35 H17         1.3495   -4.5974    8.0780 H         1 <0>         0.0483
     36 H18         1.3404   -4.5148    6.3000 H         1 <0>         0.0438
     37 H19         1.0908   -4.6288   -0.0409 H         1 <0>         0.0656
     38 H20        -0.4463   -4.6561    0.8563 H         1 <0>         0.0705
     39 H21        -0.4549   -4.6412   -0.9236 H         1 <0>         0.0612
@<TRIPOS>BOND
     1    1    2 1
     2    1   19 1
     3    1   20 1
     4    1   21 1
     5    2    7 ar
     6    2    3 ar
     7    3    4 ar
     8    3   22 1
     9    4    5 ar
    10    4   23 1
    11    5    6 ar
    12    5   18 1
    13    6    7 ar
    14    6    8 1
    15    7   24 1
    16    8    9 1
    17    9   10 1
    18    9   25 1
    19    9   26 1
    20   10   11 1
    21   10   27 1
    22   10   28 1
    23   11   12 1
    24   11   29 1
    25   11   30 1
    26   12   13 1
    27   12   14 1
    28   12   15 1
    29   13   31 1
    30   13   32 1
    31   13   33 1
    32   14   34 1
    33   14   35 1
    34   14   36 1
    35   15   16 2
    36   15   17 1
    37   18   37 1
    38   18   38 1
    39   18   39 1
@<TRIPOS>MOLECULE
ZINC00001655
   29    30     0     0     0
SMALL
USER_CHARGES

@<TRIPOS>ATOM
      1 C1          0.6464    1.4590   -0.0291 C.3       1 <0>        -0.1134
      2 C2          0.4033   -0.0283   -0.0363 C.ar      1 <0>        -0.0408
      3 C3          0.2472   -0.6967   -1.2370 C.ar      1 <0>        -0.1657
      4 C4          0.0235   -2.0611   -1.2487 C.ar      1 <0>        -0.0679
      5 C5         -0.0443   -2.7623   -0.0593 C.ar      1 <0>        -0.1035
      6 C6          0.1125   -2.0943    1.1490 C.ar      1 <0>         0.2889
      7 C7          0.3424   -0.7234    1.1565 C.ar      1 <0>        -0.0658
      8 Cl1         0.5456    0.1155    2.6627 Cl        1 <0>        -0.0657
      9 N1          0.0441   -2.8002    2.3544 N.pl3     1 <0>        -0.6647
     10 C8          0.2738   -4.1685    2.3711 C.ar      1 <0>         0.1811
     11 C9         -0.7785   -5.0514    2.5833 C.ar      1 <0>        -0.1380
     12 C10        -0.5475   -6.4110    2.5989 C.ar      1 <0>        -0.1237
     13 C11         0.7321   -6.9091    2.4043 C.ar      1 <0>        -0.1445
     14 C12         1.7883   -6.0519    2.1929 C.ar      1 <0>        -0.0789
     15 C13         1.5710   -4.6698    2.1677 C.ar      1 <0>        -0.1332
     16 C14         2.6930   -3.7482    1.9364 C.2       1 <0>         0.5171
     17 O1          3.7985   -4.1892    1.6527 O.co2     1 <0>        -0.6940
     18 O2          2.5212   -2.5401    2.0277 O.co2     1 <0>        -0.6627
     19 Cl2        -0.3257   -4.4753   -0.0751 Cl        1 <0>        -0.0573
     20 H1          1.7183    1.6522   -0.0719 H         1 <0>         0.0746
     21 H2          0.1609    1.9107   -0.8942 H         1 <0>         0.0660
     22 H3          0.2358    1.8898    0.8841 H         1 <0>         0.0698
     23 H4          0.2997   -0.1515   -2.1678 H         1 <0>         0.1283
     24 H5         -0.0986   -2.5795   -2.1882 H         1 <0>         0.1285
     25 H6         -0.1640   -2.3333    3.1788 H         1 <0>         0.4051
     26 H7         -1.7781   -4.6724    2.7365 H         1 <0>         0.1137
     27 H8         -1.3688   -7.0926    2.7642 H         1 <0>         0.1117
     28 H9          0.9010   -7.9758    2.4190 H         1 <0>         0.1112
     29 H10         2.7826   -6.4458    2.0424 H         1 <0>         0.1239
@<TRIPOS>BOND
     1    1    2 1
     2    1   20 1
     3    1   21 1
     4    1   22 1
     5    2    7 ar
     6    2    3 ar
     7    3    4 ar
     8    3   23 1
     9    4    5 ar
    10    4   24 1
    11    5    6 ar
    12    5   19 1
    13    6    7 ar
    14    6    9 1
    15    7    8 1
    16    9   10 1
    17    9   25 1
    18   10   15 ar
    19   10   11 ar
    20   11   12 ar
    21   11   26 1
    22   12   13 ar
    23   12   27 1
    24   13   14 ar
    25   13   28 1
    26   14   15 ar
    27   14   29 1
    28   15   16 1
    29   16   17 2
    30   16   18 1
@<TRIPOS>MOLECULE
ZINC00000323
   30    31     0     0     0
SMALL
USER_CHARGES

@<TRIPOS>ATOM
      1 C1         -0.0187    1.5258    0.0104 C.3       1 <0>        -0.1172
      2 C2          0.0021   -0.0041    0.0020 C.3       1 <0>        -0.1347
      3 H1          0.5293   -0.3651    0.8851 H         1 <0>         0.0717
      4 C3         -1.4117   -0.5257    0.0127 C.ar      1 <0>        -0.0029
      5 C4         -2.2739   -0.2004   -1.0193 C.ar      1 <0>        -0.1133
      6 C5         -3.5699   -0.6745   -1.0160 C.ar      1 <0>        -0.0792
      7 C6         -4.0111   -1.4830    0.0296 C.ar      1 <0>        -0.1102
      8 C7         -3.1382   -1.8086    1.0683 C.ar      1 <0>         0.1050
      9 C8         -1.8402   -1.3319    1.0508 C.ar      1 <0>        -0.1571
     10 F1         -3.5585   -2.5916    2.0859 F         1 <0>        -0.1420
     11 C9         -5.4035   -1.9951    0.0386 C.ar      1 <0>        -0.0319
     12 C10        -6.4707   -1.1232   -0.1677 C.ar      1 <0>        -0.1071
     13 C11        -7.7639   -1.6051   -0.1582 C.ar      1 <0>        -0.1217
     14 C12        -8.0017   -2.9508    0.0555 C.ar      1 <0>        -0.1252
     15 C13        -6.9462   -3.8209    0.2608 C.ar      1 <0>        -0.1197
     16 C14        -5.6486   -3.3509    0.2476 C.ar      1 <0>        -0.1022
     17 C15         0.7074   -0.4901   -1.2379 C.2       1 <0>         0.5045
     18 O1          1.4615   -1.4461   -1.1751 O.co2     1 <0>        -0.6939
     19 O2          0.5241    0.0728   -2.3037 O.co2     1 <0>        -0.6870
     20 H2          1.0039    1.9031    0.0027 H         1 <0>         0.0509
     21 H3         -0.5459    1.8868   -0.8726 H         1 <0>         0.0620
     22 H4         -0.5289    1.8773    0.9072 H         1 <0>         0.0384
     23 H5         -1.9319    0.4266   -1.8295 H         1 <0>         0.1421
     24 H6         -4.2413   -0.4190   -1.8224 H         1 <0>         0.1287
     25 H7         -1.1615   -1.5863    1.8516 H         1 <0>         0.1327
     26 H8         -6.2861   -0.0722   -0.3342 H         1 <0>         0.1244
     27 H9         -8.5918   -0.9301   -0.3176 H         1 <0>         0.1216
     28 H10        -9.0153   -3.3236    0.0624 H         1 <0>         0.1193
     29 H11        -7.1375   -4.8706    0.4275 H         1 <0>         0.1216
     30 H12        -4.8249   -4.0319    0.4032 H         1 <0>         0.1224
@<TRIPOS>BOND
     1    1    2 1
     2    1   20 1
     3    1   21 1
     4    1   22 1
     5    2    3 1
     6    2    4 1
     7    2   17 1
     8    4    9 ar
     9    4    5 ar
    10    5    6 ar
    11    5   23 1
    12    6    7 ar
    13    6   24 1
    14    7    8 ar
    15    7   11 1
    16    8    9 ar
    17    8   10 1
    18    9   25 1
    19   11   16 ar
    20   11   12 ar
    21   12   13 ar
    22   12   26 1
    23   13   14 ar
    24   13   27 1
    25   14   15 ar
    26   14   28 1
    27   15   16 ar
    28   15   29 1
    29   16   30 1
    30   17   18 2
    31   17   19 1
@<TRIPOS>MOLECULE
ZINC00008667
   30    31     0     0     0
SMALL
USER_CHARGES

@<TRIPOS>ATOM
      1 C1         -0.0187    1.5258    0.0104 C.3       1 <0>        -0.1184
      2 C2          0.0021   -0.0041    0.0020 C.3       1 <0>        -0.1371
      3 H1          0.5293   -0.3651    0.8851 H         1 <0>         0.0739
      4 C3          0.7074   -0.4901   -1.2379 C.ar      1 <0>         0.0081
      5 C4          0.2191   -0.1492   -2.4867 C.ar      1 <0>        -0.0890
      6 C5          0.8599   -0.5907   -3.6263 C.ar      1 <0>        -0.0815
      7 C6          2.0018   -1.3819   -3.5188 C.ar      1 <0>        -0.1106
      8 C7          2.4909   -1.7233   -2.2573 C.ar      1 <0>         0.1030
      9 C8          1.8431   -1.2700   -1.1228 C.ar      1 <0>        -0.1621
     10 F1          3.5972   -2.4904   -2.1447 F         1 <0>        -0.1439
     11 C9          2.6946   -1.8598   -4.7406 C.ar      1 <0>        -0.0302
     12 C10         1.9703   -2.4751   -5.7597 C.ar      1 <0>        -0.1063
     13 C11         2.6199   -2.9178   -6.8941 C.ar      1 <0>        -0.1209
     14 C12         3.9873   -2.7517   -7.0205 C.ar      1 <0>        -0.1263
     15 C13         4.7112   -2.1416   -6.0120 C.ar      1 <0>        -0.1212
     16 C14         4.0711   -1.6899   -4.8757 C.ar      1 <0>        -0.1040
     17 C15        -1.4117   -0.5257    0.0127 C.2       1 <0>         0.5014
     18 O1         -1.8097   -1.2271   -0.9017 O.co2     1 <0>        -0.6850
     19 O2         -2.1576   -0.2463    0.9358 O.co2     1 <0>        -0.6947
     20 H2          1.0039    1.9031    0.0027 H         1 <0>         0.0416
     21 H3         -0.5459    1.8868   -0.8726 H         1 <0>         0.0493
     22 H4         -0.5289    1.8773    0.9072 H         1 <0>         0.0623
     23 H5         -0.6662    0.4638   -2.5699 H         1 <0>         0.1278
     24 H6          0.4768   -0.3237   -4.6001 H         1 <0>         0.1265
     25 H7          2.2224   -1.5294   -0.1454 H         1 <0>         0.1290
     26 H8          0.9027   -2.6057   -5.6619 H         1 <0>         0.1259
     27 H9          2.0597   -3.3952   -7.6844 H         1 <0>         0.1217
     28 H10         4.4917   -3.0999   -7.9097 H         1 <0>         0.1187
     29 H11         5.7787   -2.0147   -6.1157 H         1 <0>         0.1206
     30 H12         4.6365   -1.2093   -4.0910 H         1 <0>         0.1211
@<TRIPOS>BOND
     1    1    2 1
     2    1   20 1
     3    1   21 1
     4    1   22 1
     5    2    3 1
     6    2    4 1
     7    2   17 1
     8    4    9 ar
     9    4    5 ar
    10    5    6 ar
    11    5   23 1
    12    6    7 ar
    13    6   24 1
    14    7    8 ar
    15    7   11 1
    16    8    9 ar
    17    8   10 1
    18    9   25 1
    19   11   16 ar
    20   11   12 ar
    21   12   13 ar
    22   12   26 1
    23   13   14 ar
    24   13   27 1
    25   14   15 ar
    26   14   28 1
    27   15   16 ar
    28   15   29 1
    29   16   30 1
    30   17   18 2
    31   17   19 1
@<TRIPOS>MOLECULE
ZINC00056648
   31    31     0     0     0
SMALL
USER_CHARGES

@<TRIPOS>ATOM
      1 C1          0.2914    2.0792    1.3551 C.3       1 <0>        -0.1524
      2 C2          0.2456    0.6120    0.9236 C.3       1 <0>         0.0577
      3 O1          0.8407   -0.2013    1.9369 O.3       1 <0>        -0.3457
      4 C3          0.8804   -1.5239    1.7114 C.2       1 <0>         0.4343
      5 O2          0.4250   -1.9762    0.6877 O.2       1 <0>        -0.4806
      6 C4          1.4929   -2.4447    2.7351 C.3       1 <0>         0.1279
      7 C5          2.9584   -2.0627    2.9526 C.3       1 <0>        -0.1380
      8 C6          0.7313   -2.3176    4.0559 C.3       1 <0>        -0.1954
      9 O3          1.4164   -3.7934    2.2689 O.3       1 <0>        -0.2794
     10 C7          0.1750   -4.2991    2.0441 C.ar      1 <0>         0.1382
     11 C8         -0.9382   -3.4773    2.1437 C.ar      1 <0>        -0.1779
     12 C9         -2.1991   -3.9931    1.9150 C.ar      1 <0>        -0.0739
     13 C10        -2.3522   -5.3286    1.5871 C.ar      1 <0>        -0.0679
     14 C11        -1.2432   -6.1500    1.4877 C.ar      1 <0>        -0.0723
     15 C12         0.0199   -5.6363    1.7093 C.ar      1 <0>        -0.1341
     16 Cl1        -3.9379   -5.9746    1.3006 Cl        1 <0>        -0.0693
     17 H1          1.3280    2.3825    1.5022 H         1 <0>         0.0684
     18 H2         -0.1625    2.6995    0.5823 H         1 <0>         0.0821
     19 H3         -0.2587    2.2008    2.2882 H         1 <0>         0.0680
     20 H4         -0.7909    0.3087    0.7765 H         1 <0>         0.0693
     21 H5          0.7957    0.4903   -0.0095 H         1 <0>         0.0703
     22 H6          3.0225   -1.0097    3.2267 H         1 <0>         0.0949
     23 H7          3.3780   -2.6726    3.7526 H         1 <0>         0.0878
     24 H8          3.5188   -2.2336    2.0334 H         1 <0>         0.0754
     25 H9         -0.2500   -2.7815    3.9556 H         1 <0>         0.0839
     26 H10         1.2902   -2.8173    4.8471 H         1 <0>         0.0895
     27 H11         0.6110   -1.2636    4.3060 H         1 <0>         0.0904
     28 H12        -0.8191   -2.4350    2.4003 H         1 <0>         0.1293
     29 H13        -3.0660   -3.3536    1.9924 H         1 <0>         0.1349
     30 H14        -1.3647   -7.1922    1.2321 H         1 <0>         0.1422
     31 H15         0.8857   -6.2766    1.6269 H         1 <0>         0.1424
@<TRIPOS>BOND
     1    1    2 1
     2    1   17 1
     3    1   18 1
     4    1   19 1
     5    2    3 1
     6    2   20 1
     7    2   21 1
     8    3    4 1
     9    4    5 2
    10    4    6 1
    11    6    7 1
    12    6    8 1
    13    6    9 1
    14    7   22 1
    15    7   23 1
    16    7   24 1
    17    8   25 1
    18    8   26 1
    19    8   27 1
    20    9   10 1
    21   10   15 ar
    22   10   11 ar
    23   11   12 ar
    24   11   28 1
    25   12   13 ar
    26   12   29 1
    27   13   14 ar
    28   13   16 1
    29   14   15 ar
    30   14   30 1
    31   15   31 1
@<TRIPOS>MOLECULE
ZINC00584092
   46    47     0     0     0
SMALL
USER_CHARGES

@<TRIPOS>ATOM
      1 C1         -5.3520    2.0187   -0.3089 C.3       1 <0>        -0.1503
      2 C2         -4.6606    0.8990   -1.0895 C.3       1 <0>         0.0762
      3 C3         -3.5931    1.5002   -2.0060 C.3       1 <0>        -0.1722
      4 O1         -4.0456   -0.0100   -0.1743 O.3       1 <0>        -0.3399
      5 C4         -3.9475   -1.2915   -0.5616 C.2       1 <0>         0.4348
      6 O2         -4.3699   -1.6302   -1.6418 O.2       1 <0>        -0.4797
      7 C5         -3.3107   -2.3078    0.3509 C.3       1 <0>         0.1268
      8 C6         -1.8655   -1.8978    0.6412 C.3       1 <0>        -0.1382
      9 C7         -4.0945   -2.3771    1.6630 C.3       1 <0>        -0.1953
     10 O3         -3.3244   -3.5896   -0.2806 O.3       1 <0>        -0.2779
     11 C8         -4.5377   -4.1038   -0.6045 C.ar      1 <0>         0.1680
     12 C9         -5.6841   -3.3358   -0.4334 C.ar      1 <0>        -0.1997
     13 C10        -6.9169   -3.8533   -0.7612 C.ar      1 <0>        -0.0227
     14 C11        -7.0152   -5.1534   -1.2669 C.ar      1 <0>        -0.1978
     15 C12        -5.8595   -5.9223   -1.4374 C.ar      1 <0>        -0.0426
     16 C13        -4.6303   -5.3950   -1.1120 C.ar      1 <0>        -0.1569
     17 C14        -8.3339   -5.7122   -1.6190 C.2       1 <0>         0.4433
     18 O4         -9.2622   -4.9681   -1.8701 O.2       1 <0>        -0.4461
     19 C15        -8.5270   -7.1760   -1.6667 C.ar      1 <0>        -0.1549
     20 C16        -7.6759   -8.0195   -0.9484 C.ar      1 <0>        -0.0692
     21 C17        -7.8616   -9.3847   -0.9966 C.ar      1 <0>        -0.1207
     22 C18        -8.8895   -9.9205   -1.7553 C.ar      1 <0>        -0.0087
     23 C19        -9.7369   -9.0894   -2.4698 C.ar      1 <0>        -0.1195
     24 C20        -9.5649   -7.7222   -2.4256 C.ar      1 <0>        -0.0504
     25 Cl1        -9.1164  -11.6407   -1.8113 Cl        1 <0>        -0.0589
     26 H1         -5.8211    2.7121   -1.0070 H         1 <0>         0.0807
     27 H2         -6.1125    1.5904    0.3440 H         1 <0>         0.0651
     28 H3         -4.6151    2.5512    0.2922 H         1 <0>         0.0698
     29 H4         -5.3976    0.3665   -1.6906 H         1 <0>         0.0847
     30 H5         -4.0623    2.1936   -2.7040 H         1 <0>         0.0770
     31 H6         -2.8562    2.0328   -1.4049 H         1 <0>         0.0682
     32 H7         -3.1006    0.7026   -2.5620 H         1 <0>         0.0609
     33 H8         -1.8493   -0.8859    1.0461 H         1 <0>         0.0954
     34 H9         -1.4312   -2.5862    1.3661 H         1 <0>         0.0879
     35 H10        -1.2866   -1.9291   -0.2818 H         1 <0>         0.0755
     36 H11        -5.0808   -2.8016    1.4750 H         1 <0>         0.0837
     37 H12        -3.5580   -3.0055    2.3739 H         1 <0>         0.0896
     38 H13        -4.2033   -1.3738    2.0747 H         1 <0>         0.0917
     39 H14        -5.6073   -2.3320   -0.0425 H         1 <0>         0.1287
     40 H15        -7.8068   -3.2562   -0.6276 H         1 <0>         0.1348
     41 H16        -5.9310   -6.9268   -1.8276 H         1 <0>         0.1435
     42 H17        -3.7369   -5.9866   -1.2471 H         1 <0>         0.1412
     43 H18        -6.8740   -7.6029   -0.3569 H         1 <0>         0.1464
     44 H19        -7.2041  -10.0379   -0.4421 H         1 <0>         0.1425
     45 H20       -10.5364   -9.5132   -3.0594 H         1 <0>         0.1421
     46 H21       -10.2286   -7.0751   -2.9798 H         1 <0>         0.1433
@<TRIPOS>BOND
     1    1    2 1
     2    1   26 1
     3    1   27 1
     4    1   28 1
     5    2    3 1
     6    2    4 1
     7    2   29 1
     8    3   30 1
     9    3   31 1
    10    3   32 1
    11    4    5 1
    12    5    6 2
    13    5    7 1
    14    7    8 1
    15    7    9 1
    16    7   10 1
    17    8   33 1
    18    8   34 1
    19    8   35 1
    20    9   36 1
    21    9   37 1
    22    9   38 1
    23   10   11 1
    24   11   16 ar
    25   11   12 ar
    26   12   13 ar
    27   12   39 1
    28   13   14 ar
    29   13   40 1
    30   14   15 ar
    31   14   17 1
    32   15   16 ar
    33   15   41 1
    34   16   42 1
    35   17   18 2
    36   17   19 1
    37   19   24 ar
    38   19   20 ar
    39   20   21 ar
    40   20   43 1
    41   21   22 ar
    42   21   44 1
    43   22   23 ar
    44   22   25 1
    45   23   24 ar
    46   23   45 1
    47   24   46 1
@<TRIPOS>MOLECULE
ZINC06845860
   53    52     0     0     0
SMALL
USER_CHARGES
(Z)-octadec-9-enoic acid
@<TRIPOS>ATOM
      1 C1          0.0625    2.5023   -8.6169 C.3       1 <0>        -0.1537
      2 C2          0.6195    1.7877   -7.3840 C.3       1 <0>        -0.1265
      3 C3         -0.1205    2.2727   -6.1358 C.3       1 <0>        -0.1208
      4 C4          0.4365    1.5582   -4.9028 C.3       1 <0>        -0.1217
      5 C5         -0.3035    2.0432   -3.6546 C.3       1 <0>        -0.1198
      6 C6          0.2535    1.3286   -2.4217 C.3       1 <0>        -0.1215
      7 C7         -0.4865    1.8136   -1.1734 C.3       1 <0>        -0.1127
      8 C8          0.0704    1.0991    0.0595 C.3       1 <0>        -0.1021
      9 C9         -0.6584    1.5768    1.2890 C.2       1 <0>        -0.1657
     10 C10        -1.1961    0.7092    2.1102 C.2       1 <0>        -0.1537
     11 C11        -0.9432   -0.7643    1.9210 C.3       1 <0>        -0.1025
     12 C12        -0.4114   -1.3620    3.2252 C.3       1 <0>        -0.1136
     13 C13        -0.1547   -2.8581    3.0332 C.3       1 <0>        -0.1192
     14 C14         0.3771   -3.4558    4.3373 C.3       1 <0>        -0.1193
     15 C15         0.6338   -4.9518    4.1453 C.3       1 <0>        -0.1197
     16 C16         1.1656   -5.5496    5.4494 C.3       1 <0>        -0.0989
     17 C17         1.4223   -7.0456    5.2574 C.3       1 <0>        -0.1582
     18 C18         1.9461   -7.6343    6.5420 C.2       1 <0>         0.4568
     19 O1          2.0984   -6.9297    7.5116 O.co2     1 <0>        -0.6425
     20 H1          0.2014    3.5778   -8.5072 H         1 <0>         0.0527
     21 H2          0.5897    2.1567   -9.5062 H         1 <0>         0.0528
     22 H3         -1.0002    2.2813   -8.7158 H         1 <0>         0.0530
     23 H4          1.6823    2.0087   -7.2852 H         1 <0>         0.0603
     24 H5          0.4807    0.7122   -7.4938 H         1 <0>         0.0607
     25 H6         -1.1833    2.0518   -6.2346 H         1 <0>         0.0603
     26 H7          0.0183    3.3483   -6.0260 H         1 <0>         0.0599
     27 H8          1.4993    1.7791   -4.8040 H         1 <0>         0.0607
     28 H9          0.2977    0.4826   -5.0126 H         1 <0>         0.0612
     29 H10        -1.3663    1.8222   -3.7534 H         1 <0>         0.0603
     30 H11        -0.1647    3.1187   -3.5449 H         1 <0>         0.0598
     31 H12         1.3162    1.5496   -2.3228 H         1 <0>         0.0611
     32 H13         0.1146    0.2531   -2.5314 H         1 <0>         0.0618
     33 H14        -1.5493    1.5927   -1.2723 H         1 <0>         0.0609
     34 H15        -0.3477    2.8892   -1.0637 H         1 <0>         0.0597
     35 H16        -0.0684    0.0235   -0.0502 H         1 <0>         0.0772
     36 H17         1.1332    1.3200    0.1583 H         1 <0>         0.0673
     37 H18        -0.7375    2.6344    1.4931 H         1 <0>         0.1055
     38 H19        -1.8206    1.0500    2.9228 H         1 <0>         0.1068
     39 H20        -1.8742   -1.2605    1.6470 H         1 <0>         0.0676
     40 H21        -0.2081   -0.9081    1.1292 H         1 <0>         0.0753
     41 H22         0.5196   -0.8659    3.4992 H         1 <0>         0.0612
     42 H23        -1.1465   -1.2183    4.0171 H         1 <0>         0.0609
     43 H24        -1.0857   -3.3543    2.7591 H         1 <0>         0.0595
     44 H25         0.5804   -3.0019    2.2413 H         1 <0>         0.0591
     45 H26         1.3081   -2.9596    4.6114 H         1 <0>         0.0598
     46 H27        -0.3580   -3.3120    5.1292 H         1 <0>         0.0598
     47 H28        -0.2972   -5.4480    3.8712 H         1 <0>         0.0555
     48 H29         1.3689   -5.0956    3.3534 H         1 <0>         0.0554
     49 H30         2.0966   -5.0534    5.7235 H         1 <0>         0.0584
     50 H31         0.4305   -5.4058    6.2413 H         1 <0>         0.0584
     51 H32         0.4913   -7.5418    4.9834 H         1 <0>         0.0612
     52 H33         2.1574   -7.1894    4.4655 H         1 <0>         0.0612
     53 O2          2.2434   -8.9416    6.6090 O.co2     1 <0>        -0.7802
@<TRIPOS>BOND
     1    1    2 1
     2    1   20 1
     3    1   21 1
     4    1   22 1
     5    2    3 1
     6    2   23 1
     7    2   24 1
     8    3    4 1
     9    3   25 1
    10    3   26 1
    11    4    5 1
    12    4   27 1
    13    4   28 1
    14    5    6 1
    15    5   29 1
    16    5   30 1
    17    6    7 1
    18    6   31 1
    19    6   32 1
    20    7    8 1
    21    7   33 1
    22    7   34 1
    23    8    9 1
    24    8   35 1
    25    8   36 1
    26    9   10 2
    27    9   37 1
    28   10   11 1
    29   10   38 1
    30   11   12 1
    31   11   39 1
    32   11   40 1
    33   12   13 1
    34   12   41 1
    35   12   42 1
    36   13   14 1
    37   13   43 1
    38   13   44 1
    39   14   15 1
    40   14   45 1
    41   14   46 1
    42   15   16 1
    43   15   47 1
    44   15   48 1
    45   16   17 1
    46   16   49 1
    47   16   50 1
    48   17   18 1
    49   17   51 1
    50   17   52 1
    51   18   19 2
    52   18   53 1
@<TRIPOS>MOLECULE
ZINC00001984
   36    37     0     0     0
SMALL
USER_CHARGES
2-[4-(4-chlorobenzoyl)phenoxy]-2-methyl-propanoic acid
@<TRIPOS>ATOM
      1 C1          1.1776    5.7094   -0.8744 C.3       1 <0>        -0.1146
      2 C2          1.6106    4.2440   -0.7952 C.3       1 <0>         0.0548
      3 C3          2.4400    4.0251    0.4717 C.3       1 <0>        -0.1744
      4 C4          2.4406    3.8993   -2.0048 C.2       1 <0>         0.4475
      5 O1          2.0782    3.0263   -2.7573 O.co2     1 <0>        -0.6128
      6 O2          0.4532    3.4068   -0.7573 O.3       1 <0>        -0.2969
      7 C5          0.6631    2.0696   -0.6608 C.ar      1 <0>         0.1975
      8 C6         -0.4158    1.2091   -0.4913 C.ar      1 <0>        -0.1779
      9 C7         -0.2075   -0.1481   -0.3934 C.ar      1 <0>        -0.0556
     10 C8          1.0915   -0.6610   -0.4646 C.ar      1 <0>        -0.2179
     11 C9          2.1737    0.2082   -0.6351 C.ar      1 <0>        -0.0343
     12 C10         1.9563    1.5640   -0.7322 C.ar      1 <0>        -0.1759
     13 C11         1.3197   -2.1144   -0.3596 C.2       1 <0>         0.4455
     14 O3          2.1902   -2.6427   -1.0241 O.2       1 <0>        -0.4523
     15 C12         0.4905   -2.9282    0.5528 C.ar      1 <0>        -0.1486
     16 C13        -0.3924   -2.3074    1.4397 C.ar      1 <0>        -0.0644
     17 C14        -1.1673   -3.0727    2.2850 C.ar      1 <0>        -0.1234
     18 C15        -1.0637   -4.4540    2.2639 C.ar      1 <0>        -0.0116
     19 C16        -0.1858   -5.0754    1.3907 C.ar      1 <0>        -0.1244
     20 C17         0.5904   -4.3215    0.5363 C.ar      1 <0>        -0.0527
     21 Cl1        -2.0385   -5.4104    3.3357 Cl        1 <0>        -0.0685
     22 H1          0.5057    5.9350   -0.0464 H         1 <0>         0.0551
     23 H2          2.0563    6.3516   -0.8147 H         1 <0>         0.0823
     24 H3          0.6624    5.8854   -1.8187 H         1 <0>         0.0583
     25 H4          2.7982    2.9960    0.4982 H         1 <0>         0.0697
     26 H5          3.2911    4.7061    0.4709 H         1 <0>         0.0795
     27 H6          1.8217    4.2174    1.3485 H         1 <0>         0.0557
     28 H7         -1.4191    1.6056   -0.4410 H         1 <0>         0.1306
     29 H8         -1.0461   -0.8158   -0.2613 H         1 <0>         0.1303
     30 H9          3.1786   -0.1837   -0.6903 H         1 <0>         0.1252
     31 H10         2.7915    2.2359   -0.8643 H         1 <0>         0.1497
     32 H11        -0.4711   -1.2304    1.4600 H         1 <0>         0.1523
     33 H12        -1.8538   -2.5941    2.9677 H         1 <0>         0.1400
     34 H13        -0.1095   -6.1526    1.3789 H         1 <0>         0.1384
     35 H14         1.2739   -4.8071   -0.1444 H         1 <0>         0.1433
     36 O4          3.5825    4.5623   -2.2463 O.co2     1 <0>        -0.7493
@<TRIPOS>BOND
     1    1    2 1
     2    1   22 1
     3    1   23 1
     4    1   24 1
     5    2    3 1
     6    2    4 1
     7    2    6 1
     8    3   25 1
     9    3   26 1
    10    3   27 1
    11    4    5 2
    12    4   36 1
    13    6    7 1
    14    7   12 ar
    15    7    8 ar
    16    8    9 ar
    17    8   28 1
    18    9   10 ar
    19    9   29 1
    20   10   11 ar
    21   10   13 1
    22   11   12 ar
    23   11   30 1
    24   12   31 1
    25   13   14 2
    26   13   15 1
    27   15   20 ar
    28   15   16 ar
    29   16   17 ar
    30   16   32 1
    31   17   18 ar
    32   17   33 1
    33   18   19 ar
    34   18   21 1
    35   19   20 ar
    36   19   34 1
    37   20   35 1
