@<TRIPOS>MOLECULE
ZINC00119305
   32    33     0     0     0
SMALL
USER_CHARGES

@<TRIPOS>ATOM
      1 C1         -0.0046    1.4124   -0.0051 C.3       1 <0>         0.0367
      2 O1          0.0099   -0.0164   -0.0169 O.3       1 <0>        -0.3519
      3 C2         -1.1869   -0.6418   -0.0024 C.2       1 <0>         0.5600
      4 O2         -2.2146    0.0108    0.0198 O.2       1 <0>        -0.5065
      5 C3         -1.2465   -2.0520   -0.0128 C.2       1 <0>        -0.3069
      6 C4         -2.3700   -2.8831   -0.0068 C.2       1 <0>         0.2583
      7 C5         -2.1756   -4.2408   -0.0201 C.2       1 <0>        -0.1806
      8 C6         -0.8772   -4.7280   -0.0389 C.2       1 <0>        -0.0213
      9 S1          0.0938   -3.2305   -0.0449 S.3       1 <0>         0.1718
     10 C7         -0.4174   -6.1241   -0.0548 C.2       1 <0>        -0.0973
     11 C8          0.8751   -6.6164   -0.0679 C.2       1 <0>        -0.1283
     12 C9          1.0557   -7.9799   -0.0812 C.2       1 <0>        -0.1593
     13 C10        -0.0317   -8.7946   -0.0812 C.2       1 <0>        -0.1725
     14 S2         -1.3815   -7.6269   -0.0545 S.3       1 <0>         0.1177
     15 N1         -3.6558   -2.3459    0.0126 N.am      1 <0>        -0.6498
     16 C11        -4.6806   -3.0683    0.5070 C.2       1 <0>         0.5513
     17 O3         -4.4690   -4.1460    1.0273 O.2       1 <0>        -0.5221
     18 C12        -6.0615   -2.5498    0.4165 C.2       1 <0>        -0.2199
     19 C13        -7.0829   -3.2698    0.9092 C.2       1 <0>        -0.0782
     20 C14        -8.4601   -2.7528    0.8190 C.2       1 <0>         0.5034
     21 O4         -8.6730   -1.6683    0.2955 O.co2     1 <0>        -0.6778
     22 O5         -9.3899   -3.4082    1.2675 O.co2     1 <0>        -0.6789
     23 H1          1.0192    1.7863   -0.0189 H         1 <0>         0.1017
     24 H2         -0.5366    1.7777   -0.8836 H         1 <0>         0.0623
     25 H3         -0.5074    1.7633    0.8961 H         1 <0>         0.0622
     26 H4         -3.0174   -4.9174   -0.0157 H         1 <0>         0.1733
     27 H5          1.7221   -5.9464   -0.0679 H         1 <0>         0.1389
     28 H6          2.0512   -8.3984   -0.0920 H         1 <0>         0.1393
     29 H7         -0.0696   -9.8739   -0.0909 H         1 <0>         0.1907
     30 H8         -3.8131   -1.4520   -0.3296 H         1 <0>         0.4286
     31 H9         -6.2495   -1.5920   -0.0458 H         1 <0>         0.1396
     32 H10        -6.8949   -4.2276    1.3716 H         1 <0>         0.1153
@<TRIPOS>BOND
     1    1    2 1
     2    1   23 1
     3    1   24 1
     4    1   25 1
     5    2    3 1
     6    3    4 2
     7    3    5 1
     8    5    9 1
     9    5    6 2
    10    6    7 1
    11    6   15 1
    12    7    8 2
    13    7   26 1
    14    8    9 1
    15    8   10 1
    16   10   14 1
    17   10   11 2
    18   11   12 1
    19   11   27 1
    20   12   13 2
    21   12   28 1
    22   13   14 1
    23   13   29 1
    24   15   16 am
    25   15   30 1
    26   16   17 2
    27   16   18 1
    28   18   19 2
    29   18   31 1
    30   19   20 1
    31   19   32 1
    32   20   21 2
    33   20   22 1
@<TRIPOS>MOLECULE
ZINC20474370
   36    38     0     0     0
SMALL
USER_CHARGES
5-carbazol-9-ylpentanoic acid
@<TRIPOS>ATOM
      1 C1         -1.2260    1.7466    0.0174 C.ar      1 <0>        -0.1562
      2 C2         -0.0126    1.0758    0.0080 C.ar      1 <0>        -0.0854
      3 C3          1.1749    1.7750    0.0004 C.ar      1 <0>        -0.1403
      4 C4          1.1641    3.1667    0.0079 C.ar      1 <0>         0.1470
      5 C5         -0.0644    3.8435    0.0233 C.ar      1 <0>        -0.1088
      6 C6         -1.2573    3.1243    0.0308 C.ar      1 <0>        -0.0633
      7 C7          0.2514    5.2837    0.0275 C.ar      1 <0>        -0.1088
      8 C8         -0.5311    6.4360    0.0405 C.ar      1 <0>        -0.0633
      9 C9          0.0738    7.6743    0.0405 C.ar      1 <0>        -0.1562
     10 C10         1.4566    7.7758    0.0280 C.ar      1 <0>        -0.0854
     11 C11         2.2426    6.6439    0.0156 C.ar      1 <0>        -0.1403
     12 C12         1.6503    5.3844    0.0144 C.ar      1 <0>         0.1471
     13 N1          2.1795    4.1063    0.0028 N.pl3     1 <0>        -0.4998
     14 C13         3.6105    3.7926   -0.0122 C.3       1 <0>         0.1101
     15 C14         4.0950    3.6902   -1.4598 C.3       1 <0>        -0.1363
     16 C15         5.5894    3.3626   -1.4755 C.3       1 <0>        -0.0951
     17 C16         6.0740    3.2603   -2.9231 C.3       1 <0>        -0.1570
     18 C17         7.5459    2.9376   -2.9386 C.2       1 <0>         0.4581
     19 O1          8.1459    2.8032   -1.8984 O.co2     1 <0>        -0.6424
     20 O2          8.1905    2.7994   -4.1078 O.co2     1 <0>        -0.7768
     21 H1         -2.1500    1.1873    0.0184 H         1 <0>         0.1236
     22 H2          0.0021   -0.0041    0.0020 H         1 <0>         0.1268
     23 H3          2.1146    1.2427   -0.0118 H         1 <0>         0.1243
     24 H4         -2.2036    3.6446    0.0427 H         1 <0>         0.1218
     25 H5         -1.6083    6.3593    0.0510 H         1 <0>         0.1218
     26 H6         -0.5314    8.5688    0.0506 H         1 <0>         0.1236
     27 H7          1.9218    8.7505    0.0285 H         1 <0>         0.1268
     28 H8          3.3187    6.7342    0.0066 H         1 <0>         0.1243
     29 H9          4.1659    4.5890    0.5049 H         1 <0>         0.0891
     30 H10         3.7812    2.8344    0.5003 H         1 <0>         0.0891
     31 H11         3.5396    2.8938   -1.9769 H         1 <0>         0.0646
     32 H12         3.9243    4.6484   -1.9723 H         1 <0>         0.0646
     33 H13         6.1448    4.1589   -0.9584 H         1 <0>         0.0635
     34 H14         5.7601    2.4043   -0.9631 H         1 <0>         0.0635
     35 H15         5.5186    2.4640   -3.4403 H         1 <0>         0.0629
     36 H16         5.9033    4.2186   -3.4355 H         1 <0>         0.0629
@<TRIPOS>BOND
     1    1    6 ar
     2    1    2 ar
     3    1   21 1
     4    2    3 ar
     5    2   22 1
     6    3    4 ar
     7    3   23 1
     8    4   13 1
     9    4    5 ar
    10    5    6 ar
    11    5    7 1
    12    6   24 1
    13    7   12 ar
    14    7    8 ar
    15    8    9 ar
    16    8   25 1
    17    9   10 ar
    18    9   26 1
    19   10   11 ar
    20   10   27 1
    21   11   12 ar
    22   11   28 1
    23   12   13 1
    24   13   14 1
    25   14   15 1
    26   14   29 1
    27   14   30 1
    28   15   16 1
    29   15   31 1
    30   15   32 1
    31   16   17 1
    32   16   33 1
    33   16   34 1
    34   17   18 1
    35   17   35 1
    36   17   36 1
    37   18   19 2
    38   18   20 1
@<TRIPOS>MOLECULE
ZINC05939954
   33    35     0     0     0
SMALL
USER_CHARGES
4-carbazol-9-ylbutanoic acid
@<TRIPOS>ATOM
      1 C1         -1.2260    1.7466    0.0174 C.ar      1 <0>        -0.1574
      2 C2         -0.0126    1.0758    0.0080 C.ar      1 <0>        -0.0862
      3 C3          1.1749    1.7750    0.0004 C.ar      1 <0>        -0.1391
      4 C4          1.1641    3.1667    0.0079 C.ar      1 <0>         0.1486
      5 C5         -0.0644    3.8435    0.0233 C.ar      1 <0>        -0.1090
      6 C6         -1.2573    3.1243    0.0308 C.ar      1 <0>        -0.0634
      7 C7          0.2514    5.2837    0.0275 C.ar      1 <0>        -0.1090
      8 C8         -0.5311    6.4360    0.0405 C.ar      1 <0>        -0.0633
      9 C9          0.0738    7.6743    0.0405 C.ar      1 <0>        -0.1575
     10 C10         1.4566    7.7758    0.0280 C.ar      1 <0>        -0.0861
     11 C11         2.2426    6.6439    0.0156 C.ar      1 <0>        -0.1391
     12 C12         1.6503    5.3844    0.0144 C.ar      1 <0>         0.1487
     13 N1          2.1795    4.1063    0.0028 N.pl3     1 <0>        -0.4977
     14 C13         3.6105    3.7926   -0.0122 C.3       1 <0>         0.1099
     15 C14         4.0950    3.6902   -1.4598 C.3       1 <0>        -0.1138
     16 C15         5.5894    3.3626   -1.4755 C.3       1 <0>        -0.1552
     17 C16         6.0667    3.2618   -2.9014 C.2       1 <0>         0.4592
     18 O1          5.2911    3.4344   -3.8116 O.co2     1 <0>        -0.6387
     19 H1         -2.1500    1.1873    0.0184 H         1 <0>         0.1229
     20 H2          0.0021   -0.0041    0.0020 H         1 <0>         0.1262
     21 H3          2.1146    1.2427   -0.0118 H         1 <0>         0.1239
     22 H4         -2.2036    3.6446    0.0427 H         1 <0>         0.1213
     23 H5         -1.6083    6.3593    0.0510 H         1 <0>         0.1213
     24 H6         -0.5314    8.5688    0.0506 H         1 <0>         0.1229
     25 H7          1.9218    8.7505    0.0285 H         1 <0>         0.1262
     26 H8          3.3187    6.7342    0.0066 H         1 <0>         0.1239
     27 H9          4.1608    4.5816    0.5003 H         1 <0>         0.0846
     28 H10         3.7796    2.8430    0.4956 H         1 <0>         0.0846
     29 H11         3.5447    2.9012   -1.9722 H         1 <0>         0.0673
     30 H12         3.9259    4.6398   -1.9675 H         1 <0>         0.0673
     31 H13         6.1398    4.1517   -0.9630 H         1 <0>         0.0658
     32 H14         5.7586    2.4130   -0.9678 H         1 <0>         0.0657
     33 O2          7.3534    2.9804   -3.1601 O.co2     1 <0>        -0.7749
@<TRIPOS>BOND
     1    1    6 ar
     2    1    2 ar
     3    1   19 1
     4    2    3 ar
     5    2   20 1
     6    3    4 ar
     7    3   21 1
     8    4   13 1
     9    4    5 ar
    10    5    6 ar
    11    5    7 1
    12    6   22 1
    13    7   12 ar
    14    7    8 ar
    15    8    9 ar
    16    8   23 1
    17    9   10 ar
    18    9   24 1
    19   10   11 ar
    20   10   25 1
    21   11   12 ar
    22   11   26 1
    23   12   13 1
    24   13   14 1
    25   14   15 1
    26   14   27 1
    27   14   28 1
    28   15   16 1
    29   15   29 1
    30   15   30 1
    31   16   17 1
    32   16   31 1
    33   16   32 1
    34   17   18 2
    35   17   33 1
@<TRIPOS>MOLECULE
ZINC01549397
   61    65     0     0     0
SMALL
USER_CHARGES

@<TRIPOS>ATOM
      1 C1         -1.2141    7.4958   -4.3300 C.3       1 <0>        -0.1465
      2 C2         -2.2921    7.1322   -3.3069 C.3       1 <0>        -0.0637
      3 C3         -1.9963    5.7731   -2.7269 C.2       1 <0>         0.1067
      4 C4         -2.3377    4.5735   -3.2757 C.2       1 <0>        -0.1853
      5 C5         -1.8687    3.5566   -2.4057 C.2       1 <0>         0.1309
      6 N1         -1.2700    4.1371   -1.3885 N.2       1 <0>        -0.2461
      7 N2         -1.3419    5.5242   -1.5643 N.pl3     1 <0>        -0.3139
      8 C6         -0.8229    6.4884   -0.6935 C.ar      1 <0>         0.1538
      9 C7          0.0347    7.4688   -1.1713 C.ar      1 <0>        -0.1200
     10 C8          0.5500    8.4170   -0.3090 C.ar      1 <0>        -0.1073
     11 C9          0.2118    8.3984    1.0330 C.ar      1 <0>        -0.1093
     12 C10        -0.6440    7.4321    1.5214 C.ar      1 <0>        -0.0928
     13 C11        -1.1704    6.4708    0.6618 C.ar      1 <0>        -0.0193
     14 C12        -2.0900    5.4299    1.1817 C.ar      1 <0>        -0.0115
     15 C13        -3.3551    5.2698    0.6179 C.ar      1 <0>        -0.1438
     16 C14        -4.2065    4.2960    1.0991 C.ar      1 <0>        -0.0755
     17 C15        -3.8133    3.4853    2.1478 C.ar      1 <0>        -0.2070
     18 C16        -2.5558    3.6383    2.7150 C.ar      1 <0>         0.1448
     19 C17        -1.6923    4.6091    2.2342 C.ar      1 <0>        -0.1347
     20 O1         -2.1714    2.8355    3.7419 O.3       1 <0>        -0.2867
     21 C18        -3.1119    1.8559    4.1867 C.3       1 <0>         0.0190
     22 C19        -2.5150    1.0657    5.3227 C.2       1 <0>         0.4698
     23 O2         -1.3987    1.3158    5.7115 O.co2     1 <0>        -0.6136
     24 C20        -2.0208    2.0960   -2.6099 C.ar      1 <0>        -0.0129
     25 C21        -3.1739    1.5894   -3.2074 C.ar      1 <0>        -0.0875
     26 C22        -3.3077    0.2294   -3.3996 C.ar      1 <0>        -0.1223
     27 C23        -2.3054   -0.6316   -2.9903 C.ar      1 <0>        -0.1113
     28 C24        -1.1613   -0.1351   -2.3920 C.ar      1 <0>        -0.1208
     29 C25        -1.0140    1.2236   -2.1998 C.ar      1 <0>        -0.0888
     30 C26        -3.0677    4.3686   -4.5508 C.ar      1 <0>         0.0093
     31 C27        -4.3886    4.7946   -4.6768 C.ar      1 <0>        -0.1130
     32 C28        -5.0609    4.6070   -5.8674 C.ar      1 <0>        -0.1181
     33 C29        -4.4300    3.9863   -6.9305 C.ar      1 <0>        -0.1246
     34 C30        -3.1209    3.5563   -6.8092 C.ar      1 <0>        -0.1169
     35 C31        -2.4370    3.7443   -5.6253 C.ar      1 <0>        -0.1015
     36 H1         -1.3689    8.5188   -4.6729 H         1 <0>         0.0657
     37 H2         -0.2309    7.4126   -3.8669 H         1 <0>         0.0554
     38 H3         -1.2747    6.8150   -5.1791 H         1 <0>         0.0629
     39 H4         -3.2660    7.1144   -3.7961 H         1 <0>         0.0917
     40 H5         -2.3001    7.8741   -2.5084 H         1 <0>         0.0780
     41 H6          0.3026    7.4883   -2.2173 H         1 <0>         0.1324
     42 H7          1.2203    9.1764   -0.6838 H         1 <0>         0.1321
     43 H8          0.6189    9.1434    1.7006 H         1 <0>         0.1320
     44 H9         -0.9055    7.4214    2.5692 H         1 <0>         0.1370
     45 H10        -3.6668    5.9045   -0.1985 H         1 <0>         0.1072
     46 H11        -5.1843    4.1698    0.6583 H         1 <0>         0.1186
     47 H12        -4.4849    2.7276    2.5237 H         1 <0>         0.1283
     48 H13        -0.7132    4.7289    2.6742 H         1 <0>         0.1286
     49 H14        -4.0202    2.3527    4.5276 H         1 <0>         0.0658
     50 H15        -3.3528    1.1833    3.3634 H         1 <0>         0.0659
     51 H16        -3.9591    2.2604   -3.5230 H         1 <0>         0.1237
     52 H17        -4.1985   -0.1638   -3.8668 H         1 <0>         0.1230
     53 H18        -2.4165   -1.6956   -3.1387 H         1 <0>         0.1221
     54 H19        -0.3820   -0.8120   -2.0744 H         1 <0>         0.1248
     55 H20        -0.1201    1.6102   -1.7329 H         1 <0>         0.1247
     56 H21        -4.8838    5.2747   -3.8457 H         1 <0>         0.1195
     57 H22        -6.0831    4.9408   -5.9676 H         1 <0>         0.1203
     58 H23        -4.9614    3.8372   -7.8588 H         1 <0>         0.1183
     59 H24        -2.6332    3.0723   -7.6424 H         1 <0>         0.1197
     60 H25        -1.4148    3.4085   -5.5318 H         1 <0>         0.1183
     61 O3         -3.2235    0.0841    5.9025 O.co2     1 <0>        -0.7555
@<TRIPOS>BOND
     1    1    2 1
     2    1   36 1
     3    1   37 1
     4    1   38 1
     5    2    3 1
     6    2   39 1
     7    2   40 1
     8    3    7 1
     9    3    4 2
    10    4    5 1
    11    4   30 1
    12    5    6 2
    13    5   24 1
    14    6    7 1
    15    7    8 1
    16    8   13 ar
    17    8    9 ar
    18    9   10 ar
    19    9   41 1
    20   10   11 ar
    21   10   42 1
    22   11   12 ar
    23   11   43 1
    24   12   13 ar
    25   12   44 1
    26   13   14 1
    27   14   19 ar
    28   14   15 ar
    29   15   16 ar
    30   15   45 1
    31   16   17 ar
    32   16   46 1
    33   17   18 ar
    34   17   47 1
    35   18   19 ar
    36   18   20 1
    37   19   48 1
    38   20   21 1
    39   21   22 1
    40   21   49 1
    41   21   50 1
    42   22   23 2
    43   22   61 1
    44   24   29 ar
    45   24   25 ar
    46   25   26 ar
    47   25   51 1
    48   26   27 ar
    49   26   52 1
    50   27   28 ar
    51   27   53 1
    52   28   29 ar
    53   28   54 1
    54   29   55 1
    55   30   35 ar
    56   30   31 ar
    57   31   32 ar
    58   31   56 1
    59   32   33 ar
    60   32   57 1
    61   33   34 ar
    62   33   58 1
    63   34   35 ar
    64   34   59 1
    65   35   60 1
@<TRIPOS>MOLECULE
ZINC06072466
   49    48     0     0     0
SMALL
USER_CHARGES
palmitic acid
@<TRIPOS>ATOM
      1 H1          6.8090   11.4123   -0.8917 H         1 <0>         0.0599
      2 C1          7.3169   11.0245   -0.0086 C.3       1 <0>        -0.1203
      3 C2          8.7780   11.4783   -0.0201 C.3       1 <0>        -0.1206
      4 C3          8.8373   13.0071   -0.0125 C.3       1 <0>        -0.1205
      5 C4         10.2985   13.4608   -0.0240 C.3       1 <0>        -0.1212
      6 C5         10.3578   14.9897   -0.0163 C.3       1 <0>        -0.1212
      7 C6         11.8189   15.4434   -0.0279 C.3       1 <0>        -0.1262
      8 C7         11.8783   16.9722   -0.0202 C.3       1 <0>        -0.1538
      9 C8          7.2575    9.4957   -0.0162 C.3       1 <0>        -0.1206
     10 H2          7.7653    9.1080    0.8669 H         1 <0>         0.0601
     11 C9          5.7964    9.0420   -0.0047 C.3       1 <0>        -0.1200
     12 C10         5.7370    7.5131   -0.0124 C.3       1 <0>        -0.1205
     13 C11         4.2759    7.0594   -0.0009 C.3       1 <0>        -0.1193
     14 C12         4.2166    5.5306   -0.0085 C.3       1 <0>        -0.1194
     15 C13         2.7554    5.0768    0.0030 C.3       1 <0>        -0.1198
     16 C14         2.6961    3.5480   -0.0046 C.3       1 <0>        -0.0989
     17 C15         1.2350    3.0943    0.0069 C.3       1 <0>        -0.1583
     18 C16         1.1765    1.5884   -0.0006 C.2       1 <0>         0.4569
     19 O1          2.1986    0.9442   -0.0139 O.co2     1 <0>        -0.6426
     20 H3          6.8260   11.4027    0.8882 H         1 <0>         0.0599
     21 H4          9.2858   11.0905    0.8630 H         1 <0>         0.0602
     22 H5          9.2688   11.1001   -0.9169 H         1 <0>         0.0602
     23 H6          8.3295   13.3948   -0.8956 H         1 <0>         0.0602
     24 H7          8.3465   13.3853    0.8843 H         1 <0>         0.0601
     25 H8         10.8063   13.0731    0.8591 H         1 <0>         0.0604
     26 H9         10.7893   13.0826   -0.9207 H         1 <0>         0.0604
     27 H10         9.8500   15.3774   -0.8994 H         1 <0>         0.0604
     28 H11         9.8670   15.3678    0.8804 H         1 <0>         0.0604
     29 H12        12.3268   15.0556    0.8553 H         1 <0>         0.0602
     30 H13        12.3098   15.0652   -0.9246 H         1 <0>         0.0602
     31 H14        11.3704   17.3600   -0.9033 H         1 <0>         0.0531
     32 H15        11.3874   17.3504    0.8765 H         1 <0>         0.0531
     33 H16        12.9192   17.2955   -0.0284 H         1 <0>         0.0526
     34 H17         7.7483    9.1175   -0.9130 H         1 <0>         0.0601
     35 H18         5.2886    9.4297   -0.8878 H         1 <0>         0.0595
     36 H19         5.3056    9.4201    0.8920 H         1 <0>         0.0595
     37 H20         6.2449    7.1254    0.8707 H         1 <0>         0.0599
     38 H21         6.2279    7.1350   -0.9091 H         1 <0>         0.0599
     39 H22         3.7681    7.4471   -0.8840 H         1 <0>         0.0587
     40 H23         3.7851    7.4376    0.8959 H         1 <0>         0.0587
     41 H24         4.7244    5.1428    0.8746 H         1 <0>         0.0595
     42 H25         4.7074    5.1524   -0.9053 H         1 <0>         0.0595
     43 H26         2.2476    5.4646   -0.8801 H         1 <0>         0.0553
     44 H27         2.2646    5.4550    0.8998 H         1 <0>         0.0553
     45 H28         3.2039    3.1603    0.8785 H         1 <0>         0.0583
     46 H29         3.1869    3.1698   -0.9014 H         1 <0>         0.0583
     47 H30         0.7272    3.4820   -0.8762 H         1 <0>         0.0612
     48 H31         0.7441    3.4725    0.9036 H         1 <0>         0.0612
     49 O2         -0.0110    0.9628    0.0073 O.co2     1 <0>        -0.7801
@<TRIPOS>BOND
     1    1    2 1
     2    2    3 1
     3    2    9 1
     4    2   20 1
     5    3    4 1
     6    3   21 1
     7    3   22 1
     8    4    5 1
     9    4   23 1
    10    4   24 1
    11    5    6 1
    12    5   25 1
    13    5   26 1
    14    6    7 1
    15    6   27 1
    16    6   28 1
    17    7    8 1
    18    7   29 1
    19    7   30 1
    20    8   31 1
    21    8   32 1
    22    8   33 1
    23    9   10 1
    24    9   11 1
    25    9   34 1
    26   11   12 1
    27   11   35 1
    28   11   36 1
    29   12   13 1
    30   12   37 1
    31   12   38 1
    32   13   14 1
    33   13   39 1
    34   13   40 1
    35   14   15 1
    36   14   41 1
    37   14   42 1
    38   15   16 1
    39   15   43 1
    40   15   44 1
    41   16   17 1
    42   16   45 1
    43   16   46 1
    44   17   18 1
    45   17   47 1
    46   17   48 1
    47   18   19 2
    48   18   49 1
@<TRIPOS>MOLECULE
ZINC06845860
   53    52     0     0     0
SMALL
USER_CHARGES
(Z)-octadec-9-enoic acid
@<TRIPOS>ATOM
      1 C1          0.0625    2.5023   -8.6169 C.3       1 <0>        -0.1537
      2 C2          0.6195    1.7877   -7.3840 C.3       1 <0>        -0.1265
      3 C3         -0.1205    2.2727   -6.1358 C.3       1 <0>        -0.1208
      4 C4          0.4365    1.5582   -4.9028 C.3       1 <0>        -0.1217
      5 C5         -0.3035    2.0432   -3.6546 C.3       1 <0>        -0.1198
      6 C6          0.2535    1.3286   -2.4217 C.3       1 <0>        -0.1215
      7 C7         -0.4865    1.8136   -1.1734 C.3       1 <0>        -0.1127
      8 C8          0.0704    1.0991    0.0595 C.3       1 <0>        -0.1021
      9 C9         -0.6584    1.5768    1.2890 C.2       1 <0>        -0.1657
     10 C10        -1.1961    0.7092    2.1102 C.2       1 <0>        -0.1537
     11 C11        -0.9432   -0.7643    1.9210 C.3       1 <0>        -0.1025
     12 C12        -0.4114   -1.3620    3.2252 C.3       1 <0>        -0.1136
     13 C13        -0.1547   -2.8581    3.0332 C.3       1 <0>        -0.1192
     14 C14         0.3771   -3.4558    4.3373 C.3       1 <0>        -0.1193
     15 C15         0.6338   -4.9518    4.1453 C.3       1 <0>        -0.1197
     16 C16         1.1656   -5.5496    5.4494 C.3       1 <0>        -0.0989
     17 C17         1.4223   -7.0456    5.2574 C.3       1 <0>        -0.1582
     18 C18         1.9461   -7.6343    6.5420 C.2       1 <0>         0.4568
     19 O1          2.0984   -6.9297    7.5116 O.co2     1 <0>        -0.6425
     20 H1          0.2014    3.5778   -8.5072 H         1 <0>         0.0527
     21 H2          0.5897    2.1567   -9.5062 H         1 <0>         0.0528
     22 H3         -1.0002    2.2813   -8.7158 H         1 <0>         0.0530
     23 H4          1.6823    2.0087   -7.2852 H         1 <0>         0.0603
     24 H5          0.4807    0.7122   -7.4938 H         1 <0>         0.0607
     25 H6         -1.1833    2.0518   -6.2346 H         1 <0>         0.0603
     26 H7          0.0183    3.3483   -6.0260 H         1 <0>         0.0599
     27 H8          1.4993    1.7791   -4.8040 H         1 <0>         0.0607
     28 H9          0.2977    0.4826   -5.0126 H         1 <0>         0.0612
     29 H10        -1.3663    1.8222   -3.7534 H         1 <0>         0.0603
     30 H11        -0.1647    3.1187   -3.5449 H         1 <0>         0.0598
     31 H12         1.3162    1.5496   -2.3228 H         1 <0>         0.0611
     32 H13         0.1146    0.2531   -2.5314 H         1 <0>         0.0618
     33 H14        -1.5493    1.5927   -1.2723 H         1 <0>         0.0609
     34 H15        -0.3477    2.8892   -1.0637 H         1 <0>         0.0597
     35 H16        -0.0684    0.0235   -0.0502 H         1 <0>         0.0772
     36 H17         1.1332    1.3200    0.1583 H         1 <0>         0.0673
     37 H18        -0.7375    2.6344    1.4931 H         1 <0>         0.1055
     38 H19        -1.8206    1.0500    2.9228 H         1 <0>         0.1068
     39 H20        -1.8742   -1.2605    1.6470 H         1 <0>         0.0676
     40 H21        -0.2081   -0.9081    1.1292 H         1 <0>         0.0753
     41 H22         0.5196   -0.8659    3.4992 H         1 <0>         0.0612
     42 H23        -1.1465   -1.2183    4.0171 H         1 <0>         0.0609
     43 H24        -1.0857   -3.3543    2.7591 H         1 <0>         0.0595
     44 H25         0.5804   -3.0019    2.2413 H         1 <0>         0.0591
     45 H26         1.3081   -2.9596    4.6114 H         1 <0>         0.0598
     46 H27        -0.3580   -3.3120    5.1292 H         1 <0>         0.0598
     47 H28        -0.2972   -5.4480    3.8712 H         1 <0>         0.0555
     48 H29         1.3689   -5.0956    3.3534 H         1 <0>         0.0554
     49 H30         2.0966   -5.0534    5.7235 H         1 <0>         0.0584
     50 H31         0.4305   -5.4058    6.2413 H         1 <0>         0.0584
     51 H32         0.4913   -7.5418    4.9834 H         1 <0>         0.0612
     52 H33         2.1574   -7.1894    4.4655 H         1 <0>         0.0612
     53 O2          2.2434   -8.9416    6.6090 O.co2     1 <0>        -0.7802
@<TRIPOS>BOND
     1    1    2 1
     2    1   20 1
     3    1   21 1
     4    1   22 1
     5    2    3 1
     6    2   23 1
     7    2   24 1
     8    3    4 1
     9    3   25 1
    10    3   26 1
    11    4    5 1
    12    4   27 1
    13    4   28 1
    14    5    6 1
    15    5   29 1
    16    5   30 1
    17    6    7 1
    18    6   31 1
    19    6   32 1
    20    7    8 1
    21    7   33 1
    22    7   34 1
    23    8    9 1
    24    8   35 1
    25    8   36 1
    26    9   10 2
    27    9   37 1
    28   10   11 1
    29   10   38 1
    30   11   12 1
    31   11   39 1
    32   11   40 1
    33   12   13 1
    34   12   41 1
    35   12   42 1
    36   13   14 1
    37   13   43 1
    38   13   44 1
    39   14   15 1
    40   14   45 1
    41   14   46 1
    42   15   16 1
    43   15   47 1
    44   15   48 1
    45   16   17 1
    46   16   49 1
    47   16   50 1
    48   17   18 1
    49   17   51 1
    50   17   52 1
    51   18   19 2
    52   18   53 1
