@<TRIPOS>MOLECULE
ZINC14879987
   75    78     0     0     0
SMALL
USER_CHARGES

@<TRIPOS>ATOM
      1 C1         -1.9530    1.8185    1.0442 C.3       1 <0>        -0.1533
      2 C2         -2.0541    0.2919    1.0551 C.3       1 <0>        -0.1246
      3 C3         -1.1692   -0.2857   -0.0513 C.3       1 <0>        -0.1518
      4 C4         -1.1662   -1.8128    0.0432 C.3       1 <0>         0.1455
      5 C5         -0.2831   -2.3922   -1.0682 C.3       1 <0>        -0.2040
      6 C6          1.1535   -1.9960   -0.7926 C.2       1 <0>         0.3667
      7 O1          1.8377   -1.4797   -1.6432 O.2       1 <0>        -0.4152
      8 C7          1.6964   -2.2747    0.5970 C.3       1 <0>        -0.1769
      9 C8          0.6243   -1.8577    1.5846 C.2       1 <0>         0.5033
     10 O2         -0.6497   -2.2113    1.3170 O.3       1 <0>        -0.3546
     11 O3          0.9019   -1.2297    2.5788 O.2       1 <0>        -0.4335
     12 C9          1.9955   -3.7672    0.7508 C.3       1 <0>        -0.0195
     13 H1          1.0959   -4.3425    0.5317 H         1 <0>         0.0910
     14 C10         2.4463   -4.0519    2.1849 C.3       1 <0>        -0.1178
     15 C11         2.6249   -5.5597    2.3735 C.3       1 <0>        -0.1483
     16 C12         3.0897   -4.1616   -0.2074 C.ar      1 <0>        -0.0480
     17 C13         4.3342   -3.5649   -0.1183 C.ar      1 <0>        -0.1832
     18 C14         5.3408   -3.9234   -0.9957 C.ar      1 <0>        -0.0621
     19 C15         5.1065   -4.8798   -1.9644 C.ar      1 <0>        -0.2496
     20 C16         3.8580   -5.4814   -2.0565 C.ar      1 <0>         0.2599
     21 C17         2.8504   -5.1224   -1.1699 C.ar      1 <0>        -0.1542
     22 N1          3.6177   -6.4488   -3.0348 N.2       1 <0>        -1.0574
     23 S1          4.8219   -6.8797   -4.0867 S.o2      1 <0>         2.5341
     24 O4          5.0874   -5.7379   -4.8898 O.2       1 <0>        -0.9854
     25 O5          5.8286   -7.5172   -3.3124 O.2       1 <0>        -0.9646
     26 C18         4.1596   -8.1086   -5.1618 C.ar      1 <0>        -0.3337
     27 C19         4.2554   -9.4432   -4.8149 C.ar      1 <0>        -0.0389
     28 C20         3.7311  -10.4021   -5.6677 C.ar      1 <0>         0.0449
     29 C21         3.1273   -9.9809   -6.8429 C.ar      1 <0>        -0.1855
     30 C22         3.0687   -8.6290   -7.1228 C.ar      1 <0>         0.1816
     31 N2          3.5736   -7.7442   -6.2853 N.ar      1 <0>        -0.3792
     32 C23         2.5428  -10.9849   -7.8028 C.3       1 <0>         0.5248
     33 F1          1.2025  -11.2171   -7.4760 F         1 <0>        -0.1537
     34 F2          2.6250  -10.4858   -9.1071 F         1 <0>        -0.1603
     35 F3          3.2583  -12.1840   -7.7164 F         1 <0>        -0.1552
     36 C24        -2.5950   -2.3367   -0.1147 C.3       1 <0>        -0.0997
     37 C25        -2.5917   -3.8638   -0.0202 C.3       1 <0>        -0.0865
     38 C26        -3.9990   -4.3797   -0.1757 C.ar      1 <0>        -0.0804
     39 C27        -4.8040   -4.5381    0.9369 C.ar      1 <0>        -0.1149
     40 C28        -6.0949   -5.0114    0.7943 C.ar      1 <0>        -0.1178
     41 C29        -6.5810   -5.3259   -0.4609 C.ar      1 <0>        -0.1252
     42 C30        -5.7764   -5.1667   -1.5736 C.ar      1 <0>        -0.1193
     43 C31        -4.4869   -4.6893   -1.4315 C.ar      1 <0>        -0.1186
     44 H2         -2.5835    2.2300    1.8323 H         1 <0>         0.0578
     45 H3         -0.9182    2.1153    1.2145 H         1 <0>         0.0534
     46 H4         -2.2854    2.1978    0.0778 H         1 <0>         0.0540
     47 H5         -1.7218   -0.0873    2.0214 H         1 <0>         0.0732
     48 H6         -3.0890   -0.0049    0.8847 H         1 <0>         0.0701
     49 H7         -1.5583    0.0174   -1.0233 H         1 <0>         0.0896
     50 H8         -0.1517    0.0875    0.0653 H         1 <0>         0.0649
     51 H9         -0.3691   -3.4787   -1.0766 H         1 <0>         0.1224
     52 H10        -0.5960   -1.9912   -2.0323 H         1 <0>         0.1141
     53 H11         3.3936   -3.5473    2.3749 H         1 <0>         0.0730
     54 H12         1.6930   -3.6852    2.8821 H         1 <0>         0.0638
     55 H13         3.4411   -5.9107    1.7421 H         1 <0>         0.0632
     56 H14         2.8567   -5.7703    3.4175 H         1 <0>         0.0547
     57 H15         1.7040   -6.0723    2.0953 H         1 <0>         0.0543
     58 H16         4.5200   -2.8168    0.6382 H         1 <0>         0.1104
     59 H17         6.3112   -3.4550   -0.9238 H         1 <0>         0.1116
     60 H18         5.8931   -5.1592   -2.6497 H         1 <0>         0.0965
     61 H19         1.8797   -5.5912   -1.2361 H         1 <0>         0.1163
     62 H20         4.7330   -9.7352   -3.8913 H         1 <0>         0.2116
     63 H21         3.7917  -11.4522   -5.4228 H         1 <0>         0.1972
     64 H22         2.6001   -8.2929   -8.0360 H         1 <0>         0.2266
     65 H23        -3.2223   -1.9251    0.6760 H         1 <0>         0.0881
     66 H24        -2.9880   -2.0336   -1.0851 H         1 <0>         0.0905
     67 H25        -1.9643   -4.2753   -0.8109 H         1 <0>         0.0765
     68 H26        -2.1987   -4.1669    0.9502 H         1 <0>         0.0856
     69 H27        -4.4242   -4.2924    1.9176 H         1 <0>         0.1229
     70 H28        -6.7236   -5.1358    1.6636 H         1 <0>         0.1211
     71 H29        -7.5894   -5.6964   -0.5723 H         1 <0>         0.1197
     72 H30        -6.1561   -5.4127   -2.5543 H         1 <0>         0.1199
     73 H31        -3.8595   -4.5614   -2.3012 H         1 <0>         0.1205
     74 H32         2.6031   -1.6936    0.7653 H         1 <0>         0.1328
     75 H33         3.5159   -6.8008   -6.5035 H         1 <0>         0.4649
@<TRIPOS>BOND
     1    1    2 1
     2    1   44 1
     3    1   45 1
     4    1   46 1
     5    2    3 1
     6    2   47 1
     7    2   48 1
     8    3    4 1
     9    3   49 1
    10    3   50 1
    11    4   10 1
    12    4    5 1
    13    4   36 1
    14    5    6 1
    15    5   51 1
    16    5   52 1
    17    6    7 2
    18    6    8 1
    19    8    9 1
    20    8   12 1
    21    8   74 1
    22    9   10 1
    23    9   11 2
    24   12   13 1
    25   12   14 1
    26   12   16 1
    27   14   15 1
    28   14   53 1
    29   14   54 1
    30   15   55 1
    31   15   56 1
    32   15   57 1
    33   16   21 ar
    34   16   17 ar
    35   17   18 ar
    36   17   58 1
    37   18   19 ar
    38   18   59 1
    39   19   20 ar
    40   19   60 1
    41   20   21 ar
    42   20   22 1
    43   21   61 1
    44   22   23 1
    45   23   24 2
    46   23   25 2
    47   23   26 1
    48   26   31 ar
    49   26   27 ar
    50   27   28 ar
    51   27   62 1
    52   28   29 ar
    53   28   63 1
    54   29   30 ar
    55   29   32 1
    56   30   31 ar
    57   30   64 1
    58   31   75 1
    59   32   33 1
    60   32   34 1
    61   32   35 1
    62   36   37 1
    63   36   65 1
    64   36   66 1
    65   37   38 1
    66   37   67 1
    67   37   68 1
    68   38   43 ar
    69   38   39 ar
    70   39   40 ar
    71   39   69 1
    72   40   41 ar
    73   40   70 1
    74   41   42 ar
    75   41   71 1
    76   42   43 ar
    77   42   72 1
    78   43   73 1
