@<TRIPOS>MOLECULE
ZINC24044436
   76    80     0     0     0
SMALL
USER_CHARGES
1-[5-tert-butyl-2-(p-tolyl)pyrazol-3-yl]-3-[4-(2-morpholinoethoxy)-1-naphthyl]urea
@<TRIPOS>ATOM
      1 C1          3.3307    9.5387   -0.3298 C.3       1 <0>        -0.1193
      2 C2          2.0898    8.6848   -0.2813 C.ar      1 <0>        -0.0892
      3 C3          0.9612    9.0673   -0.9828 C.ar      1 <0>        -0.0934
      4 C4         -0.1775    8.2868   -0.9403 C.ar      1 <0>        -0.1062
      5 C5         -0.1884    7.1174   -0.1919 C.ar      1 <0>         0.1564
      6 C6          0.9444    6.7392    0.5163 C.ar      1 <0>        -0.1500
      7 C7          2.0821    7.5207    0.4649 C.ar      1 <0>        -0.0924
      8 N1         -1.3424    6.3233   -0.1469 N.pl3     1 <0>        -0.3448
      9 C8         -1.3788    4.9645   -0.0790 C.2       1 <0>         0.3309
     10 C9         -2.6878    4.5925   -0.0483 C.2       1 <0>        -0.2629
     11 C10        -3.4651    5.7529   -0.1047 C.2       1 <0>         0.1115
     12 N2         -2.6643    6.7861   -0.1672 N.2       1 <0>        -0.2779
     13 C11        -4.9712    5.8052   -0.0954 C.3       1 <0>         0.0134
     14 C12        -5.4824    5.5257    1.3193 C.3       1 <0>        -0.1388
     15 C13        -5.4360    7.1933   -0.5406 C.3       1 <0>        -0.1390
     16 C14        -5.5242    4.7499   -1.0553 C.3       1 <0>        -0.1399
     17 N3         -0.2771    4.1104   -0.0417 N.am      1 <0>        -0.6731
     18 C15        -0.4603    2.7771    0.0314 C.2       1 <0>         0.7165
     19 O1         -1.5862    2.3190    0.0649 O.2       1 <0>        -0.5445
     20 N4          0.6045    1.9516    0.0675 N.am      1 <0>        -0.6819
     21 C16         0.4162    0.5655    0.0407 C.ar      1 <0>         0.1254
     22 C17        -0.6813    0.0024    0.6542 C.ar      1 <0>        -0.0743
     23 C18        -0.8835   -1.3742    0.6299 C.ar      1 <0>        -0.2061
     24 C19         0.0048   -2.2051    0.0082 C.ar      1 <0>         0.1395
     25 C20         1.1426   -1.6672   -0.6254 C.ar      1 <0>        -0.0565
     26 C21         1.3517   -0.2661   -0.6096 C.ar      1 <0>        -0.0251
     27 C22         2.4862    0.2686   -1.2409 C.ar      1 <0>        -0.1232
     28 C23         3.3687   -0.5639   -1.8588 C.ar      1 <0>        -0.0971
     29 C24         3.1636   -1.9422   -1.8742 C.ar      1 <0>        -0.1313
     30 C25         2.0750   -2.4951   -1.2724 C.ar      1 <0>        -0.0739
     31 O2         -0.2080   -3.5475    0.0012 O.3       1 <0>        -0.2916
     32 C26        -1.3823   -4.0216    0.6634 C.3       1 <0>         0.0605
     33 C27        -1.4510   -5.5459    0.5508 C.3       1 <0>         0.0539
     34 N5         -0.3065   -6.1409    1.2538 N.3       1 <0>        -0.5287
     35 C28        -0.1978   -7.5776    0.9617 C.3       1 <0>         0.0167
     36 C29         1.0390   -8.1436    1.6645 C.3       1 <0>         0.0615
     37 O3          0.9456   -7.8818    3.0674 O.3       1 <0>        -0.3849
     38 C30         0.8389   -6.4921    3.3879 C.3       1 <0>         0.0625
     39 C31        -0.3999   -5.9094    2.7026 C.3       1 <0>         0.0120
     40 H1          3.1476   10.4156   -0.9682 H         1 <0>         0.0687
     41 H2          4.1639    8.9515   -0.7434 H         1 <0>         0.0732
     42 H3          3.5863    9.8722    0.6868 H         1 <0>         0.0734
     43 H4          0.9703    9.9770   -1.5648 H         1 <0>         0.1335
     44 H5         -1.0587    8.5861   -1.4884 H         1 <0>         0.1355
     45 H6          0.9374    5.8324    1.1029 H         1 <0>         0.1262
     46 H7          2.9651    7.2245    1.0118 H         1 <0>         0.1343
     47 H8         -3.0598    3.5802    0.0092 H         1 <0>         0.1784
     48 H9         -6.5817    5.5639    1.3261 H         1 <0>         0.0656
     49 H10        -5.0849    6.2845    2.0094 H         1 <0>         0.0565
     50 H11        -5.1481    4.5278    1.6395 H         1 <0>         0.0614
     51 H12        -6.5353    7.2315   -0.5338 H         1 <0>         0.0604
     52 H13        -5.0684    7.3943   -1.5577 H         1 <0>         0.0568
     53 H14        -5.0385    7.9519    0.1496 H         1 <0>         0.0614
     54 H15        -6.6235    4.7882   -1.0484 H         1 <0>         0.0647
     55 H16        -5.1900    3.7520   -0.7351 H         1 <0>         0.0637
     56 H17        -5.1566    4.9509   -2.0724 H         1 <0>         0.0570
     57 H18         0.7414    4.5248   -0.0719 H         1 <0>         0.4294
     58 H19         1.6215    2.3677    0.1180 H         1 <0>         0.4280
     59 H20        -1.3959    0.6376    1.1566 H         1 <0>         0.1450
     60 H21        -1.7537   -1.7925    1.1139 H         1 <0>         0.1296
     61 H22         2.6580    1.3348   -1.2361 H         1 <0>         0.1222
     62 H23         4.2405   -0.1501   -2.3437 H         1 <0>         0.1243
     63 H24         3.8790   -2.5810   -2.3706 H         1 <0>         0.1250
     64 H25         1.9286   -3.5650   -1.2926 H         1 <0>         0.1353
     65 H26        -1.3465   -3.7335    1.7244 H         1 <0>         0.0659
     66 H27        -2.2726   -3.5787    0.1931 H         1 <0>         0.0716
     67 H28        -2.3868   -5.9052    1.0039 H         1 <0>         0.0605
     68 H29        -1.4216   -5.8370   -0.5096 H         1 <0>         0.0912
     69 H30        -1.0977   -8.0949    1.3258 H         1 <0>         0.0437
     70 H31        -0.1044   -7.7249   -0.1244 H         1 <0>         0.0891
     71 H32         1.0925   -9.2291    1.4949 H         1 <0>         0.1001
     72 H33         1.9424   -7.6643    1.2595 H         1 <0>         0.0618
     73 H34         0.7475   -6.3731    4.4776 H         1 <0>         0.0994
     74 H35         1.7375   -5.9645    3.0355 H         1 <0>         0.0616
     75 H36        -0.4553   -4.8284    2.8983 H         1 <0>         0.0869
     76 H37        -1.3031   -6.3997    3.0948 H         1 <0>         0.0443
@<TRIPOS>BOND
     1    1    2 1
     2    1   40 1
     3    1   41 1
     4    1   42 1
     5    2    7 ar
     6    2    3 ar
     7    3    4 ar
     8    3   43 1
     9    4    5 ar
    10    4   44 1
    11    5    6 ar
    12    5    8 1
    13    6    7 ar
    14    6   45 1
    15    7   46 1
    16    8   12 1
    17    8    9 1
    18    9   10 2
    19    9   17 1
    20   10   11 1
    21   10   47 1
    22   11   12 2
    23   11   13 1
    24   13   14 1
    25   13   15 1
    26   13   16 1
    27   14   48 1
    28   14   49 1
    29   14   50 1
    30   15   51 1
    31   15   52 1
    32   15   53 1
    33   16   54 1
    34   16   55 1
    35   16   56 1
    36   17   18 am
    37   17   57 1
    38   18   19 2
    39   18   20 am
    40   20   21 1
    41   20   58 1
    42   21   26 ar
    43   21   22 ar
    44   22   23 ar
    45   22   59 1
    46   23   24 ar
    47   23   60 1
    48   24   25 ar
    49   24   31 1
    50   25   30 ar
    51   25   26 ar
    52   26   27 ar
    53   27   28 ar
    54   27   61 1
    55   28   29 ar
    56   28   62 1
    57   29   30 ar
    58   29   63 1
    59   30   64 1
    60   31   32 1
    61   32   33 1
    62   32   65 1
    63   32   66 1
    64   33   34 1
    65   33   67 1
    66   33   68 1
    67   34   39 1
    68   34   35 1
    69   35   36 1
    70   35   69 1
    71   35   70 1
    72   36   37 1
    73   36   71 1
    74   36   72 1
    75   37   38 1
    76   38   39 1
    77   38   73 1
    78   38   74 1
    79   39   75 1
    80   39   76 1
@<TRIPOS>MOLECULE
ZINC34638188
   55    58     0     0     0
SMALL
USER_CHARGES

@<TRIPOS>ATOM
      1 C1          0.6556    0.5755   -0.5500 C.3       1 <0>         0.0808
      2 N1         -0.4745   -0.0622    0.1301 N.pl3     1 <0>        -0.9464
      3 C2         -0.2574   -0.8286    1.2692 C.ar      1 <0>         0.3706
      4 C3         -0.1019   -0.2027    2.5021 C.ar      1 <0>        -0.1456
      5 C4          0.1134   -0.9774    3.6272 C.ar      1 <0>        -0.0427
      6 C5          0.1663   -2.3576    3.4815 C.ar      1 <0>        -0.1651
      7 C6          0.0037   -2.9118    2.2279 C.ar      1 <0>         0.1275
      8 N2         -0.2059   -2.1480    1.1722 N.ar      1 <0>        -0.4928
      9 C7         -0.1667    1.2991    2.6097 C.3       1 <0>         0.1698
     10 N3         -1.5672    1.7238    2.6774 N.pl3     1 <0>        -0.6976
     11 C8         -1.8786    3.0697    2.7807 C.ar      1 <0>         0.5242
     12 C9         -3.2103    3.4856    2.8517 C.ar      1 <0>        -0.4068
     13 C10        -3.4737    4.8373    2.9539 C.ar      1 <0>         0.2713
     14 N4         -2.4635    5.6944    2.9814 N.ar      1 <0>        -0.5870
     15 C11        -1.2098    5.2719    2.9124 C.ar      1 <0>         0.6180
     16 N5         -0.9146    3.9837    2.8192 N.ar      1 <0>        -0.6119
     17 N6         -0.1819    6.1995    2.9438 N.pl3     1 <0>        -0.6257
     18 C12        -0.4739    7.5686    2.9289 C.ar      1 <0>         0.1428
     19 C13         0.3556    8.4665    3.5887 C.ar      1 <0>        -0.1094
     20 C14         0.0707    9.8153    3.5758 C.ar      1 <0>        -0.1146
     21 C15        -1.0527   10.2887    2.9001 C.ar      1 <0>         0.1251
     22 C16        -1.8761    9.3836    2.2427 C.ar      1 <0>        -0.1201
     23 C17        -1.5921    8.0369    2.2489 C.ar      1 <0>        -0.0589
     24 C18        -2.9879   10.1951    1.6184 C.3       1 <0>        -0.1146
     25 C19        -2.6692   11.6216    2.0120 C.2       1 <0>         0.5285
     26 O1         -3.3093   12.6097    1.7200 O.2       1 <0>        -0.5039
     27 N7         -1.5441   11.5879    2.7458 N.am      1 <0>        -0.6598
     28 C20        -4.3339    2.4820    2.8171 C.3       1 <0>         0.5228
     29 F1         -5.5596    3.1510    2.9024 F         1 <0>        -0.1765
     30 F2         -4.2785    1.7611    1.6194 F         1 <0>        -0.1612
     31 F3         -4.2067    1.6021    3.8973 F         1 <0>        -0.1799
     32 S1         -2.0104    0.1301   -0.4583 S.o2      1 <0>         2.5998
     33 O2         -2.8554   -0.0406    0.6714 O.2       1 <0>        -0.9362
     34 O3         -1.9783    1.3660   -1.1588 O.2       1 <0>        -0.9410
     35 C21        -2.2389   -1.2422   -1.6225 C.3       1 <0>        -0.6672
     36 H1          1.1085   -0.1326   -1.2441 H         1 <0>         0.0657
     37 H2          0.3033    1.4483   -1.0997 H         1 <0>         0.0973
     38 H3          1.3959    0.8852    0.1877 H         1 <0>         0.0800
     39 H4          0.2381   -0.5195    4.5974 H         1 <0>         0.1455
     40 H5          0.3333   -2.9908    4.3403 H         1 <0>         0.1465
     41 H6          0.0444   -3.9845    2.1101 H         1 <0>         0.1670
     42 H7          0.3547    1.6216    3.5110 H         1 <0>         0.0878
     43 H8          0.3069    1.7468    1.7360 H         1 <0>         0.0875
     44 H9         -2.2764    1.0626    2.6498 H         1 <0>         0.4251
     45 H10        -4.4921    5.1922    3.0104 H         1 <0>         0.1828
     46 H11         0.7403    5.9006    2.9762 H         1 <0>         0.4266
     47 H12         1.2275    8.1062    4.1145 H         1 <0>         0.1349
     48 H13         0.7200   10.5074    4.0913 H         1 <0>         0.1321
     49 H14        -2.2390    7.3450    1.7301 H         1 <0>         0.1462
     50 H15        -2.9769   10.0868    0.5338 H         1 <0>         0.1246
     51 H16        -3.9541    9.8941    2.0233 H         1 <0>         0.1266
     52 H17        -1.1216   12.3745    3.1247 H         1 <0>         0.4133
     53 H18        -2.1248   -2.1891   -1.0948 H         1 <0>         0.1351
     54 H19        -3.2365   -1.1868   -2.0581 H         1 <0>         0.1305
     55 H20        -1.4926   -1.1752   -2.4141 H         1 <0>         0.1289
@<TRIPOS>BOND
     1    1    2 1
     2    1   36 1
     3    1   37 1
     4    1   38 1
     5    2    3 1
     6    2   32 1
     7    3    8 ar
     8    3    4 ar
     9    4    5 ar
    10    4    9 1
    11    5    6 ar
    12    5   39 1
    13    6    7 ar
    14    6   40 1
    15    7    8 ar
    16    7   41 1
    17    9   10 1
    18    9   42 1
    19    9   43 1
    20   10   11 1
    21   10   44 1
    22   11   16 ar
    23   11   12 ar
    24   12   13 ar
    25   12   28 1
    26   13   14 ar
    27   13   45 1
    28   14   15 ar
    29   15   16 ar
    30   15   17 1
    31   17   18 1
    32   17   46 1
    33   18   23 ar
    34   18   19 ar
    35   19   20 ar
    36   19   47 1
    37   20   21 ar
    38   20   48 1
    39   21   27 1
    40   21   22 ar
    41   22   23 ar
    42   22   24 1
    43   23   49 1
    44   24   25 1
    45   24   50 1
    46   24   51 1
    47   25   26 2
    48   25   27 am
    49   27   52 1
    50   28   29 1
    51   28   30 1
    52   28   31 1
    53   32   33 2
    54   32   34 2
    55   32   35 1
    56   35   53 1
    57   35   54 1
    58   35   55 1
@<TRIPOS>MOLECULE
ZINC03814434
   62    69     0     0     0
SMALL
USER_CHARGES

@<TRIPOS>ATOM
      1 C1         -0.1295    1.5952   -0.2973 C.3       1 <0>        -0.1687
      2 C2         -0.0862    0.0696   -0.1900 C.3       1 <0>         0.3342
      3 C3          0.5692   -0.4501   -1.4637 C.3       1 <0>         0.0405
      4 H1          1.4796    0.1159   -1.6612 H         1 <0>         0.1372
      5 C4          0.9167   -1.9328   -1.2889 C.3       1 <0>        -0.0061
      6 H2          1.3963   -2.3075   -2.1932 H         1 <0>         0.1555
      7 C5          1.8785   -2.0596   -0.1021 C.3       1 <0>        -0.1827
      8 C6          1.2061   -1.5198    1.1541 C.3       1 <0>         0.2999
      9 H3          1.9797   -1.4243    1.9161 H         1 <0>         0.1550
     10 O1          0.6555   -0.2442    0.9666 O.3       1 <0>        -0.3234
     11 N1          0.2189   -2.4746    1.6600 N.pl3     1 <0>        -0.5366
     12 C7          0.4705   -3.5508    2.4739 C.ar      1 <0>         0.1469
     13 C8          1.6649   -4.0152    3.0240 C.ar      1 <0>        -0.1522
     14 C9          1.5948   -5.1456    3.8201 C.ar      1 <0>        -0.0582
     15 C10         0.4006   -5.7997    4.0696 C.ar      1 <0>        -0.1457
     16 C11        -0.7984   -5.3597    3.5358 C.ar      1 <0>        -0.0280
     17 C12        -0.7487   -4.2198    2.7307 C.ar      1 <0>        -0.1131
     18 C13        -1.7893   -3.4830    2.0197 C.ar      1 <0>         0.0276
     19 C14        -1.1442   -2.4197    1.3841 C.ar      1 <0>         0.0376
     20 C15        -1.8806   -1.5095    0.6175 C.ar      1 <0>         0.0894
     21 N2         -1.4718   -0.3951   -0.1095 N.pl3     1 <0>        -0.5183
     22 C16        -2.5611    0.1913   -0.7090 C.ar      1 <0>         0.1618
     23 C17        -2.6521    1.3277   -1.5118 C.ar      1 <0>        -0.1305
     24 C18        -3.9109    1.6745   -1.9733 C.ar      1 <0>        -0.0737
     25 C19        -5.0393    0.9368   -1.6616 C.ar      1 <0>        -0.1358
     26 C20        -4.9745   -0.1955   -0.8662 C.ar      1 <0>        -0.0503
     27 C21        -3.7147   -0.5596   -0.3919 C.ar      1 <0>        -0.1042
     28 C22        -3.2693   -1.6660    0.4845 C.ar      1 <0>        -0.0360
     29 C23        -3.9084   -2.7313    1.1102 C.ar      1 <0>        -0.0288
     30 C24        -3.1873   -3.6421    1.8754 C.ar      1 <0>        -0.1255
     31 C25        -4.1221   -4.6480    2.4030 C.2       1 <0>         0.5632
     32 O2         -3.8062   -5.5851    3.1110 O.2       1 <0>        -0.5106
     33 N3         -5.3744   -4.3851    1.9926 N.am      1 <0>        -0.7162
     34 C26        -5.3495   -3.1771    1.1601 C.3       1 <0>         0.1358
     35 N4         -0.3067   -2.7008   -1.0216 N.4       1 <0>        -0.5252
     36 C27         0.0145   -4.1336   -0.9773 C.3       1 <0>        -0.0497
     37 O3         -0.3340   -0.2979   -2.5607 O.3       1 <0>        -0.3614
     38 C28         0.3101   -0.0933   -3.8198 C.3       1 <0>         0.0162
     39 H4          0.8261    2.0094    0.0240 H         1 <0>         0.0984
     40 H5         -0.3202    1.8814   -1.3317 H         1 <0>         0.1036
     41 H6         -0.9255    1.9818    0.3392 H         1 <0>         0.0921
     42 H7          2.1370   -3.1081    0.0458 H         1 <0>         0.1233
     43 H8          2.7835   -1.4869   -0.3048 H         1 <0>         0.1455
     44 H9          2.6036   -3.5149    2.8368 H         1 <0>         0.1365
     45 H10         2.5026   -5.5304    4.2610 H         1 <0>         0.1359
     46 H11         0.4045   -6.6780    4.6980 H         1 <0>         0.1352
     47 H12        -1.7278   -5.8736    3.7323 H         1 <0>         0.1600
     48 H13        -1.7792    1.9122   -1.7624 H         1 <0>         0.1440
     49 H14        -4.0153    2.5500   -2.5970 H         1 <0>         0.1336
     50 H15        -5.9967    1.2527   -2.0488 H         1 <0>         0.1332
     51 H16        -5.8575   -0.7687   -0.6249 H         1 <0>         0.1415
     52 H17        -6.1628   -4.9065    2.2103 H         1 <0>         0.4348
     53 H18        -5.9671   -2.3994    1.6094 H         1 <0>         0.1115
     54 H19        -5.7060   -3.4063    0.1559 H         1 <0>         0.1103
     55 H20        -0.6958   -2.4158   -0.1353 H         1 <0>         0.4186
     56 H21         0.4349   -4.4415   -1.9347 H         1 <0>         0.1256
     57 H22         0.7403   -4.3189   -0.1854 H         1 <0>         0.1191
     58 H23        -0.8932   -4.7035   -0.7789 H         1 <0>         0.1256
     59 H24         0.9168    0.8112   -3.7748 H         1 <0>         0.0633
     60 H25         0.9482   -0.9479   -4.0446 H         1 <0>         0.0514
     61 H26        -0.4433    0.0130   -4.6003 H         1 <0>         0.1100
     62 H27        -0.9785   -2.5293   -1.7546 H         1 <0>         0.4274
@<TRIPOS>BOND
     1    1    2 1
     2    1   39 1
     3    1   40 1
     4    1   41 1
     5    2   10 1
     6    2   21 1
     7    2    3 1
     8    3    4 1
     9    3    5 1
    10    3   37 1
    11    5    6 1
    12    5    7 1
    13    5   35 1
    14    7    8 1
    15    7   42 1
    16    7   43 1
    17    8    9 1
    18    8   10 1
    19    8   11 1
    20   11   19 1
    21   11   12 1
    22   12   17 ar
    23   12   13 ar
    24   13   14 ar
    25   13   44 1
    26   14   15 ar
    27   14   45 1
    28   15   16 ar
    29   15   46 1
    30   16   17 ar
    31   16   47 1
    32   17   18 1
    33   18   30 ar
    34   18   19 ar
    35   19   20 ar
    36   20   28 ar
    37   20   21 1
    38   21   22 1
    39   22   27 ar
    40   22   23 ar
    41   23   24 ar
    42   23   48 1
    43   24   25 ar
    44   24   49 1
    45   25   26 ar
    46   25   50 1
    47   26   27 ar
    48   26   51 1
    49   27   28 1
    50   28   29 ar
    51   29   34 1
    52   29   30 ar
    53   30   31 1
    54   31   32 2
    55   31   33 am
    56   33   34 1
    57   33   52 1
    58   34   53 1
    59   34   54 1
    60   35   36 1
    61   35   55 1
    62   35   62 1
    63   36   56 1
    64   36   57 1
    65   36   58 1
    66   37   38 1
    67   38   59 1
    68   38   60 1
    69   38   61 1
@<TRIPOS>MOLECULE
ZINC34565731
   55    58     0     0     0
SMALL
USER_CHARGES

@<TRIPOS>ATOM
      1 C1         -0.1470   -3.9244    4.1298 C.3       1 <0>         0.0258
      2 O1         -0.0925   -3.5635    2.7482 O.3       1 <0>        -0.2994
      3 C2          0.5679   -2.4165    2.4353 C.ar      1 <0>         0.1695
      4 C3          1.1549   -1.6593    3.4370 C.ar      1 <0>        -0.2284
      5 C4          1.8291   -0.4884    3.1178 C.ar      1 <0>         0.2451
      6 C5          1.9162   -0.0752    1.7952 C.ar      1 <0>        -0.2648
      7 C6          1.3296   -0.8313    0.7925 C.ar      1 <0>         0.1708
      8 C7          0.6591   -2.0063    1.1107 C.ar      1 <0>         0.0093
      9 O2          0.0871   -2.7524    0.1255 O.3       1 <0>        -0.3105
     10 C8         -1.2674   -2.4491   -0.2144 C.3       1 <0>         0.0343
     11 O3          1.4143   -0.4259   -0.5029 O.3       1 <0>        -0.2995
     12 C9          2.1228    0.7887   -0.7575 C.3       1 <0>         0.0243
     13 N1          2.4210    0.2763    4.1301 N.pl3     1 <0>        -0.6360
     14 C10         2.9657   -0.3478    5.2414 C.ar      1 <0>         0.5807
     15 N2          3.0183   -1.6744    5.2684 N.ar      1 <0>        -0.5581
     16 C11         3.5284   -2.3167    6.3052 C.ar      1 <0>         0.2428
     17 C12         4.0142   -1.5715    7.3787 C.ar      1 <0>        -0.2500
     18 C13         4.6332   -1.8920    8.6659 C.2       1 <0>        -0.1505
     19 C14         4.8877   -0.7249    9.2776 C.2       1 <0>         0.0454
     20 N3          4.4799    0.3182    8.4822 N.pl3     1 <0>        -0.4193
     21 C15         3.9429   -0.1637    7.3172 C.ar      1 <0>         0.3677
     22 N4          3.4190    0.4000    6.2336 N.ar      1 <0>        -0.5707
     23 C16         4.5955    1.6747    8.8135 C.ar      1 <0>         0.1254
     24 C17         5.1545    2.5668    7.9079 C.ar      1 <0>        -0.1021
     25 C18         5.2671    3.9032    8.2373 C.ar      1 <0>        -0.0986
     26 C19         4.8239    4.3534    9.4676 C.ar      1 <0>        -0.1076
     27 C20         4.2673    3.4675   10.3715 C.ar      1 <0>        -0.0705
     28 C21         4.1463    2.1306   10.0454 C.ar      1 <0>        -0.1122
     29 C22         3.7861    3.9621   11.7112 C.3       1 <0>        -0.0758
     30 C23         2.3175    4.3777   11.6039 C.3       1 <0>        -0.0214
     31 C24         1.8474    4.8608   12.9125 C.1       1 <0>         0.2010
     32 N5          1.4846    5.2337   13.9224 N.1       1 <0>        -0.4296
     33 H1         -0.6472   -3.1358    4.6919 H         1 <0>         0.0532
     34 H2         -0.7009   -4.8567    4.2402 H         1 <0>         0.1020
     35 H3          0.8656   -4.0561    4.5112 H         1 <0>         0.0623
     36 H4          1.0876   -1.9801    4.4660 H         1 <0>         0.1492
     37 H5          2.4408    0.8358    1.5477 H         1 <0>         0.1371
     38 H6         -1.6000   -3.1151   -1.0107 H         1 <0>         0.0912
     39 H7         -1.9012   -2.5856    0.6618 H         1 <0>         0.0432
     40 H8         -1.3341   -1.4154   -0.5536 H         1 <0>         0.0430
     41 H9          3.1524    0.6876   -0.4144 H         1 <0>         0.0579
     42 H10         2.1151    0.9962   -1.8276 H         1 <0>         0.1034
     43 H11         1.6411    1.6087   -0.2249 H         1 <0>         0.0568
     44 H12         2.4498    1.2429    4.0538 H         1 <0>         0.4246
     45 H13         3.5675   -3.3959    6.3205 H         1 <0>         0.1765
     46 H14         4.8443   -2.8790    9.0502 H         1 <0>         0.1611
     47 H15         5.3448   -0.6211   10.2506 H         1 <0>         0.1813
     48 H16         5.5011    2.2159    6.9471 H         1 <0>         0.1272
     49 H17         5.7021    4.5974    7.5336 H         1 <0>         0.1332
     50 H18         4.9131    5.3989    9.7229 H         1 <0>         0.1323
     51 H19         3.7070    1.4400   10.7500 H         1 <0>         0.1320
     52 H20         3.8854    3.1663   12.4494 H         1 <0>         0.0852
     53 H21         4.3848    4.8195   12.0184 H         1 <0>         0.0879
     54 H22         2.2181    5.1735   10.8657 H         1 <0>         0.1122
     55 H23         1.7187    3.5203   11.2966 H         1 <0>         0.1101
@<TRIPOS>BOND
     1    1    2 1
     2    1   33 1
     3    1   34 1
     4    1   35 1
     5    2    3 1
     6    3    8 ar
     7    3    4 ar
     8    4    5 ar
     9    4   36 1
    10    5    6 ar
    11    5   13 1
    12    6    7 ar
    13    6   37 1
    14    7    8 ar
    15    7   11 1
    16    8    9 1
    17    9   10 1
    18   10   38 1
    19   10   39 1
    20   10   40 1
    21   11   12 1
    22   12   41 1
    23   12   42 1
    24   12   43 1
    25   13   14 1
    26   13   44 1
    27   14   22 ar
    28   14   15 ar
    29   15   16 ar
    30   16   17 ar
    31   16   45 1
    32   17   21 ar
    33   17   18 1
    34   18   19 2
    35   18   46 1
    36   19   20 1
    37   19   47 1
    38   20   21 1
    39   20   23 1
    40   21   22 ar
    41   23   28 ar
    42   23   24 ar
    43   24   25 ar
    44   24   48 1
    45   25   26 ar
    46   25   49 1
    47   26   27 ar
    48   26   50 1
    49   27   28 ar
    50   27   29 1
    51   28   51 1
    52   29   30 1
    53   29   52 1
    54   29   53 1
    55   30   31 1
    56   30   54 1
    57   30   55 1
    58   31   32 3
@<TRIPOS>MOLECULE
ZINC22448983
   66    69     0     0     0
SMALL
USER_CHARGES
4-[(2,4-dichloro-5-methoxy-phenyl)amino]-6-methoxy-7-[3-(4-methylpiperazin-1-yl)propoxy]quinoline-3-carbonitrile
@<TRIPOS>ATOM
      1 C1        -10.0137   -6.5102   -1.8158 C.3       1 <0>        -0.0453
      2 N1         -8.6540   -6.0169   -1.5593 N.4       1 <0>        -0.4030
      3 C2         -7.7903   -6.2205   -2.7307 C.3       1 <0>        -0.0001
      4 C3         -6.3670   -5.7678   -2.3965 C.3       1 <0>         0.0245
      5 N2         -6.3862   -4.3530   -1.9994 N.3       1 <0>        -0.5385
      6 C4         -7.2499   -4.1494   -0.8281 C.3       1 <0>         0.0179
      7 C5         -8.6733   -4.6021   -1.1623 C.3       1 <0>         0.0000
      8 C6         -5.0265   -3.8597   -1.7430 C.3       1 <0>         0.0567
      9 C7         -5.0583   -2.3389   -1.5783 C.3       1 <0>        -0.1184
     10 C8         -3.6421   -1.8251   -1.3112 C.3       1 <0>         0.0518
     11 O1         -3.6719   -0.4047   -1.1574 O.3       1 <0>        -0.2957
     12 C9         -2.4875    0.2141   -0.9129 C.ar      1 <0>         0.1552
     13 C10        -1.3345   -0.5326   -0.8253 C.ar      1 <0>        -0.1775
     14 C11        -0.1099    0.1042   -0.5728 C.ar      1 <0>         0.1880
     15 C12        -0.0839    1.5107   -0.4123 C.ar      1 <0>        -0.1309
     16 C13        -1.2740    2.2476   -0.5007 C.ar      1 <0>        -0.1492
     17 C14        -2.4527    1.6062   -0.7522 C.ar      1 <0>         0.1113
     18 O2         -3.6043    2.3237   -0.8425 O.3       1 <0>        -0.3022
     19 C15        -3.5023    3.7385   -0.6693 C.3       1 <0>         0.0181
     20 C16         1.1518    2.1498   -0.1579 C.ar      1 <0>         0.3245
     21 C17         2.2996    1.3468   -0.0768 C.ar      1 <0>        -0.1668
     22 C18         2.1804   -0.0418   -0.2488 C.ar      1 <0>         0.2178
     23 N3          1.0238   -0.6069   -0.4836 N.ar      1 <0>        -0.5049
     24 C19         3.5791    1.9370    0.1785 C.1       1 <0>         0.2512
     25 N4          4.5940    2.4052    0.3811 N.1       1 <0>        -0.4037
     26 N5          1.2264    3.5186    0.0048 N.pl3     1 <0>        -0.6798
     27 C20         2.4372    4.1835   -0.2122 C.ar      1 <0>         0.1811
     28 C21         3.1043    4.7773    0.8508 C.ar      1 <0>        -0.1911
     29 C22         4.3041    5.4350    0.6325 C.ar      1 <0>         0.1715
     30 C23         4.8372    5.4992   -0.6482 C.ar      1 <0>        -0.0467
     31 C24         4.1721    4.9075   -1.7063 C.ar      1 <0>        -0.0516
     32 C25         2.9774    4.2459   -1.4914 C.ar      1 <0>        -0.0699
     33 Cl1         2.1481    3.4984   -2.8208 Cl        1 <0>        -0.0422
     34 Cl2         6.3403    6.3238   -0.9213 Cl        1 <0>        -0.0317
     35 O3          4.9590    6.0176    1.6716 O.3       1 <0>        -0.2942
     36 C26         4.4145    5.8149    2.9772 C.3       1 <0>         0.0202
     37 H1         -9.9701   -7.5691   -2.1104 H         1 <0>         0.1247
     38 H2        -10.4701   -5.9227   -2.6260 H         1 <0>         0.1201
     39 H3        -10.6190   -6.4082   -0.9030 H         1 <0>         0.1247
     40 H4         -7.7832   -7.2870   -3.0001 H         1 <0>         0.1368
     41 H5         -8.1745   -5.6313   -3.5764 H         1 <0>         0.1352
     42 H6         -5.9734   -6.3765   -1.5691 H         1 <0>         0.0623
     43 H7         -5.7253   -5.8927   -3.2811 H         1 <0>         0.1248
     44 H8         -6.8657   -4.7386    0.0176 H         1 <0>         0.0625
     45 H9         -7.2570   -3.0829   -0.5587 H         1 <0>         0.1270
     46 H10        -9.0676   -3.9944   -1.9901 H         1 <0>         0.1353
     47 H11        -9.3157   -4.4781   -0.2780 H         1 <0>         0.1365
     48 H12        -4.6368   -4.3201   -0.8231 H         1 <0>         0.0524
     49 H13        -4.3751   -4.1233   -2.5893 H         1 <0>         0.0947
     50 H14        -5.4480   -1.8786   -2.4982 H         1 <0>         0.0902
     51 H15        -5.7097   -2.0753   -0.7320 H         1 <0>         0.0766
     52 H16        -3.2525   -2.2855   -0.3913 H         1 <0>         0.0692
     53 H17        -2.9907   -2.0887   -2.1575 H         1 <0>         0.0725
     54 H18        -1.3723   -1.6047   -0.9499 H         1 <0>         0.1520
     55 H19        -1.2569    3.3205   -0.3782 H         1 <0>         0.1400
     56 H20        -4.4995    4.1926   -0.7662 H         1 <0>         0.1079
     57 H21        -2.8337    4.1546   -1.4373 H         1 <0>         0.0600
     58 H22        -3.0952    3.9573    0.3289 H         1 <0>         0.0585
     59 H23         3.0649   -0.6582   -0.1860 H         1 <0>         0.1683
     60 H24         0.3333    4.0863    0.3052 H         1 <0>         0.4433
     61 H25         2.6888    4.7264    1.8464 H         1 <0>         0.1497
     62 H26         4.5888    4.9585   -2.7013 H         1 <0>         0.1559
     63 H27         5.0369    6.3367    3.7191 H         1 <0>         0.1117
     64 H28         4.3977    4.7388    3.2044 H         1 <0>         0.0607
     65 H29         3.3898    6.2132    3.0130 H         1 <0>         0.0594
     66 H30        -8.2365   -6.5985   -0.7241 H         1 <0>         0.4406
@<TRIPOS>BOND
     1    1    2 1
     2    1   37 1
     3    1   38 1
     4    1   39 1
     5    2    7 1
     6    2    3 1
     7    2   66 1
     8    3    4 1
     9    3   40 1
    10    3   41 1
    11    4    5 1
    12    4   42 1
    13    4   43 1
    14    5    6 1
    15    5    8 1
    16    6    7 1
    17    6   44 1
    18    6   45 1
    19    7   46 1
    20    7   47 1
    21    8    9 1
    22    8   48 1
    23    8   49 1
    24    9   10 1
    25    9   50 1
    26    9   51 1
    27   10   11 1
    28   10   52 1
    29   10   53 1
    30   11   12 1
    31   12   17 ar
    32   12   13 ar
    33   13   14 ar
    34   13   54 1
    35   14   23 ar
    36   14   15 ar
    37   15   16 ar
    38   15   20 ar
    39   16   17 ar
    40   16   55 1
    41   17   18 1
    42   18   19 1
    43   19   56 1
    44   19   57 1
    45   19   58 1
    46   20   21 ar
    47   20   26 1
    48   21   22 ar
    49   21   24 1
    50   22   23 ar
    51   22   59 1
    52   24   25 3
    53   26   27 1
    54   26   60 1
    55   27   32 ar
    56   27   28 ar
    57   28   29 ar
    58   28   61 1
    59   29   30 ar
    60   29   35 1
    61   30   31 ar
    62   30   34 1
    63   31   32 ar
    64   31   62 1
    65   32   33 1
    66   35   36 1
    67   36   63 1
    68   36   64 1
    69   36   65 1
@<TRIPOS>MOLECULE
ZINC22448983
   66    69     0     0     0
SMALL
USER_CHARGES
4-[(2,4-dichloro-5-methoxy-phenyl)amino]-6-methoxy-7-[3-(4-methylpiperazin-1-yl)propoxy]quinoline-3-carbonitrile
@<TRIPOS>ATOM
      1 C1        -10.0137   -6.5102   -1.8158 C.3       1 <0>         0.0169
      2 N1         -8.6540   -6.0169   -1.5593 N.3       1 <0>        -0.5441
      3 C2         -7.7903   -6.2205   -2.7307 C.3       1 <0>         0.0228
      4 C3         -6.3670   -5.7678   -2.3965 C.3       1 <0>         0.0009
      5 N2         -6.3862   -4.3530   -1.9994 N.4       1 <0>        -0.3998
      6 C4         -7.2499   -4.1494   -0.8281 C.3       1 <0>        -0.0049
      7 C5         -8.6733   -4.6021   -1.1623 C.3       1 <0>         0.0237
      8 C6         -5.0265   -3.8597   -1.7430 C.3       1 <0>        -0.0032
      9 C7         -5.0583   -2.3389   -1.5783 C.3       1 <0>        -0.1498
     10 C8         -3.6421   -1.8251   -1.3112 C.3       1 <0>         0.0546
     11 O1         -3.6719   -0.4047   -1.1574 O.3       1 <0>        -0.2954
     12 C9         -2.4875    0.2141   -0.9129 C.ar      1 <0>         0.1508
     13 C10        -1.3345   -0.5326   -0.8253 C.ar      1 <0>        -0.1739
     14 C11        -0.1099    0.1042   -0.5728 C.ar      1 <0>         0.1865
     15 C12        -0.0839    1.5107   -0.4123 C.ar      1 <0>        -0.1289
     16 C13        -1.2740    2.2476   -0.5007 C.ar      1 <0>        -0.1461
     17 C14        -2.4527    1.6062   -0.7522 C.ar      1 <0>         0.1109
     18 O2         -3.6043    2.3237   -0.8425 O.3       1 <0>        -0.3036
     19 C15        -3.5023    3.7385   -0.6693 C.3       1 <0>         0.0176
     20 C16         1.1518    2.1498   -0.1579 C.ar      1 <0>         0.3244
     21 C17         2.2996    1.3468   -0.0768 C.ar      1 <0>        -0.1637
     22 C18         2.1804   -0.0418   -0.2488 C.ar      1 <0>         0.2201
     23 N3          1.0238   -0.6069   -0.4836 N.ar      1 <0>        -0.5059
     24 C19         3.5791    1.9370    0.1785 C.1       1 <0>         0.2491
     25 N4          4.5940    2.4052    0.3811 N.1       1 <0>        -0.4000
     26 N5          1.2264    3.5186    0.0048 N.pl3     1 <0>        -0.6785
     27 C20         2.4372    4.1835   -0.2122 C.ar      1 <0>         0.1791
     28 C21         3.1043    4.7773    0.8508 C.ar      1 <0>        -0.1908
     29 C22         4.3041    5.4350    0.6325 C.ar      1 <0>         0.1720
     30 C23         4.8372    5.4992   -0.6482 C.ar      1 <0>        -0.0462
     31 C24         4.1721    4.9075   -1.7063 C.ar      1 <0>        -0.0515
     32 C25         2.9774    4.2459   -1.4914 C.ar      1 <0>        -0.0696
     33 Cl1         2.1481    3.4984   -2.8208 Cl        1 <0>        -0.0433
     34 Cl2         6.3403    6.3238   -0.9213 Cl        1 <0>        -0.0302
     35 O3          4.9590    6.0176    1.6716 O.3       1 <0>        -0.2936
     36 C26         4.4145    5.8149    2.9772 C.3       1 <0>         0.0200
     37 H1         -9.9701   -7.5691   -2.1104 H         1 <0>         0.0846
     38 H2        -10.4701   -5.9227   -2.6260 H         1 <0>         0.0401
     39 H3        -10.6190   -6.4082   -0.9030 H         1 <0>         0.0850
     40 H4         -7.7832   -7.2870   -3.0001 H         1 <0>         0.1245
     41 H5         -8.1745   -5.6313   -3.5764 H         1 <0>         0.0612
     42 H6         -5.9734   -6.3765   -1.5691 H         1 <0>         0.1366
     43 H7         -5.7253   -5.8927   -3.2811 H         1 <0>         0.1378
     44 H8         -6.8657   -4.7386    0.0176 H         1 <0>         0.1367
     45 H9         -7.2570   -3.0829   -0.5587 H         1 <0>         0.1381
     46 H10        -9.0676   -3.9944   -1.9901 H         1 <0>         0.0613
     47 H11        -9.3157   -4.4781   -0.2780 H         1 <0>         0.1241
     48 H12        -4.6368   -4.3201   -0.8231 H         1 <0>         0.1339
     49 H13        -4.3751   -4.1233   -2.5893 H         1 <0>         0.1372
     50 H14        -5.4480   -1.8786   -2.4982 H         1 <0>         0.1006
     51 H15        -5.7097   -2.0753   -0.7320 H         1 <0>         0.0999
     52 H16        -3.2525   -2.2855   -0.3913 H         1 <0>         0.0789
     53 H17        -2.9907   -2.0887   -2.1575 H         1 <0>         0.0790
     54 H18        -1.3723   -1.6047   -0.9499 H         1 <0>         0.1517
     55 H19        -1.2569    3.3205   -0.3782 H         1 <0>         0.1413
     56 H20        -4.4995    4.1926   -0.7662 H         1 <0>         0.1090
     57 H21        -2.8337    4.1546   -1.4373 H         1 <0>         0.0608
     58 H22        -3.0952    3.9573    0.3289 H         1 <0>         0.0597
     59 H23         3.0649   -0.6582   -0.1860 H         1 <0>         0.1696
     60 H24         0.3333    4.0863    0.3052 H         1 <0>         0.4436
     61 H25         2.6888    4.7264    1.8464 H         1 <0>         0.1501
     62 H26         4.5888    4.9585   -2.7013 H         1 <0>         0.1563
     63 H27         5.0369    6.3367    3.7191 H         1 <0>         0.1123
     64 H28         4.3977    4.7388    3.2044 H         1 <0>         0.0608
     65 H29         3.3898    6.2132    3.0130 H         1 <0>         0.0596
     66 H30        -6.8037   -3.7713   -2.8345 H         1 <0>         0.4393
@<TRIPOS>BOND
     1    1    2 1
     2    1   37 1
     3    1   38 1
     4    1   39 1
     5    2    7 1
     6    2    3 1
     7    3    4 1
     8    3   40 1
     9    3   41 1
    10    4    5 1
    11    4   42 1
    12    4   43 1
    13    5    6 1
    14    5    8 1
    15    5   66 1
    16    6    7 1
    17    6   44 1
    18    6   45 1
    19    7   46 1
    20    7   47 1
    21    8    9 1
    22    8   48 1
    23    8   49 1
    24    9   10 1
    25    9   50 1
    26    9   51 1
    27   10   11 1
    28   10   52 1
    29   10   53 1
    30   11   12 1
    31   12   17 ar
    32   12   13 ar
    33   13   14 ar
    34   13   54 1
    35   14   23 ar
    36   14   15 ar
    37   15   16 ar
    38   15   20 ar
    39   16   17 ar
    40   16   55 1
    41   17   18 1
    42   18   19 1
    43   19   56 1
    44   19   57 1
    45   19   58 1
    46   20   21 ar
    47   20   26 1
    48   21   22 ar
    49   21   24 1
    50   22   23 ar
    51   22   59 1
    52   24   25 3
    53   26   27 1
    54   26   60 1
    55   27   32 ar
    56   27   28 ar
    57   28   29 ar
    58   28   61 1
    59   29   30 ar
    60   29   35 1
    61   30   31 ar
    62   30   34 1
    63   31   32 ar
    64   31   62 1
    65   32   33 1
    66   35   36 1
    67   36   63 1
    68   36   64 1
    69   36   65 1
@<TRIPOS>MOLECULE
ZINC06718468
   60    64     0     0     0
SMALL
USER_CHARGES

@<TRIPOS>ATOM
      1 C1         -0.0958    2.0449    0.1864 C.3       1 <0>        -0.1162
      2 C2         -0.1158    0.5568   -0.0503 C.ar      1 <0>        -0.0263
      3 C3         -0.1580    0.0634   -1.3375 C.ar      1 <0>        -0.1780
      4 C4         -0.1767   -1.3108   -1.5650 C.ar      1 <0>         0.2192
      5 C5         -0.1528   -2.1955   -0.5026 C.ar      1 <0>        -0.1734
      6 C6         -0.1095   -1.7058    0.8062 C.ar      1 <0>         0.1181
      7 C7         -0.0861   -0.3174    1.0258 C.ar      1 <0>        -0.0017
      8 N1         -0.0386   -0.1439    2.3999 N.pl3     1 <0>        -0.5817
      9 H1         -0.0164    0.7025    2.8731 H         1 <0>         0.4308
     10 C8         -0.0293   -1.3922    2.9648 C.2       1 <0>         0.3944
     11 N2         -0.0785   -2.3058    2.0220 N.2       1 <0>        -0.5393
     12 C9          0.0172   -1.6677    4.4100 C.2       1 <0>        -0.3013
     13 C10         0.1458   -2.9816    4.8829 C.2       1 <0>         0.3580
     14 C11         0.1866   -3.2003    6.2729 C.2       1 <0>        -0.2732
     15 C12         0.1024   -2.1542    7.1231 C.2       1 <0>         0.1851
     16 N3         -0.0227   -0.8808    6.6652 N.am      1 <0>        -0.6204
     17 H2         -0.0812   -0.1505    7.3008 H         1 <0>         0.4194
     18 C13        -0.0611   -0.6128    5.3467 C.2       1 <0>         0.5565
     19 O1         -0.1683    0.5394    4.9609 O.2       1 <0>        -0.5654
     20 N4          0.2302   -4.0395    4.0028 N.pl3     1 <0>        -0.6842
     21 C14         0.2417   -5.4142    4.5090 C.3       1 <0>         0.0775
     22 C15         0.3412   -6.3894    3.3342 C.3       1 <0>         0.1422
     23 H3         -0.4665   -6.1925    2.6292 H         1 <0>         0.1200
     24 C16         0.2295   -7.8031    3.8440 C.ar      1 <0>        -0.1062
     25 C17         1.3276   -8.4216    4.4126 C.ar      1 <0>        -0.1060
     26 C18         1.2260   -9.7182    4.8804 C.ar      1 <0>        -0.1011
     27 C19         0.0263  -10.3976    4.7797 C.ar      1 <0>        -0.1057
     28 C20        -1.0727   -9.7794    4.2110 C.ar      1 <0>        -0.0314
     29 C21        -0.9720   -8.4791    3.7483 C.ar      1 <0>        -0.0968
     30 Cl1        -2.5797  -10.6319    4.0842 Cl        1 <0>        -0.0630
     31 O2          1.5988   -6.2177    2.6778 O.3       1 <0>        -0.5410
     32 N5         -0.2205   -1.7985   -2.8758 N.pl3     1 <0>        -0.6339
     33 C22        -0.3691   -0.8847   -4.0195 C.3       1 <0>         0.0887
     34 C23         0.7218   -1.2127   -5.0453 C.3       1 <0>         0.0454
     35 O3          0.6848   -2.6109   -5.3409 O.3       1 <0>        -0.3803
     36 C24         0.9599   -3.4537   -4.2194 C.3       1 <0>         0.0459
     37 C25        -0.1131   -3.2400   -3.1516 C.3       1 <0>         0.0883
     38 H4          0.9360    2.3955    0.2083 H         1 <0>         0.0724
     39 H5         -0.6334    2.5480   -0.6174 H         1 <0>         0.0719
     40 H6         -0.5756    2.2677    1.1394 H         1 <0>         0.0613
     41 H7         -0.1770    0.7464   -2.1739 H         1 <0>         0.1288
     42 H8         -0.1677   -3.2602   -0.6830 H         1 <0>         0.1260
     43 H9          0.2849   -4.2040    6.6593 H         1 <0>         0.1530
     44 H10         0.1348   -2.3332    8.1876 H         1 <0>         0.1731
     45 H11         0.2820   -3.8736    3.0485 H         1 <0>         0.4349
     46 H12         1.0985   -5.5514    5.1686 H         1 <0>         0.0768
     47 H13        -0.6775   -5.6052    5.0628 H         1 <0>         0.0840
     48 H14         2.2653   -7.8915    4.4909 H         1 <0>         0.1287
     49 H15         2.0841  -10.2008    5.3245 H         1 <0>         0.1363
     50 H16        -0.0528  -11.4110    5.1447 H         1 <0>         0.1362
     51 H17        -1.8309   -7.9944    3.3082 H         1 <0>         0.1367
     52 H18         2.3644   -6.3772    3.2466 H         1 <0>         0.3755
     53 H19        -1.3514   -1.0198   -4.4722 H         1 <0>         0.0694
     54 H20        -0.2583    0.1461   -3.6826 H         1 <0>         0.0918
     55 H21         0.5466   -0.6429   -5.9579 H         1 <0>         0.1036
     56 H22         1.6976   -0.9530   -4.6348 H         1 <0>         0.0554
     57 H23         0.9560   -4.4962   -4.5377 H         1 <0>         0.1043
     58 H24         1.9365   -3.2022   -3.8059 H         1 <0>         0.0552
     59 H25         0.1671   -3.7683   -2.2403 H         1 <0>         0.0936
     60 H26        -1.0692   -3.6163   -3.5155 H         1 <0>         0.0686
@<TRIPOS>BOND
     1    1    2 1
     2    1   38 1
     3    1   39 1
     4    1   40 1
     5    2    7 ar
     6    2    3 ar
     7    3    4 ar
     8    3   41 1
     9    4    5 ar
    10    4   32 1
    11    5    6 ar
    12    5   42 1
    13    6   11 1
    14    6    7 ar
    15    7    8 1
    16    8    9 1
    17    8   10 1
    18   10   11 2
    19   10   12 1
    20   12   18 1
    21   12   13 2
    22   13   14 1
    23   13   20 1
    24   14   15 2
    25   14   43 1
    26   15   16 1
    27   15   44 1
    28   16   17 1
    29   16   18 am
    30   18   19 2
    31   20   21 1
    32   20   45 1
    33   21   22 1
    34   21   46 1
    35   21   47 1
    36   22   23 1
    37   22   24 1
    38   22   31 1
    39   24   29 ar
    40   24   25 ar
    41   25   26 ar
    42   25   48 1
    43   26   27 ar
    44   26   49 1
    45   27   28 ar
    46   27   50 1
    47   28   29 ar
    48   28   30 1
    49   29   51 1
    50   31   52 1
    51   32   37 1
    52   32   33 1
    53   33   34 1
    54   33   53 1
    55   33   54 1
    56   34   35 1
    57   34   55 1
    58   34   56 1
    59   35   36 1
    60   36   37 1
    61   36   57 1
    62   36   58 1
    63   37   59 1
    64   37   60 1
@<TRIPOS>MOLECULE
ZINC06718468
   60    64     0     0     0
SMALL
USER_CHARGES

@<TRIPOS>ATOM
      1 C1          0.1861    0.9402    0.2320 C.3       1 <0>        -0.1099
      2 C2          0.1885   -0.5661    0.2760 C.ar      1 <0>         0.0105
      3 C3          0.2130   -1.2834   -0.8862 C.ar      1 <0>        -0.1934
      4 C4          0.2155   -2.6762   -0.8597 C.ar      1 <0>         0.2379
      5 C5          0.1931   -3.3524    0.3500 C.ar      1 <0>        -0.2114
      6 C6          0.1681   -2.6355    1.5366 C.ar      1 <0>         0.1009
      7 C7          0.1715   -1.2297    1.5066 C.ar      1 <0>         0.0140
      8 N1          0.1514   -0.8003    2.7941 N.2       1 <0>        -0.5153
      9 C8          0.1414   -1.8338    3.6037 C.2       1 <0>         0.3723
     10 N2          0.1421   -2.9944    2.8723 N.pl3     1 <0>        -0.5878
     11 H1          0.1365   -3.8977    3.2257 H         1 <0>         0.4313
     12 C9          0.1201   -1.7586    5.0739 C.2       1 <0>        -0.2944
     13 C10        -0.0136   -0.5236    5.7239 C.2       1 <0>         0.3534
     14 C11        -0.0298   -0.4970    7.1313 C.2       1 <0>        -0.2716
     15 C12         0.0823   -1.6480    7.8290 C.2       1 <0>         0.1820
     16 N3          0.2123   -2.8452    7.1992 N.am      1 <0>        -0.6203
     17 H2          0.2910   -3.6547    7.7279 H         1 <0>         0.4189
     18 C13         0.2280   -2.9303    5.8560 C.2       1 <0>         0.5553
     19 O1          0.3405   -4.0175    5.3144 O.2       1 <0>        -0.5664
     20 N4         -0.1266    0.6435    4.9980 N.pl3     1 <0>        -0.6861
     21 C14        -0.1433    1.9361    5.6873 C.3       1 <0>         0.0780
     22 C15        -0.2761    3.0609    4.6587 C.3       1 <0>         0.1422
     23 H3          0.5199    2.9729    3.9193 H         1 <0>         0.1199
     24 C16        -0.1701    4.3933    5.3548 C.ar      1 <0>        -0.1060
     25 C17        -1.2638    4.9136    6.0217 C.ar      1 <0>        -0.1059
     26 C18        -1.1674    6.1356    6.6604 C.ar      1 <0>        -0.1011
     27 C19         0.0226    6.8384    6.6324 C.ar      1 <0>        -0.1059
     28 C20         1.1172    6.3184    5.9653 C.ar      1 <0>        -0.0315
     29 C21         1.0218    5.0921    5.3312 C.ar      1 <0>        -0.0968
     30 Cl1         2.6119    7.2005    5.9296 Cl        1 <0>        -0.0631
     31 O2         -1.5442    2.9634    4.0072 O.3       1 <0>        -0.5411
     32 N5          0.2402   -3.3953   -2.0590 N.pl3     1 <0>        -0.6312
     33 C22         0.3654   -4.8615   -2.0606 C.3       1 <0>         0.0865
     34 C23        -0.7404   -5.4402   -2.9506 C.3       1 <0>         0.0458
     35 O3         -0.7012   -4.7983   -4.2274 O.3       1 <0>        -0.3797
     36 C24        -0.9535   -3.3918   -4.1834 C.3       1 <0>         0.0453
     37 C25         0.1357   -2.7087   -3.3563 C.3       1 <0>         0.0882
     38 H4          1.2131    1.3055    0.2367 H         1 <0>         0.0703
     39 H5         -0.3149    1.2764   -0.6758 H         1 <0>         0.0645
     40 H6         -0.3416    1.3283    1.1032 H         1 <0>         0.0739
     41 H7          0.2303   -0.7662   -1.8342 H         1 <0>         0.1282
     42 H8          0.1946   -4.4322    0.3682 H         1 <0>         0.1205
     43 H9         -0.1314    0.4433    7.6528 H         1 <0>         0.1523
     44 H10         0.0686   -1.6162    8.9085 H         1 <0>         0.1725
     45 H11        -0.1949    0.6085    4.0311 H         1 <0>         0.4342
     46 H12        -0.9888    1.9705    6.3745 H         1 <0>         0.0761
     47 H13         0.7842    2.0621    6.2458 H         1 <0>         0.0833
     48 H14        -2.1940    4.3651    6.0433 H         1 <0>         0.1287
     49 H15        -2.0220    6.5415    7.1812 H         1 <0>         0.1361
     50 H16         0.0976    7.7936    7.1308 H         1 <0>         0.1361
     51 H17         1.8773    4.6836    4.8140 H         1 <0>         0.1367
     52 H18        -2.3004    3.0335    4.6059 H         1 <0>         0.3756
     53 H19         1.3408   -5.1463   -2.4550 H         1 <0>         0.0707
     54 H20         0.2549   -5.2405   -1.0446 H         1 <0>         0.0921
     55 H21        -0.5831   -6.5114   -3.0767 H         1 <0>         0.1043
     56 H22        -1.7107   -5.2663   -2.4854 H         1 <0>         0.0557
     57 H23        -0.9495   -2.9893   -5.1964 H         1 <0>         0.1053
     58 H24        -1.9246   -3.2104   -3.7226 H         1 <0>         0.0555
     59 H25        -0.1269   -1.6627   -3.1979 H         1 <0>         0.0936
     60 H26         1.0876   -2.7730   -3.8834 H         1 <0>         0.0702
@<TRIPOS>BOND
     1    1    2 1
     2    1   38 1
     3    1   39 1
     4    1   40 1
     5    2    7 ar
     6    2    3 ar
     7    3    4 ar
     8    3   41 1
     9    4    5 ar
    10    4   32 1
    11    5    6 ar
    12    5   42 1
    13    6   10 1
    14    6    7 ar
    15    7    8 1
    16    8    9 2
    17    9   10 1
    18    9   12 1
    19   10   11 1
    20   12   18 1
    21   12   13 2
    22   13   14 1
    23   13   20 1
    24   14   15 2
    25   14   43 1
    26   15   16 1
    27   15   44 1
    28   16   17 1
    29   16   18 am
    30   18   19 2
    31   20   21 1
    32   20   45 1
    33   21   22 1
    34   21   46 1
    35   21   47 1
    36   22   23 1
    37   22   24 1
    38   22   31 1
    39   24   29 ar
    40   24   25 ar
    41   25   26 ar
    42   25   48 1
    43   26   27 ar
    44   26   49 1
    45   27   28 ar
    46   27   50 1
    47   28   29 ar
    48   28   30 1
    49   29   51 1
    50   31   52 1
    51   32   37 1
    52   32   33 1
    53   33   34 1
    54   33   53 1
    55   33   54 1
    56   34   35 1
    57   34   55 1
    58   34   56 1
    59   35   36 1
    60   36   37 1
    61   36   57 1
    62   36   58 1
    63   37   59 1
    64   37   60 1
@<TRIPOS>MOLECULE
ZINC02064362
   45    48     0     0     0
SMALL
USER_CHARGES

@<TRIPOS>ATOM
      1 C1         -0.0050    1.2556    1.2013 C.ar      1 <0>        -0.1135
      2 C2          1.1644    1.9682    1.4276 C.ar      1 <0>        -0.0914
      3 C3          2.3809    1.3155    1.3532 C.ar      1 <0>        -0.0693
      4 C4          2.4105   -0.0253    1.0571 C.ar      1 <0>        -0.1422
      5 C5          1.2364   -0.7790    0.8214 C.ar      1 <0>         0.0755
      6 C6          0.0132   -0.0718    0.9074 C.ar      1 <0>        -0.0571
      7 N1          1.4257   -2.0836    0.5426 N.2       1 <0>        -0.4791
      8 C7          2.6216   -2.6293    0.4909 C.2       1 <0>         0.2034
      9 S1          3.6884   -1.2436    0.8607 S.3       1 <0>         0.0045
     10 C8          2.9893   -4.0306    0.2016 C.ar      1 <0>        -0.0452
     11 C9          4.3300   -4.4171    0.1996 C.ar      1 <0>        -0.0268
     12 C10         4.6675   -5.7327   -0.0720 C.ar      1 <0>         0.1075
     13 C11         3.6736   -6.6665   -0.3423 C.ar      1 <0>        -0.0765
     14 C12         2.3451   -6.2898   -0.3416 C.ar      1 <0>        -0.1412
     15 C13         1.9935   -4.9778   -0.0658 C.ar      1 <0>         0.1730
     16 O1          0.6857   -4.6105   -0.0601 O.3       1 <0>        -0.4731
     17 N2          6.0129   -6.1230   -0.0746 N.pl3     1 <0>        -0.6175
     18 C14         6.8486   -5.6676    0.8798 C.2       1 <0>         0.5033
     19 S2          6.2386   -4.7282    2.1745 S.2       1 <0>        -0.4611
     20 N3          8.1645   -5.9517    0.8148 N.am      1 <0>        -0.6375
     21 C15         9.0001   -5.4963    1.7691 C.2       1 <0>         0.5323
     22 O2          8.5671   -4.8295    2.6882 O.2       1 <0>        -0.3823
     23 C16        10.4429   -5.8078    1.6979 C.ar      1 <0>        -0.0854
     24 C17        10.9445   -6.5687    0.6403 C.ar      1 <0>        -0.0906
     25 C18        12.2925   -6.8554    0.5796 C.ar      1 <0>        -0.0578
     26 C19        13.1468   -6.3907    1.5639 C.ar      1 <0>        -0.0229
     27 C20        12.6562   -5.6365    2.6151 C.ar      1 <0>        -0.0551
     28 C21        11.3113   -5.3376    2.6848 C.ar      1 <0>        -0.0518
     29 N4         14.5921   -6.7023    1.4923 N.pl3     1 <0>         0.0261
     30 O3         15.0236   -7.3615    0.5752 O.2       1 <0>        -0.1476
     31 O4         15.3410   -6.2977    2.3508 O.3       1 <0>        -0.1442
     32 H1         -0.9538    1.7675    1.2646 H         1 <0>         0.1351
     33 H2          1.1245    3.0224    1.6590 H         1 <0>         0.1398
     34 H3          3.3001    1.8554    1.5262 H         1 <0>         0.1345
     35 H4         -0.9172   -0.5932    0.7378 H         1 <0>         0.1340
     36 H5          5.1026   -3.6922    0.4088 H         1 <0>         0.1504
     37 H6          3.9418   -7.6910   -0.5542 H         1 <0>         0.1389
     38 H7          1.5779   -7.0200   -0.5528 H         1 <0>         0.1473
     39 H8          0.3569   -4.3134   -0.9196 H         1 <0>         0.3968
     40 H9          6.3431   -6.7210   -0.7633 H         1 <0>         0.4113
     41 H10         8.5101   -6.4839    0.0812 H         1 <0>         0.4110
     42 H11        10.2787   -6.9323   -0.1284 H         1 <0>         0.1470
     43 H12        12.6819   -7.4442   -0.2377 H         1 <0>         0.1638
     44 H13        13.3283   -5.2775    3.3804 H         1 <0>         0.1666
     45 H14        10.9303   -4.7451    3.5034 H         1 <0>         0.1667
@<TRIPOS>BOND
     1    1    6 ar
     2    1    2 ar
     3    1   32 1
     4    2    3 ar
     5    2   33 1
     6    3    4 ar
     7    3   34 1
     8    4    9 1
     9    4    5 ar
    10    5    6 ar
    11    5    7 1
    12    6   35 1
    13    7    8 2
    14    8    9 1
    15    8   10 1
    16   10   15 ar
    17   10   11 ar
    18   11   12 ar
    19   11   36 1
    20   12   13 ar
    21   12   17 1
    22   13   14 ar
    23   13   37 1
    24   14   15 ar
    25   14   38 1
    26   15   16 1
    27   16   39 1
    28   17   18 1
    29   17   40 1
    30   18   19 2
    31   18   20 1
    32   20   21 am
    33   20   41 1
    34   21   22 2
    35   21   23 1
    36   23   28 ar
    37   23   24 ar
    38   24   25 ar
    39   24   42 1
    40   25   26 ar
    41   25   43 1
    42   26   27 ar
    43   26   29 1
    44   27   28 ar
    45   27   44 1
    46   28   45 1
    47   29   30 2
    48   29   31 1
@<TRIPOS>MOLECULE
ZINC29046741
   56    59     0     0     0
SMALL
USER_CHARGES
N-methyl-N-[2-[[[2-[(2-oxoindolin-5-yl)amino]-5-(trifluoromethyl)pyrimidin-4-yl]amino]methyl]phenyl]methanesulfonamide
@<TRIPOS>ATOM
      1 C1         -1.9520    0.6925   -2.3040 C.3       1 <0>         0.0805
      2 N1         -1.6902   -0.5550   -1.5819 N.pl3     1 <0>        -0.9563
      3 C2         -2.1841   -0.7293   -0.2871 C.ar      1 <0>         0.1517
      4 C3         -3.4798   -1.1914   -0.0925 C.ar      1 <0>        -0.1204
      5 C4         -3.9648   -1.3631    1.1888 C.ar      1 <0>        -0.1006
      6 C5         -3.1624   -1.0755    2.2780 C.ar      1 <0>        -0.1095
      7 C6         -1.8707   -0.6204    2.0880 C.ar      1 <0>        -0.0880
      8 C7         -1.3810   -0.4415    0.8089 C.ar      1 <0>        -0.0922
      9 C8          0.0253    0.0595    0.6028 C.3       1 <0>         0.1720
     10 N2         -0.0065    1.4918    0.2966 N.pl3     1 <0>        -0.7058
     11 C9          1.1751    2.1773    0.0665 C.ar      1 <0>         0.5273
     12 C10         1.1565    3.5431   -0.2263 C.ar      1 <0>        -0.4172
     13 C11         2.3586    4.1855   -0.4487 C.ar      1 <0>         0.2729
     14 N3          3.4863    3.4933   -0.3785 N.ar      1 <0>        -0.5911
     15 C12         3.4743    2.1984   -0.0988 C.ar      1 <0>         0.6238
     16 N4          2.3432    1.5464    0.1263 N.ar      1 <0>        -0.6144
     17 N5          4.6745    1.5103   -0.0346 N.pl3     1 <0>        -0.6418
     18 C13         5.8856    2.2034   -0.1482 C.ar      1 <0>         0.1460
     19 C14         6.9452    1.6460   -0.8525 C.ar      1 <0>        -0.1061
     20 C15         8.1376    2.3281   -0.9698 C.ar      1 <0>        -0.1179
     21 C16         8.2924    3.5784   -0.3738 C.ar      1 <0>         0.1248
     22 C17         7.2291    4.1255    0.3330 C.ar      1 <0>        -0.1280
     23 C18         6.0355    3.4498    0.4482 C.ar      1 <0>        -0.0556
     24 C19         7.7046    5.4642    0.8489 C.3       1 <0>        -0.1176
     25 C20         9.1276    5.5700    0.3433 C.2       1 <0>         0.5377
     26 O1          9.8906    6.4947    0.5276 O.2       1 <0>        -0.5070
     27 N6          9.3864    4.4477   -0.3485 N.am      1 <0>        -0.6711
     28 C21        -0.1456    4.2984   -0.2974 C.3       1 <0>         0.5298
     29 F1          0.1093    5.6393   -0.6040 F         1 <0>        -0.1729
     30 F2         -0.9557    3.7386   -1.2911 F         1 <0>        -0.1800
     31 F3         -0.7991    4.2183    0.9370 F         1 <0>        -0.1790
     32 S1         -0.8085   -1.7584   -2.3007 S.o2      1 <0>         2.5970
     33 O2          0.0159   -1.0893   -3.2451 O.2       1 <0>        -0.9455
     34 O3         -0.2334   -2.4812   -1.2208 O.2       1 <0>        -0.9398
     35 C22        -2.0336   -2.7855   -3.1578 C.3       1 <0>        -0.6760
     36 H1         -1.4870    0.6443   -3.2997 H         1 <0>         0.0928
     37 H2         -1.5279    1.5375   -1.7418 H         1 <0>         0.0695
     38 H3         -3.0377    0.8324   -2.4126 H         1 <0>         0.0684
     39 H4         -4.1068   -1.4165   -0.9426 H         1 <0>         0.1304
     40 H5         -4.9719   -1.7226    1.3408 H         1 <0>         0.1316
     41 H6         -3.5441   -1.2110    3.2792 H         1 <0>         0.1312
     42 H7         -1.2452   -0.4011    2.9406 H         1 <0>         0.1321
     43 H8          0.6116   -0.1068    1.5185 H         1 <0>         0.0849
     44 H9          0.4893   -0.4840   -0.2334 H         1 <0>         0.0795
     45 H10        -0.9686    2.0229    0.2494 H         1 <0>         0.4333
     46 H11         2.3793    5.2409   -0.6770 H         1 <0>         0.1788
     47 H12         4.6762    0.4193    0.1056 H         1 <0>         0.4538
     48 H13         6.8332    0.6758   -1.3136 H         1 <0>         0.1344
     49 H14         8.9559    1.8902   -1.5222 H         1 <0>         0.1312
     50 H15         5.2173    3.8872    1.0011 H         1 <0>         0.1348
     51 H16         7.0623    6.2614    0.4464 H         1 <0>         0.1262
     52 H17         7.6544    5.4726    1.9477 H         1 <0>         0.1240
     53 H18        10.3197    4.1723   -0.8614 H         1 <0>         0.4383
     54 H19        -1.5236   -3.6168   -3.6665 H         1 <0>         0.1328
     55 H20        -2.5693   -2.1750   -3.8996 H         1 <0>         0.1309
     56 H21        -2.7507   -3.1875   -2.4270 H         1 <0>         0.1309
@<TRIPOS>BOND
     1    1    2 1
     2    1   36 1
     3    1   37 1
     4    1   38 1
     5    2    3 1
     6    2   32 1
     7    3    8 ar
     8    3    4 ar
     9    4    5 ar
    10    4   39 1
    11    5    6 ar
    12    5   40 1
    13    6    7 ar
    14    6   41 1
    15    7    8 ar
    16    7   42 1
    17    8    9 1
    18    9   10 1
    19    9   43 1
    20    9   44 1
    21   10   11 1
    22   10   45 1
    23   11   16 ar
    24   11   12 ar
    25   12   13 ar
    26   12   28 1
    27   13   14 ar
    28   13   46 1
    29   14   15 ar
    30   15   16 ar
    31   15   17 1
    32   17   18 1
    33   17   47 1
    34   18   23 ar
    35   18   19 ar
    36   19   20 ar
    37   19   48 1
    38   20   21 ar
    39   20   49 1
    40   21   27 1
    41   21   22 ar
    42   22   23 ar
    43   22   24 1
    44   23   50 1
    45   24   25 1
    46   24   51 1
    47   24   52 1
    48   25   26 2
    49   25   27 am
    50   27   53 1
    51   28   29 1
    52   28   30 1
    53   28   31 1
    54   32   33 2
    55   32   34 2
    56   32   35 1
    57   35   54 1
    58   35   55 1
    59   35   56 1
@<TRIPOS>MOLECULE
ZINC34885047
   54    57     0     0     0
SMALL
USER_CHARGES

@<TRIPOS>ATOM
      1 C1          0.1956   -8.1849    0.9094 C.3       1 <0>        -0.0785
      2 C2          0.1293   -6.7057    0.6288 C.2       1 <0>         0.0885
      3 C3          0.1319   -5.6909    1.5895 C.2       1 <0>        -0.2739
      4 C4          0.0607   -4.4980    0.9369 C.2       1 <0>         0.3068
      5 N1          0.0151   -4.7636   -0.3942 N.pl3     1 <0>        -0.4950
      6 N2          0.0654   -6.1540   -0.5558 N.2       1 <0>        -0.2801
      7 H1         -0.0392   -4.1072   -1.1063 H         1 <0>         0.4357
      8 N3          0.0383   -3.2359    1.5267 N.pl3     1 <0>        -0.6259
      9 C5         -0.0499   -3.1163    2.9062 C.ar      1 <0>         0.4764
     10 C6         -0.1829   -1.8625    3.4985 C.ar      1 <0>        -0.3500
     11 C7         -0.2684   -1.7891    4.8868 C.ar      1 <0>         0.4670
     12 N4         -0.2207   -2.9110    5.5990 N.ar      1 <0>        -0.5905
     13 C8         -0.0933   -4.0907    5.0014 C.ar      1 <0>         0.4457
     14 N5         -0.0141   -4.1975    3.6794 N.ar      1 <0>        -0.5725
     15 C9         -0.0437   -5.3108    5.8245 C.2       1 <0>        -0.1368
     16 C10        -0.0261   -6.5180    5.2356 C.2       1 <0>        -0.0158
     17 C11        -0.0947   -7.7396    6.0570 C.ar      1 <0>        -0.0835
     18 C12        -0.1840   -7.6460    7.4485 C.ar      1 <0>        -0.1003
     19 C13        -0.2478   -8.7936    8.2106 C.ar      1 <0>        -0.1231
     20 C14        -0.2236  -10.0356    7.6008 C.ar      1 <0>        -0.1032
     21 C15        -0.1348  -10.1361    6.2234 C.ar      1 <0>        -0.1213
     22 C16        -0.0766   -8.9972    5.4478 C.ar      1 <0>        -0.0908
     23 N6         -0.4010   -0.5618    5.5181 N.pl3     1 <0>        -0.6188
     24 C17        -0.2758   -0.4454    6.9792 C.3       1 <0>         0.1037
     25 C18         0.7164    0.6792    7.2935 C.3       1 <0>        -0.0227
     26 N7          0.2862    1.9120    6.6219 N.4       1 <0>        -0.3852
     27 C19         0.3403    1.7332    5.1655 C.3       1 <0>        -0.0217
     28 C20        -0.6649    0.6617    4.7452 C.3       1 <0>         0.0996
     29 C21         1.1746    3.0152    7.0113 C.3       1 <0>        -0.0471
     30 H2         -0.8145   -8.5793    1.0198 H         1 <0>         0.0807
     31 H3          0.6944   -8.6897    0.0821 H         1 <0>         0.0762
     32 H4          0.7547   -8.3554    1.8294 H         1 <0>         0.0794
     33 H5          0.1811   -5.8284    2.6596 H         1 <0>         0.1832
     34 H6          0.0843   -2.4408    0.9729 H         1 <0>         0.4221
     35 H7         -0.2185   -0.9676    2.8949 H         1 <0>         0.1410
     36 H8         -0.0216   -5.2351    6.9016 H         1 <0>         0.1430
     37 H9          0.0384   -6.5933    4.1601 H         1 <0>         0.1401
     38 H10        -0.2026   -6.6774    7.9258 H         1 <0>         0.1261
     39 H11        -0.3164   -8.7229    9.2861 H         1 <0>         0.1262
     40 H12        -0.2738  -10.9309    8.2027 H         1 <0>         0.1261
     41 H13        -0.1161  -11.1088    5.7544 H         1 <0>         0.1287
     42 H14        -0.0122   -9.0771    4.3727 H         1 <0>         0.1300
     43 H15        -1.2475   -0.2082    7.4123 H         1 <0>         0.0911
     44 H16         0.0927   -1.3848    7.3912 H         1 <0>         0.1398
     45 H17         0.7492    0.8444    8.3704 H         1 <0>         0.1444
     46 H18         1.7080    0.3988    6.9383 H         1 <0>         0.1323
     47 H19         0.0960    2.6751    4.6743 H         1 <0>         0.1450
     48 H20         1.3433    1.4209    4.8747 H         1 <0>         0.1335
     49 H21        -0.5535    0.4539    3.6810 H         1 <0>         0.1288
     50 H22        -1.6766    1.0126    4.9489 H         1 <0>         0.0961
     51 H23         2.1975    2.7788    6.7180 H         1 <0>         0.1218
     52 H24         0.8564    3.9311    6.5134 H         1 <0>         0.1255
     53 H25         1.1293    3.1543    8.0915 H         1 <0>         0.1264
     54 H26        -0.6592    2.1315    6.8977 H         1 <0>         0.4258
@<TRIPOS>BOND
     1    1    2 1
     2    1   30 1
     3    1   31 1
     4    1   32 1
     5    2    3 1
     6    2    6 2
     7    3   33 1
     8    3    4 2
     9    4    8 1
    10    4    5 1
    11    5    7 1
    12    5    6 1
    13    8    9 1
    14    8   34 1
    15    9   14 ar
    16    9   10 ar
    17   10   11 ar
    18   10   35 1
    19   11   12 ar
    20   11   23 1
    21   12   13 ar
    22   13   14 ar
    23   13   15 1
    24   15   16 2
    25   15   36 1
    26   16   17 1
    27   16   37 1
    28   17   22 ar
    29   17   18 ar
    30   18   19 ar
    31   18   38 1
    32   19   20 ar
    33   19   39 1
    34   20   21 ar
    35   20   40 1
    36   21   22 ar
    37   21   41 1
    38   22   42 1
    39   23   28 1
    40   23   24 1
    41   24   25 1
    42   24   43 1
    43   24   44 1
    44   25   26 1
    45   25   45 1
    46   25   46 1
    47   26   27 1
    48   26   29 1
    49   26   54 1
    50   27   28 1
    51   27   47 1
    52   27   48 1
    53   28   49 1
    54   28   50 1
    55   29   51 1
    56   29   52 1
    57   29   53 1
@<TRIPOS>MOLECULE
ZINC34885047
   55    58     0     0     0
SMALL
USER_CHARGES

@<TRIPOS>ATOM
      1 C1          0.7214   -0.2663   -2.4222 C.3       1 <0>        -0.0896
      2 C2          0.7310   -0.8132   -1.0180 C.2       1 <0>         0.1183
      3 C3          0.2120   -2.0476   -0.6184 C.2       1 <0>        -0.2385
      4 C4          0.4140   -2.1711    0.7225 C.2       1 <0>         0.2867
      5 N1          1.0419   -1.0437    1.1458 N.pl3     1 <0>        -0.5013
      6 N2          1.2317   -0.2152    0.0324 N.2       1 <0>        -0.2605
      7 H1          1.3135   -0.8484    2.0563 H         1 <0>         0.4322
      8 N3          0.0439   -3.2554    1.5154 N.pl3     1 <0>        -0.6090
      9 C5          0.1546   -3.1750    2.8961 C.ar      1 <0>         0.4957
     10 C6          0.1324   -1.9371    3.5347 C.ar      1 <0>        -0.3535
     11 C7          0.2461   -1.9033    4.9224 C.ar      1 <0>         0.5251
     12 N4          0.3713   -3.0463    5.5904 N.ar      1 <0>        -0.5525
     13 C8          0.3887   -4.2099    4.9493 C.ar      1 <0>         0.5207
     14 N5          0.2776   -4.2790    3.6270 N.ar      1 <0>        -0.5647
     15 C9          0.5296   -5.4543    5.7239 C.2       1 <0>        -0.2363
     16 C10         0.6385   -5.4039    7.0618 C.2       1 <0>         0.0998
     17 C11         0.7794   -6.6492    7.8370 C.ar      1 <0>        -0.1304
     18 C12         0.8059   -7.8841    7.1832 C.ar      1 <0>        -0.0787
     19 C13         0.9380   -9.0454    7.9153 C.ar      1 <0>        -0.1241
     20 C14         1.0442   -8.9899    9.2940 C.ar      1 <0>        -0.0698
     21 C15         1.0183   -7.7708    9.9483 C.ar      1 <0>        -0.1245
     22 C16         0.8930   -6.6008    9.2290 C.ar      1 <0>        -0.0687
     23 N6          0.2292   -0.6931    5.5989 N.pl3     1 <0>        -0.5876
     24 C17         0.5614   -0.6220    7.0302 C.3       1 <0>         0.0889
     25 C18         1.6111    0.4759    7.2312 C.3       1 <0>        -0.0237
     26 N7          1.1165    1.7352    6.6605 N.4       1 <0>        -0.3873
     27 C19         0.9612    1.5985    5.2068 C.3       1 <0>        -0.0238
     28 C20        -0.1153    0.5570    4.9042 C.3       1 <0>         0.0845
     29 C21         2.0737    2.8112    6.9499 C.3       1 <0>        -0.0496
     30 H2         -0.1921    0.3062   -2.5829 H         1 <0>         0.0915
     31 H3          1.5862    0.3815   -2.5657 H         1 <0>         0.0851
     32 H4          0.7632   -1.0911   -3.1336 H         1 <0>         0.0909
     33 H5         -0.2649   -2.7744   -1.2592 H         1 <0>         0.1692
     34 H6         -0.2912   -4.0664    1.1020 H         1 <0>         0.4507
     35 H7          0.0299   -1.0244    2.9665 H         1 <0>         0.1793
     36 H8          0.5453   -6.4075    5.2163 H         1 <0>         0.1645
     37 H9          0.6228   -4.4507    7.5694 H         1 <0>         0.1470
     38 H10         0.7228   -7.9289    6.1073 H         1 <0>         0.1294
     39 H11         0.9583  -10.0004    7.4115 H         1 <0>         0.1370
     40 H12         1.1475   -9.9026    9.8621 H         1 <0>         0.1375
     41 H13         1.1014   -7.7353   11.0245 H         1 <0>         0.1378
     42 H14         0.8778   -5.6498    9.7406 H         1 <0>         0.1330
     43 H15        -0.3345   -0.3813    7.6026 H         1 <0>         0.1122
     44 H16         0.9646   -1.5792    7.3607 H         1 <0>         0.1449
     45 H17         1.7987    0.6087    8.2967 H         1 <0>         0.1566
     46 H18         2.5368    0.1895    6.7320 H         1 <0>         0.1374
     47 H19         0.6699    2.5584    4.7805 H         1 <0>         0.1589
     48 H20         1.9066    1.2781    4.7689 H         1 <0>         0.1387
     49 H21        -0.1592    0.3788    3.8297 H         1 <0>         0.1301
     50 H22        -1.0806    0.9187    5.2582 H         1 <0>         0.1200
     51 H23         3.0399    2.5664    6.5087 H         1 <0>         0.1254
     52 H24         1.7077    3.7467    6.5267 H         1 <0>         0.1318
     53 H25         2.1839    2.9191    8.0289 H         1 <0>         0.1322
     54 H26         0.2241    1.9623    7.0730 H         1 <0>         0.4301
     55 H27         0.2900   -5.1446    3.1895 H         1 <0>         0.4509
@<TRIPOS>BOND
     1    1    2 1
     2    1   30 1
     3    1   31 1
     4    1   32 1
     5    2    3 1
     6    2    6 2
     7    3   33 1
     8    3    4 2
     9    4    8 1
    10    4    5 1
    11    5    7 1
    12    5    6 1
    13    8    9 1
    14    8   34 1
    15    9   14 ar
    16    9   10 ar
    17   10   11 ar
    18   10   35 1
    19   11   12 ar
    20   11   23 1
    21   12   13 ar
    22   13   14 ar
    23   13   15 1
    24   14   55 1
    25   15   16 2
    26   15   36 1
    27   16   17 1
    28   16   37 1
    29   17   22 ar
    30   17   18 ar
    31   18   19 ar
    32   18   38 1
    33   19   20 ar
    34   19   39 1
    35   20   21 ar
    36   20   40 1
    37   21   22 ar
    38   21   41 1
    39   22   42 1
    40   23   28 1
    41   23   24 1
    42   24   25 1
    43   24   43 1
    44   24   44 1
    45   25   26 1
    46   25   45 1
    47   25   46 1
    48   26   27 1
    49   26   29 1
    50   26   54 1
    51   27   28 1
    52   27   47 1
    53   27   48 1
    54   28   49 1
    55   28   50 1
    56   29   51 1
    57   29   52 1
    58   29   53 1
@<TRIPOS>MOLECULE
ZINC34885047
   55    58     0     0     0
SMALL
USER_CHARGES

@<TRIPOS>ATOM
      1 C1          0.7372   -0.2667   -2.4212 C.3       1 <0>        -0.1308
      2 C2          0.7435   -0.8136   -1.0170 C.2       1 <0>         0.2826
      3 C3          0.2224   -2.0474   -0.6184 C.2       1 <0>        -0.2481
      4 C4          0.4217   -2.1712    0.7229 C.2       1 <0>         0.4500
      5 N1          1.0500   -1.0445    1.1473 N.pl3     1 <0>        -0.4632
      6 N2          1.2428   -0.2161    0.0343 N.pl3     1 <0>        -0.3667
      7 N3          0.0489   -3.2551    1.5150 N.pl3     1 <0>        -0.6164
      8 C5          0.1571   -3.1749    2.8959 C.ar      1 <0>         0.4695
      9 C6          0.1350   -1.9370    3.5345 C.ar      1 <0>        -0.3443
     10 C7          0.2461   -1.9033    4.9224 C.ar      1 <0>         0.5141
     11 N4          0.3689   -3.0464    5.5906 N.ar      1 <0>        -0.5388
     12 C8          0.3862   -4.2100    4.9495 C.ar      1 <0>         0.5195
     13 N5          0.2775   -4.2790    3.6270 N.ar      1 <0>        -0.5664
     14 C9          0.5243   -5.4546    5.7243 C.2       1 <0>        -0.2414
     15 C10         0.6307   -5.4044    7.0624 C.2       1 <0>         0.1062
     16 C11         0.7689   -6.6499    7.8379 C.ar      1 <0>        -0.1314
     17 C12         0.7953   -7.8847    7.1841 C.ar      1 <0>        -0.0784
     18 C13         0.9248   -9.0462    7.9165 C.ar      1 <0>        -0.1260
     19 C14         1.0285   -8.9908    9.2953 C.ar      1 <0>        -0.0689
     20 C15         1.0026   -7.7718    9.9496 C.ar      1 <0>        -0.1241
     21 C16         0.8799   -6.6016    9.2301 C.ar      1 <0>        -0.0654
     22 N6          0.2292   -0.6931    5.5989 N.pl3     1 <0>        -0.5319
     23 C17         0.5615   -0.6236    7.0299 C.3       1 <0>         0.1037
     24 C18         1.6253    0.4609    7.2305 C.3       1 <0>         0.0354
     25 N7          1.1532    1.7207    6.6405 N.3       1 <0>        -0.5413
     26 C19         0.9694    1.5932    5.1886 C.3       1 <0>         0.0348
     27 C20        -0.1154    0.5559    4.9030 C.3       1 <0>         0.1032
     28 C21         2.0657    2.8265    6.9606 C.3       1 <0>         0.0210
     29 H1         -0.1754    0.3068   -2.5837 H         1 <0>         0.1328
     30 H2          1.6030    0.3802   -2.5631 H         1 <0>         0.1112
     31 H3          0.7794   -1.0915   -3.1326 H         1 <0>         0.1328
     32 H4         -0.2541   -2.7737   -1.2602 H         1 <0>         0.2144
     33 H5         -0.2863   -4.0658    1.1010 H         1 <0>         0.4654
     34 H6          0.0345   -1.0241    2.9661 H         1 <0>         0.1704
     35 H7          0.5400   -6.4078    5.2168 H         1 <0>         0.1646
     36 H8          0.6151   -4.4512    7.5700 H         1 <0>         0.1502
     37 H9          0.7142   -7.9295    6.1081 H         1 <0>         0.1285
     38 H10         0.9450  -10.0013    7.4126 H         1 <0>         0.1364
     39 H11         1.1297   -9.9036    9.8636 H         1 <0>         0.1374
     40 H12         1.0836   -7.7363   11.0260 H         1 <0>         0.1386
     41 H13         0.8647   -5.6505    9.7417 H         1 <0>         0.1356
     42 H14        -0.3316   -0.3705    7.6013 H         1 <0>         0.1068
     43 H15         0.9519   -1.5854    7.3624 H         1 <0>         0.1142
     44 H16         1.8036    0.6029    8.2964 H         1 <0>         0.1111
     45 H17         2.5518    0.1561    6.7438 H         1 <0>         0.0456
     46 H18         0.6720    2.5562    4.7737 H         1 <0>         0.1081
     47 H19         1.9050    1.2725    4.7304 H         1 <0>         0.0409
     48 H20        -0.1723    0.3735    3.8298 H         1 <0>         0.0837
     49 H21        -1.0748    0.9246    5.2659 H         1 <0>         0.1158
     50 H22         3.0571    2.6054    6.5653 H         1 <0>         0.0334
     51 H23         1.6925    3.7470    6.5117 H         1 <0>         0.0800
     52 H24         2.1244    2.9476    8.0422 H         1 <0>         0.0840
     53 H25         0.2899   -5.1446    3.1895 H         1 <0>         0.4506
     54 H26         1.3201   -0.8495    2.0583 H         1 <0>         0.4677
     55 H27         1.6717    0.6539    0.0421 H         1 <0>         0.4835
@<TRIPOS>BOND
     1    1    2 1
     2    1   29 1
     3    1   30 1
     4    1   31 1
     5    2    3 1
     6    2    6 2
     7    3   32 1
     8    3    4 2
     9    4    7 1
    10    4    5 1
    11    5   54 1
    12    5    6 1
    13    6   55 1
    14    7    8 1
    15    7   33 1
    16    8   13 ar
    17    8    9 ar
    18    9   10 ar
    19    9   34 1
    20   10   11 ar
    21   10   22 1
    22   11   12 ar
    23   12   13 ar
    24   12   14 1
    25   13   53 1
    26   14   15 2
    27   14   35 1
    28   15   16 1
    29   15   36 1
    30   16   21 ar
    31   16   17 ar
    32   17   18 ar
    33   17   37 1
    34   18   19 ar
    35   18   38 1
    36   19   20 ar
    37   19   39 1
    38   20   21 ar
    39   20   40 1
    40   21   41 1
    41   22   27 1
    42   22   23 1
    43   23   24 1
    44   23   42 1
    45   23   43 1
    46   24   25 1
    47   24   44 1
    48   24   45 1
    49   25   26 1
    50   25   28 1
    51   26   27 1
    52   26   46 1
    53   26   47 1
    54   27   48 1
    55   27   49 1
    56   28   50 1
    57   28   51 1
    58   28   52 1
@<TRIPOS>MOLECULE
ZINC35636073
   54    57     0     0     0
SMALL
USER_CHARGES

@<TRIPOS>ATOM
      1 C1          0.5293    2.5597    0.6609 C.3       1 <0>        -0.6502
      2 S1          0.5231    0.7695    0.9537 S.o2      1 <0>         2.4984
      3 O1          1.4953    0.4303    1.9330 O.2       1 <0>        -0.9347
      4 O2         -0.8122    0.2962    1.0642 O.2       1 <0>        -0.9346
      5 C2          1.1277    0.0637   -0.5434 C.ar      1 <0>        -0.6614
      6 C3          0.2466   -0.2729   -1.5542 C.ar      1 <0>        -0.0120
      7 C4          0.7209   -0.8265   -2.7284 C.ar      1 <0>        -0.1383
      8 C5          2.0765   -1.0432   -2.8924 C.ar      1 <0>        -0.0420
      9 C6          2.9574   -0.7058   -1.8823 C.ar      1 <0>        -0.1368
     10 C7          2.4834   -0.1481   -0.7093 C.ar      1 <0>        -0.0029
     11 C8          4.4350   -0.9424   -2.0608 C.3       1 <0>         0.1688
     12 N1          5.0507    0.2442   -2.6600 N.pl3     1 <0>        -0.6986
     13 C9          6.4111    0.2619   -2.9206 C.ar      1 <0>         0.5248
     14 C10         7.0097    1.3902   -3.4864 C.ar      1 <0>        -0.4122
     15 C11         8.3690    1.3631   -3.7288 C.ar      1 <0>         0.2743
     16 N2          9.0610    0.2761   -3.4201 N.ar      1 <0>        -0.5853
     17 C12         8.4672   -0.7800   -2.8843 C.ar      1 <0>         0.6213
     18 N3          7.1668   -0.7921   -2.6310 N.ar      1 <0>        -0.6121
     19 N4          9.2255   -1.8972   -2.5763 N.pl3     1 <0>        -0.6283
     20 C13        10.6173   -1.8605   -2.7227 C.ar      1 <0>         0.1388
     21 C14        11.3225   -0.7154   -2.3747 C.ar      1 <0>        -0.0732
     22 C15        12.6947   -0.6788   -2.5197 C.ar      1 <0>        -0.1299
     23 C16        13.3705   -1.7872   -3.0130 C.ar      1 <0>         0.1489
     24 C17        12.6655   -2.9321   -3.3601 C.ar      1 <0>        -0.1038
     25 C18        11.2938   -2.9710   -3.2106 C.ar      1 <0>        -0.1026
     26 C19        13.4022   -4.1332   -3.8938 C.3       1 <0>        -0.0768
     27 C20        14.6005   -3.6710   -4.7235 C.3       1 <0>        -0.1390
     28 C21        15.3853   -2.6389   -3.9597 C.2       1 <0>         0.5206
     29 O3         16.5932   -2.6051   -4.0653 O.2       1 <0>        -0.5264
     30 N5         14.7627   -1.7530   -3.1608 N.am      1 <0>        -0.6633
     31 C22         6.1907    2.6090   -3.8251 C.3       1 <0>         0.5288
     32 F1          7.0215    3.5910   -4.3752 F         1 <0>        -0.1721
     33 F2          5.2010    2.2632   -4.7513 F         1 <0>        -0.1789
     34 F3          5.5893    3.1043   -2.6631 F         1 <0>        -0.1791
     35 H1          1.5452    2.8884    0.4416 H         1 <0>         0.1320
     36 H2         -0.1182    2.7918   -0.1846 H         1 <0>         0.1324
     37 H3          0.1647    3.0745    1.5498 H         1 <0>         0.1352
     38 H4         -0.8123   -0.1037   -1.4261 H         1 <0>         0.1458
     39 H5          0.0325   -1.0901   -3.5178 H         1 <0>         0.1384
     40 H6          2.4470   -1.4764   -3.8097 H         1 <0>         0.1347
     41 H7          3.1722    0.1190    0.0785 H         1 <0>         0.1449
     42 H8          4.8915   -1.1379   -1.0906 H         1 <0>         0.0876
     43 H9          4.5891   -1.8010   -2.7145 H         1 <0>         0.0864
     44 H10         4.5057    1.0176   -2.8743 H         1 <0>         0.4141
     45 H11         8.8626    2.2186   -4.1656 H         1 <0>         0.1821
     46 H12         8.7923   -2.7050   -2.2591 H         1 <0>         0.4264
     47 H13        10.7970    0.1465   -1.9909 H         1 <0>         0.1359
     48 H14        13.2428    0.2116   -2.2492 H         1 <0>         0.1336
     49 H15        10.7463   -3.8630   -3.4771 H         1 <0>         0.1338
     50 H16        13.7510   -4.7446   -3.0615 H         1 <0>         0.0857
     51 H17        12.7319   -4.7215   -4.5204 H         1 <0>         0.0930
     52 H18        15.2414   -4.5254   -4.9409 H         1 <0>         0.1107
     53 H19        14.2473   -3.2377   -5.6593 H         1 <0>         0.1051
     54 H20        15.2815   -1.0864   -2.6841 H         1 <0>         0.4118
@<TRIPOS>BOND
     1    1    2 1
     2    1   35 1
     3    1   36 1
     4    1   37 1
     5    2    3 2
     6    2    4 2
     7    2    5 1
     8    5   10 ar
     9    5    6 ar
    10    6    7 ar
    11    6   38 1
    12    7    8 ar
    13    7   39 1
    14    8    9 ar
    15    8   40 1
    16    9   10 ar
    17    9   11 1
    18   10   41 1
    19   11   12 1
    20   11   42 1
    21   11   43 1
    22   12   13 1
    23   12   44 1
    24   13   18 ar
    25   13   14 ar
    26   14   15 ar
    27   14   31 1
    28   15   16 ar
    29   15   45 1
    30   16   17 ar
    31   17   18 ar
    32   17   19 1
    33   19   20 1
    34   19   46 1
    35   20   25 ar
    36   20   21 ar
    37   21   22 ar
    38   21   47 1
    39   22   23 ar
    40   22   48 1
    41   23   30 1
    42   23   24 ar
    43   24   25 ar
    44   24   26 1
    45   25   49 1
    46   26   27 1
    47   26   50 1
    48   26   51 1
    49   27   28 1
    50   27   52 1
    51   27   53 1
    52   28   29 2
    53   28   30 am
    54   30   54 1
    55   31   32 1
    56   31   33 1
    57   31   34 1
@<TRIPOS>MOLECULE
ZINC03964325
   57    59     0     0     0
SMALL
USER_CHARGES

@<TRIPOS>ATOM
      1 C1          0.1489    2.0884    0.1150 C.3       1 <0>        -0.1876
      2 C2          0.1348    0.5603    0.1888 C.3       1 <0>        -0.0191
      3 N1         -1.2520    0.0881    0.2979 N.4       1 <0>        -0.3822
      4 C3         -1.9779    0.4111   -0.9377 C.3       1 <0>        -0.0142
      5 C4         -3.4549    0.0484   -0.7712 C.3       1 <0>        -0.1895
      6 C5         -1.2593   -1.3663    0.5041 C.3       1 <0>        -0.0265
      7 C6         -0.6131   -1.6936    1.8518 C.3       1 <0>         0.0952
      8 N2         -0.6203   -3.1440    2.0575 N.am      1 <0>        -0.7289
      9 C7         -0.0988   -3.6675    3.1846 C.2       1 <0>         0.6111
     10 O1          0.3779   -2.9358    4.0309 O.2       1 <0>        -0.5184
     11 C8         -0.1061   -5.1270    3.3915 C.2       1 <0>        -0.2420
     12 C9          0.9071   -6.0320    3.0089 C.2       1 <0>        -0.0577
     13 C10         0.4868   -7.2892    3.3960 C.2       1 <0>        -0.0075
     14 N3         -0.7476   -7.1595    3.9982 N.pl3     1 <0>        -0.4910
     15 H1         -1.2731   -7.8879    4.3645 H         1 <0>         0.4270
     16 C11        -1.1044   -5.8642    4.0022 C.2       1 <0>         0.1158
     17 C12        -2.3825   -5.3072    4.5743 C.3       1 <0>        -0.0999
     18 C13         1.1957   -8.4957    3.2079 C.2       1 <0>         0.0729
     19 C14         0.5100   -9.6674    2.9570 C.2       1 <0>        -0.1889
     20 C15         1.0648  -11.0377    2.8871 C.ar      1 <0>        -0.0736
     21 C16         2.3472  -11.5557    3.0375 C.ar      1 <0>        -0.1000
     22 C17         2.5553  -12.9162    2.9116 C.ar      1 <0>         0.0861
     23 C18         1.4888  -13.7593    2.6366 C.ar      1 <0>        -0.1139
     24 C19         0.2139  -13.2531    2.4856 C.ar      1 <0>        -0.1021
     25 C20        -0.0144  -11.8871    2.6092 C.ar      1 <0>         0.1282
     26 N4         -1.1765  -11.1301    2.5069 N.am      1 <0>        -0.6466
     27 C21        -0.9294   -9.8245    2.7079 C.2       1 <0>         0.5595
     28 O2         -1.7538   -8.9280    2.6842 O.2       1 <0>        -0.5156
     29 F1          3.7984  -13.4252    3.0561 F         1 <0>        -0.1318
     30 C22         2.1990   -5.6919    2.3116 C.3       1 <0>        -0.0931
     31 H2          1.1793    2.4435    0.1331 H         1 <0>         0.1076
     32 H3         -0.3308    2.4121   -0.8087 H         1 <0>         0.0811
     33 H4         -0.3916    2.4984    0.9682 H         1 <0>         0.0809
     34 H5          0.5888    0.1488   -0.7126 H         1 <0>         0.1317
     35 H6          0.6996    0.2334    1.0619 H         1 <0>         0.1337
     36 H7         -1.8867    1.4775   -1.1444 H         1 <0>         0.1351
     37 H8         -1.5554   -0.1571   -1.7664 H         1 <0>         0.1307
     38 H9         -3.5537   -1.0316   -0.6617 H         1 <0>         0.0802
     39 H10        -3.8523    0.5414    0.1160 H         1 <0>         0.0808
     40 H11        -4.0109    0.3769   -1.6492 H         1 <0>         0.1074
     41 H12        -2.2871   -1.7292    0.4963 H         1 <0>         0.1397
     42 H13        -0.6973   -1.8494   -0.2952 H         1 <0>         0.1376
     43 H14         0.4147   -1.3306    1.8596 H         1 <0>         0.0893
     44 H15        -1.1751   -1.2105    2.6511 H         1 <0>         0.0890
     45 H16        -1.0005   -3.7277    1.3824 H         1 <0>         0.4099
     46 H17        -3.1529   -5.3000    3.8032 H         1 <0>         0.0840
     47 H18        -2.7087   -5.9289    5.4080 H         1 <0>         0.0782
     48 H19        -2.2103   -4.2898    4.9254 H         1 <0>         0.0840
     49 H20         2.2744   -8.5020    3.2604 H         1 <0>         0.1589
     50 H21         3.1765  -10.8977    3.2512 H         1 <0>         0.1436
     51 H22         1.6578  -14.8215    2.5394 H         1 <0>         0.1485
     52 H23        -0.6084  -13.9196    2.2712 H         1 <0>         0.1415
     53 H24        -2.0541  -11.4980    2.3189 H         1 <0>         0.4217
     54 H25         2.9686   -5.4822    3.0545 H         1 <0>         0.0785
     55 H26         2.5107   -6.5337    1.6932 H         1 <0>         0.0726
     56 H27         2.0522   -4.8138    1.6827 H         1 <0>         0.0634
     57 H28        -1.7009    0.5410    1.0799 H         1 <0>         0.4247
@<TRIPOS>BOND
     1    1    2 1
     2    1   31 1
     3    1   32 1
     4    1   33 1
     5    2    3 1
     6    2   34 1
     7    2   35 1
     8    3    4 1
     9    3    6 1
    10    3   57 1
    11    4    5 1
    12    4   36 1
    13    4   37 1
    14    5   38 1
    15    5   39 1
    16    5   40 1
    17    6    7 1
    18    6   41 1
    19    6   42 1
    20    7    8 1
    21    7   43 1
    22    7   44 1
    23    8    9 am
    24    8   45 1
    25    9   10 2
    26    9   11 1
    27   11   16 2
    28   11   12 1
    29   12   13 2
    30   12   30 1
    31   13   14 1
    32   13   18 1
    33   14   15 1
    34   14   16 1
    35   16   17 1
    36   17   46 1
    37   17   47 1
    38   17   48 1
    39   18   19 2
    40   18   49 1
    41   19   27 1
    42   19   20 1
    43   20   25 ar
    44   20   21 ar
    45   21   22 ar
    46   21   50 1
    47   22   23 ar
    48   22   29 1
    49   23   24 ar
    50   23   51 1
    51   24   25 ar
    52   24   52 1
    53   25   26 1
    54   26   27 am
    55   26   53 1
    56   27   28 2
    57   30   54 1
    58   30   55 1
    59   30   56 1
@<TRIPOS>MOLECULE
ZINC03973984
   56    61     0     0     0
SMALL
USER_CHARGES

@<TRIPOS>ATOM
      1 C1          2.5035    5.2044    5.2747 C.3       1 <0>        -0.0407
      2 C2          2.1460    2.8917    5.8982 C.3       1 <0>         0.0002
      3 C3          2.5994    1.4554    5.6263 C.3       1 <0>         0.0414
      4 N1          2.3296    1.1169    4.2220 N.pl3     1 <0>        -0.4613
      5 C4          3.0395    2.0315    3.3170 C.3       1 <0>         0.0369
      6 C5          2.5862    3.4678    3.5888 C.3       1 <0>         0.0039
      7 C6          2.6615   -0.1998    3.9568 C.ar      1 <0>         0.4871
      8 N2          3.1470   -0.9308    4.9409 N.ar      1 <0>        -0.5353
      9 C7          3.4872   -2.2119    4.7478 C.ar      1 <0>         0.1825
     10 C8          4.0048   -3.0092    5.7783 C.ar      1 <0>        -0.1065
     11 C9          4.3334   -4.3076    5.5235 C.ar      1 <0>        -0.0656
     12 C10         4.1631   -4.8562    4.2555 C.ar      1 <0>        -0.1085
     13 C11         3.6617   -4.1078    3.2298 C.ar      1 <0>        -0.0669
     14 C12         3.3105   -2.7758    3.4594 C.ar      1 <0>        -0.1492
     15 C13         2.7731   -1.9159    2.4035 C.ar      1 <0>         0.3236
     16 N3          2.4744   -0.6585    2.7252 N.ar      1 <0>        -0.4991
     17 C14         2.5650   -2.4238    1.0387 C.2       1 <0>        -0.1201
     18 C15         3.1800   -1.9689   -0.1276 C.2       1 <0>         0.0533
     19 C16         2.6362   -2.8084   -1.2276 C.2       1 <0>         0.5500
     20 O1          2.9328   -2.7204   -2.4013 O.2       1 <0>        -0.4227
     21 N4          1.7605   -3.6814   -0.7012 N.am      1 <0>        -0.6820
     22 C17         1.6634   -3.5132    0.6279 C.2       1 <0>         0.5700
     23 O2          0.9508   -4.1587    1.3715 O.2       1 <0>        -0.4396
     24 C18         4.1628   -0.8913   -0.2438 C.2       1 <0>        -0.1709
     25 C19         5.4966   -0.9402    0.1201 C.2       1 <0>         0.1080
     26 N5          6.0779    0.2476   -0.1381 N.pl3     1 <0>        -0.5732
     27 H1          7.0102    0.4541    0.0329 H         1 <0>         0.4235
     28 C20         5.1647    1.1307   -0.6801 C.ar      1 <0>         0.0844
     29 C21         3.9309    0.4665   -0.7721 C.ar      1 <0>        -0.0602
     30 C22         2.8189    1.1254   -1.2880 C.ar      1 <0>        -0.0732
     31 C23         2.9346    2.4335   -1.7084 C.ar      1 <0>        -0.1312
     32 C24         4.1518    3.0912   -1.6184 C.ar      1 <0>        -0.0989
     33 C25         5.2601    2.4513   -1.1048 C.ar      1 <0>        -0.1234
     34 H2          2.7756    5.4479    6.3018 H         1 <0>         0.1235
     35 H3          3.0428    5.8598    4.5909 H         1 <0>         0.1231
     36 H4          1.4307    5.3427    5.1405 H         1 <0>         0.1252
     37 H5          1.0724    2.9725    5.7281 H         1 <0>         0.1413
     38 H6          2.3713    3.1547    6.9317 H         1 <0>         0.1414
     39 H7          2.0529    0.7723    6.2765 H         1 <0>         0.1348
     40 H8          3.6680    1.3677    5.8227 H         1 <0>         0.0783
     41 H9          4.1131    1.9507    3.4870 H         1 <0>         0.0667
     42 H10         2.8139    1.7684    2.2835 H         1 <0>         0.1408
     43 H11         1.5175    3.5551    3.3925 H         1 <0>         0.1441
     44 H12         3.1327    4.1509    2.9386 H         1 <0>         0.1409
     45 H13         4.1420   -2.5977    6.7674 H         1 <0>         0.1438
     46 H14         4.7321   -4.9205    6.3183 H         1 <0>         0.1425
     47 H15         4.4315   -5.8876    4.0807 H         1 <0>         0.1407
     48 H16         3.5332   -4.5436    2.2500 H         1 <0>         0.1310
     49 H17         1.2665   -4.3425   -1.2110 H         1 <0>         0.4382
     50 H18         5.9953   -1.7986    0.5453 H         1 <0>         0.1795
     51 H19         1.8699    0.6147   -1.3585 H         1 <0>         0.1217
     52 H20         2.0736    2.9480   -2.1089 H         1 <0>         0.1281
     53 H21         4.2319    4.1158   -1.9504 H         1 <0>         0.1296
     54 H22         6.2033    2.9732   -1.0392 H         1 <0>         0.1233
     55 N6          2.8834    3.8027    4.9973 N.4       1 <0>        -0.4016
     56 H23         3.8908    3.6913    5.1615 H         1 <0>         0.4268
@<TRIPOS>BOND
     1    1   34 1
     2    1   35 1
     3    1   36 1
     4    1   55 1
     5    2    3 1
     6    2   37 1
     7    2   38 1
     8    2   55 1
     9    3    4 1
    10    3   39 1
    11    3   40 1
    12    4    5 1
    13    4    7 1
    14    5    6 1
    15    5   41 1
    16    5   42 1
    17    6   43 1
    18    6   44 1
    19    6   55 1
    20    7   16 ar
    21    7    8 ar
    22    8    9 ar
    23    9   14 ar
    24    9   10 ar
    25   10   11 ar
    26   10   45 1
    27   11   12 ar
    28   11   46 1
    29   12   13 ar
    30   12   47 1
    31   13   14 ar
    32   13   48 1
    33   14   15 ar
    34   15   16 ar
    35   15   17 1
    36   17   22 1
    37   17   18 2
    38   18   19 1
    39   18   24 1
    40   19   20 2
    41   19   21 am
    42   21   22 am
    43   21   49 1
    44   22   23 2
    45   24   29 1
    46   24   25 2
    47   25   26 1
    48   25   50 1
    49   26   27 1
    50   26   28 1
    51   28   33 ar
    52   28   29 ar
    53   29   30 ar
    54   30   31 ar
    55   30   51 1
    56   31   32 ar
    57   31   52 1
    58   32   33 ar
    59   32   53 1
    60   33   54 1
    61   55   56 1
@<TRIPOS>MOLECULE
ZINC18825339
   59    62     0     0     0
SMALL
USER_CHARGES
5-[(Z)-(5-fluoro-2-oxo-indolin-3-ylidene)methyl]-N-[(2R)-2-hydroxy-3-morpholino-propyl]-2,4-dimethyl-1H-pyrrole-3-carboxamide
@<TRIPOS>ATOM
      1 C1          3.5607    0.7280    0.3667 C.3       1 <0>        -0.0956
      2 C2          2.0758    0.7165    0.1102 C.2       1 <0>        -0.0564
      3 C3          1.2591    1.8188   -0.0477 C.2       1 <0>        -0.0308
      4 N1         -0.0271    1.3691   -0.2640 N.pl3     1 <0>        -0.5068
      5 H1         -0.8436    2.0903   -0.4163 H         1 <0>         0.4494
      6 C4         -0.0354    0.0257   -0.2455 C.2       1 <0>         0.1277
      7 C5          1.2525   -0.4230   -0.0155 C.2       1 <0>        -0.2308
      8 C6          1.6847   -1.8291    0.0810 C.2       1 <0>         0.5980
      9 O1          2.0430   -2.4250   -0.9167 O.2       1 <0>        -0.5421
     10 N2          1.6827   -2.4542    1.2750 N.am      1 <0>        -0.7266
     11 C7          2.1121   -3.8516    1.3710 C.3       1 <0>         0.1299
     12 C8          2.0150   -4.3162    2.8255 C.3       1 <0>         0.1144
     13 H2          2.5334   -3.6206    3.5018 H         1 <0>         0.0568
     14 C9          2.5799   -5.7329    2.9471 C.3       1 <0>         0.0228
     15 N3          2.4867   -6.1790    4.3436 N.3       1 <0>        -0.5349
     16 C10         3.3671   -5.3829    5.2109 C.3       1 <0>         0.0083
     17 C11         3.1945   -5.8402    6.6618 C.3       1 <0>         0.0618
     18 O2          3.4694   -7.2408    6.7508 O.3       1 <0>        -0.3843
     19 C12         2.6296   -8.0463    5.9193 C.3       1 <0>         0.0614
     20 C13         2.7965   -7.6114    4.4609 C.3       1 <0>         0.0172
     21 O3          0.6463   -4.3123    3.2364 O.3       1 <0>        -0.5882
     22 C14        -1.2476   -0.8477   -0.4426 C.3       1 <0>        -0.0994
     23 C15         1.6686    3.1691    0.0027 C.2       1 <0>         0.0908
     24 C16         0.8216    4.1284    0.5209 C.2       1 <0>        -0.2125
     25 C17         1.0162    5.5955    0.5210 C.ar      1 <0>        -0.0684
     26 C18         2.0202    6.4240    0.0297 C.ar      1 <0>        -0.1043
     27 C19         1.9118    7.7937    0.1786 C.ar      1 <0>         0.0808
     28 C20         0.8031    8.3379    0.8097 C.ar      1 <0>        -0.1198
     29 C21        -0.2000    7.5233    1.2941 C.ar      1 <0>        -0.1061
     30 C22        -0.1080    6.1430    1.1533 C.ar      1 <0>         0.1250
     31 N4         -0.9593    5.1144    1.5420 N.am      1 <0>        -0.6604
     32 C23        -0.4649    3.9133    1.1971 C.2       1 <0>         0.5647
     33 O4         -0.9909    2.8351    1.4086 O.2       1 <0>        -0.5132
     34 F1          2.8866    8.6030   -0.2904 F         1 <0>        -0.1355
     35 H3          3.9167    1.7678    0.4131 H         1 <0>         0.0672
     36 H4          4.0776    0.1994   -0.4478 H         1 <0>         0.0746
     37 H5          3.7717    0.2252    1.3221 H         1 <0>         0.0710
     38 H6          1.3586   -1.9152    2.1775 H         1 <0>         0.4262
     39 H7          1.4633   -4.4786    0.7417 H         1 <0>         0.0750
     40 H8          3.1531   -3.9398    1.0266 H         1 <0>         0.0785
     41 H9          2.0023   -6.4143    2.3052 H         1 <0>         0.0900
     42 H10         3.6334   -5.7360    2.6307 H         1 <0>         0.0465
     43 H11         4.4130   -5.5254    4.9015 H         1 <0>         0.0459
     44 H12         3.1012   -4.3189    5.1257 H         1 <0>         0.0881
     45 H13         3.8925   -5.2859    7.3064 H         1 <0>         0.1001
     46 H14         2.1618   -5.6458    6.9871 H         1 <0>         0.0615
     47 H15         2.9156   -9.1033    6.0238 H         1 <0>         0.1009
     48 H16         1.5805   -7.9185    6.2243 H         1 <0>         0.0621
     49 H17         2.1104   -8.1883    3.8234 H         1 <0>         0.0898
     50 H18         3.8332   -7.7899    4.1393 H         1 <0>         0.0455
     51 H19         0.3780   -4.6185    4.2583 H         1 <0>         0.4136
     52 H20        -0.9523   -1.9052   -0.3757 H         1 <0>         0.0845
     53 H21        -1.6843   -0.6508   -1.4328 H         1 <0>         0.0777
     54 H22        -1.9909   -0.6245    0.3369 H         1 <0>         0.0809
     55 H23         2.6624    3.4568   -0.3709 H         1 <0>         0.1579
     56 H24         2.8828    5.9984   -0.4614 H         1 <0>         0.1409
     57 H25         0.7239    9.4091    0.9228 H         1 <0>         0.1443
     58 H26        -1.0583    7.9589    1.7840 H         1 <0>         0.1386
     59 H27        -1.9003    5.3463    2.0623 H         1 <0>         0.4455
@<TRIPOS>BOND
     1    1    2 1
     2    1   35 1
     3    1   36 1
     4    1   37 1
     5    2    7 1
     6    2    3 2
     7    3    4 1
     8    3   23 1
     9    4    5 1
    10    4    6 1
    11    6    7 2
    12    6   22 1
    13    7    8 1
    14    8    9 2
    15    8   10 am
    16   10   11 1
    17   10   38 1
    18   11   12 1
    19   11   39 1
    20   11   40 1
    21   12   13 1
    22   12   14 1
    23   12   21 1
    24   14   15 1
    25   14   41 1
    26   14   42 1
    27   15   20 1
    28   15   16 1
    29   16   17 1
    30   16   43 1
    31   16   44 1
    32   17   18 1
    33   17   45 1
    34   17   46 1
    35   18   19 1
    36   19   20 1
    37   19   47 1
    38   19   48 1
    39   20   49 1
    40   20   50 1
    41   21   51 1
    42   22   52 1
    43   22   53 1
    44   22   54 1
    45   23   24 2
    46   23   55 1
    47   24   32 1
    48   24   25 1
    49   25   30 ar
    50   25   26 ar
    51   26   27 ar
    52   26   56 1
    53   27   28 ar
    54   27   34 1
    55   28   29 ar
    56   28   57 1
    57   29   30 ar
    58   29   58 1
    59   30   31 1
    60   31   32 am
    61   31   59 1
    62   32   33 2
@<TRIPOS>MOLECULE
ZINC18825344
   59    62     0     0     0
SMALL
USER_CHARGES
5-[(Z)-(5-fluoro-2-oxo-indolin-3-ylidene)methyl]-N-[(2S)-2-hydroxy-3-morpholino-propyl]-2,4-dimethyl-1H-pyrrole-3-carboxamide
@<TRIPOS>ATOM
      1 C1          4.7056    0.6287    1.0117 C.3       1 <0>        -0.0968
      2 C2          3.2464    0.8378    0.6983 C.2       1 <0>        -0.0523
      3 C3          2.5980    2.0501    0.5678 C.2       1 <0>        -0.0327
      4 N1          1.2732    1.7961    0.2789 N.pl3     1 <0>        -0.5060
      5 H1          0.5720    2.6311    0.1339 H         1 <0>         0.4496
      6 C4          1.0783    0.4679    0.2258 C.2       1 <0>         0.1246
      7 C5          2.2801   -0.1676    0.4808 C.2       1 <0>        -0.2308
      8 C6          2.5088   -1.6234    0.5191 C.2       1 <0>         0.5976
      9 O1          2.8262   -2.2159   -0.4944 O.2       1 <0>        -0.5428
     10 N2          2.3662   -2.2977    1.6773 N.am      1 <0>        -0.7254
     11 C7          2.5935   -3.7444    1.7154 C.3       1 <0>         0.1298
     12 C8          2.3672   -4.2590    3.1384 C.3       1 <0>         0.1172
     13 H2          1.3599   -4.0040    3.4994 H         1 <0>         0.0560
     14 C9          2.6045   -5.7699    3.1781 C.3       1 <0>         0.0219
     15 N3          2.3382   -6.2720    4.5327 N.3       1 <0>        -0.5356
     16 C10         2.9762   -7.5793    4.7450 C.3       1 <0>         0.0168
     17 C11         2.7241   -8.0365    6.1842 C.3       1 <0>         0.0612
     18 O2          1.3152   -8.0759    6.4267 O.3       1 <0>        -0.3844
     19 C12         0.6618   -6.8191    6.2299 C.3       1 <0>         0.0617
     20 C13         0.8930   -6.3496    4.7911 C.3       1 <0>         0.0111
     21 O3          3.2765   -3.6103    4.0297 O.3       1 <0>        -0.5892
     22 C14        -0.2328   -0.2165   -0.0637 C.3       1 <0>        -0.0987
     23 C15         3.1876    3.3256    0.7056 C.2       1 <0>         0.0935
     24 C16         2.4515    4.3746    1.2192 C.2       1 <0>        -0.2157
     25 C17         2.8515    5.7966    1.3077 C.ar      1 <0>        -0.0669
     26 C18         3.9943    6.4912    0.9234 C.ar      1 <0>        -0.1048
     27 C19         4.0710    7.8545    1.1363 C.ar      1 <0>         0.0814
     28 C20         3.0098    8.5263    1.7247 C.ar      1 <0>        -0.1204
     29 C21         1.8704    7.8457    2.1029 C.ar      1 <0>        -0.1055
     30 C22         1.7753    6.4739    1.8965 C.ar      1 <0>         0.1237
     31 N4          0.7622    5.5637    2.1775 N.am      1 <0>        -0.6596
     32 C23         1.1039    4.3195    1.8021 C.2       1 <0>         0.5657
     33 O4          0.4171    3.3209    1.9242 O.2       1 <0>        -0.5153
     34 F1          5.1807    8.5334    0.7715 F         1 <0>        -0.1355
     35 H3          5.1994    1.6049    1.1269 H         1 <0>         0.0668
     36 H4          5.1808    0.0720    0.1906 H         1 <0>         0.0744
     37 H5          4.8016    0.0567    1.9464 H         1 <0>         0.0741
     38 H6          2.0791   -1.7617    2.5940 H         1 <0>         0.4273
     39 H7          1.8935   -4.2437    1.0293 H         1 <0>         0.0777
     40 H8          3.6268   -3.9615    1.4070 H         1 <0>         0.0736
     41 H9          1.9304   -6.2658    2.4641 H         1 <0>         0.0486
     42 H10         3.6486   -5.9844    2.9062 H         1 <0>         0.0884
     43 H11         2.5501   -8.3132    4.0451 H         1 <0>         0.0451
     44 H12         4.0587   -7.4917    4.5704 H         1 <0>         0.0900
     45 H13         3.1515   -9.0395    6.3305 H         1 <0>         0.1008
     46 H14         3.1986   -7.3305    6.8817 H         1 <0>         0.0620
     47 H15        -0.4170   -6.9344    6.4112 H         1 <0>         0.1000
     48 H16         1.0741   -6.0778    6.9303 H         1 <0>         0.0613
     49 H17         0.4415   -5.3564    4.6504 H         1 <0>         0.0873
     50 H18         0.4333   -7.0637    4.0920 H         1 <0>         0.0461
     51 H19         3.2627   -3.8533    5.1024 H         1 <0>         0.4141
     52 H20        -0.0899   -1.3070   -0.0417 H         1 <0>         0.0829
     53 H21        -0.5927    0.0862   -1.0581 H         1 <0>         0.0781
     54 H22        -0.9728    0.0718    0.6974 H         1 <0>         0.0803
     55 H23         4.2335    3.4835    0.4037 H         1 <0>         0.1584
     56 H24         4.8196    5.9664    0.4654 H         1 <0>         0.1411
     57 H25         3.0756    9.5918    1.8882 H         1 <0>         0.1443
     58 H26         1.0507    8.3797    2.5605 H         1 <0>         0.1385
     59 H27        -0.1701    5.9069    2.6497 H         1 <0>         0.4455
@<TRIPOS>BOND
     1    1    2 1
     2    1   35 1
     3    1   36 1
     4    1   37 1
     5    2    7 1
     6    2    3 2
     7    3    4 1
     8    3   23 1
     9    4    5 1
    10    4    6 1
    11    6    7 2
    12    6   22 1
    13    7    8 1
    14    8    9 2
    15    8   10 am
    16   10   11 1
    17   10   38 1
    18   11   12 1
    19   11   39 1
    20   11   40 1
    21   12   13 1
    22   12   14 1
    23   12   21 1
    24   14   15 1
    25   14   41 1
    26   14   42 1
    27   15   20 1
    28   15   16 1
    29   16   17 1
    30   16   43 1
    31   16   44 1
    32   17   18 1
    33   17   45 1
    34   17   46 1
    35   18   19 1
    36   19   20 1
    37   19   47 1
    38   19   48 1
    39   20   49 1
    40   20   50 1
    41   21   51 1
    42   22   52 1
    43   22   53 1
    44   22   54 1
    45   23   24 2
    46   23   55 1
    47   24   32 1
    48   24   25 1
    49   25   30 ar
    50   25   26 ar
    51   26   27 ar
    52   26   56 1
    53   27   28 ar
    54   27   34 1
    55   28   29 ar
    56   28   57 1
    57   29   30 ar
    58   29   58 1
    59   30   31 1
    60   31   32 am
    61   31   59 1
    62   32   33 2
@<TRIPOS>MOLECULE
ZINC00602803
   57    59     0     0     0
SMALL
USER_CHARGES

@<TRIPOS>ATOM
      1 C1         -1.3402   -4.8618    1.2145 C.3       1 <0>        -0.1534
      2 C2         -0.8181   -3.6495    0.4408 C.3       1 <0>         0.0511
      3 O1         -0.7742   -2.5142    1.3074 O.3       1 <0>        -0.3148
      4 C3         -0.3304   -1.3470    0.7727 C.ar      1 <0>         0.1525
      5 C4          0.0498   -1.3049   -0.5488 C.ar      1 <0>        -0.1831
      6 C5          0.5092   -0.1023   -1.1071 C.ar      1 <0>         0.1876
      7 C6          0.5748    1.0570   -0.2965 C.ar      1 <0>        -0.1304
      8 C7          0.1883    0.9932    1.0499 C.ar      1 <0>        -0.0592
      9 C8         -0.2650   -0.1967    1.5740 C.ar      1 <0>         0.1185
     10 N1         -0.6575   -0.2608    2.9161 N.am      1 <0>        -0.6449
     11 C9         -0.1566    0.6173    3.8075 C.2       1 <0>         0.5328
     12 O2          0.7152    1.3957    3.4703 O.2       1 <0>        -0.5071
     13 C10        -0.6641    0.6344    5.1877 C.2       1 <0>        -0.1271
     14 C11        -0.1697    1.5011    6.0673 C.2       1 <0>        -0.1492
     15 C12        -0.6897    1.5186    7.4817 C.3       1 <0>         0.0302
     16 C13         1.3312    2.5206    8.3617 C.3       1 <0>        -0.0486
     17 C14        -0.0528    1.1357    9.7861 C.3       1 <0>        -0.0433
     18 C15         1.0386    2.2666   -0.8642 C.ar      1 <0>         0.2844
     19 C16         1.4144    2.2536   -2.2161 C.ar      1 <0>        -0.1029
     20 C17         1.3165    1.0573   -2.9447 C.ar      1 <0>         0.2010
     21 N2          0.8834   -0.0478   -2.3940 N.ar      1 <0>        -0.4743
     22 C18         1.8922    3.4476   -2.8459 C.1       1 <0>         0.2469
     23 N3          2.2712    4.3948   -3.3456 N.1       1 <0>        -0.3851
     24 N4          1.1194    3.4219   -0.1130 N.pl3     1 <0>        -0.6979
     25 C19         2.3677    3.9814    0.1773 C.ar      1 <0>         0.1846
     26 C20         3.4715    3.1592    0.3659 C.ar      1 <0>        -0.1231
     27 C21         4.7048    3.7137    0.6463 C.ar      1 <0>        -0.1069
     28 C22         4.8398    5.0877    0.7520 C.ar      1 <0>         0.0844
     29 C23         3.7394    5.9099    0.5700 C.ar      1 <0>        -0.0407
     30 C24         2.5044    5.3592    0.2831 C.ar      1 <0>        -0.1222
     31 Cl1         3.9119    7.6322    0.7020 Cl        1 <0>        -0.0373
     32 F1          6.0462    5.6274    1.0324 F         1 <0>        -0.1244
     33 H1         -2.3423   -4.6506    1.5877 H         1 <0>         0.0676
     34 H2         -1.3737   -5.7279    0.5535 H         1 <0>         0.0859
     35 H3         -0.6765   -5.0706    2.0536 H         1 <0>         0.0665
     36 H4         -1.4818   -3.4407   -0.3983 H         1 <0>         0.0727
     37 H5          0.1840   -3.8607    0.0676 H         1 <0>         0.0719
     38 H6         -0.0049   -2.1965   -1.1558 H         1 <0>         0.1557
     39 H7          0.2375    1.8756    1.6707 H         1 <0>         0.1646
     40 H8         -1.2900   -0.9373    3.2047 H         1 <0>         0.4221
     41 H9         -1.4381   -0.0567    5.4870 H         1 <0>         0.1454
     42 H10         0.6043    2.1922    5.7680 H         1 <0>         0.1533
     43 H11        -1.1915    2.4672    7.6726 H         1 <0>         0.1468
     44 H12        -1.3959    0.6999    7.6193 H         1 <0>         0.1366
     45 H13         0.7789    3.4221    8.6269 H         1 <0>         0.1257
     46 H14         2.1523    2.3777    9.0642 H         1 <0>         0.1250
     47 H15         1.7302    2.6227    7.3524 H         1 <0>         0.1232
     48 H16        -0.6601    0.2309    9.8124 H         1 <0>         0.1226
     49 H17         0.7976    1.0222   10.4584 H         1 <0>         0.1252
     50 H18        -0.6553    1.9870   10.1029 H         1 <0>         0.1250
     51 H19         1.6056    1.0492   -3.9853 H         1 <0>         0.1765
     52 H20         0.3102    3.8456    0.2136 H         1 <0>         0.4201
     53 H21         3.3660    2.0871    0.2888 H         1 <0>         0.1375
     54 H22         5.5639    3.0747    0.7881 H         1 <0>         0.1500
     55 H23         1.6466    6.0000    0.1416 H         1 <0>         0.1457
     56 N5          0.4465    1.3376    8.4096 N.4       1 <0>        -0.3970
     57 H24         0.9816    0.5092    8.1241 H         1 <0>         0.4334
@<TRIPOS>BOND
     1    1    2 1
     2    1   33 1
     3    1   34 1
     4    1   35 1
     5    2    3 1
     6    2   36 1
     7    2   37 1
     8    3    4 1
     9    4    9 ar
    10    4    5 ar
    11    5    6 ar
    12    5   38 1
    13    6   21 ar
    14    6    7 ar
    15    7    8 ar
    16    7   18 ar
    17    8    9 ar
    18    8   39 1
    19    9   10 1
    20   10   11 am
    21   10   40 1
    22   11   12 2
    23   11   13 1
    24   13   14 2
    25   13   41 1
    26   14   15 1
    27   14   42 1
    28   15   43 1
    29   15   44 1
    30   15   56 1
    31   16   45 1
    32   16   46 1
    33   16   47 1
    34   16   56 1
    35   17   48 1
    36   17   49 1
    37   17   50 1
    38   17   56 1
    39   18   19 ar
    40   18   24 1
    41   19   20 ar
    42   19   22 1
    43   20   21 ar
    44   20   51 1
    45   22   23 3
    46   24   25 1
    47   24   52 1
    48   25   30 ar
    49   25   26 ar
    50   26   27 ar
    51   26   53 1
    52   27   28 ar
    53   27   54 1
    54   28   29 ar
    55   28   32 1
    56   29   30 ar
    57   29   31 1
    58   30   55 1
    59   56   57 1
