@<TRIPOS>MOLECULE
ZINC27730947
   42    43     0     0     0
SMALL
USER_CHARGES
(1S)-4-(3-phenoxyphenyl)-1-phosphono-butane-1-sulfonic acid
@<TRIPOS>ATOM
      1 C1          1.6500    1.2129    3.5828 C.ar      1 <0>        -0.1617
      2 C2          2.2525    1.5675    2.3899 C.ar      1 <0>        -0.0859
      3 C3          1.7028    1.1614    1.1895 C.ar      1 <0>        -0.1522
      4 C4          0.5449    0.3968    1.1815 C.ar      1 <0>         0.1298
      5 C5         -0.0610    0.0471    2.3798 C.ar      1 <0>        -0.1929
      6 C6          0.4958    0.4515    3.5776 C.ar      1 <0>        -0.0822
      7 O1          0.0021   -0.0041    0.0020 O.3       1 <0>        -0.2577
      8 C7         -1.1374   -0.7433    0.0427 C.ar      1 <0>         0.0718
      9 C8         -2.3747   -0.1151    0.0207 C.ar      1 <0>        -0.1389
     10 C9         -3.5313   -0.8688    0.0616 C.ar      1 <0>        -0.1046
     11 C10        -3.4573   -2.2483    0.1240 C.ar      1 <0>        -0.1041
     12 C11        -2.2260   -2.8766    0.1456 C.ar      1 <0>        -0.0455
     13 C12        -1.0660   -2.1276    0.1005 C.ar      1 <0>        -0.1243
     14 C13        -2.1491   -4.3802    0.2127 C.3       1 <0>        -0.0840
     15 C14        -2.1309   -4.9537   -1.2056 C.3       1 <0>        -0.1538
     16 C15        -2.0528   -6.4802   -1.1376 C.3       1 <0>        -0.0657
     17 C16        -2.0346   -7.0537   -2.5559 C.3       1 <0>        -1.2269
     18 H1         -1.1812   -6.5063   -2.9825 H         1 <0>         0.1067
     19 P1         -1.7923   -8.8588   -2.4784 P.3       1 <0>         2.2850
     20 O2         -2.8998   -9.4728   -1.7122 O.2       1 <0>        -1.0668
     21 O3         -1.7731   -9.4623   -3.9708 O.3       1 <0>        -1.1057
     22 O4         -0.3929   -9.1818   -1.7508 O.3       1 <0>        -0.9403
     23 S1         -3.6114   -6.6898   -3.3756 S.o2      1 <0>         2.6464
     24 O5         -3.9005   -5.3014   -3.2862 O.2       1 <0>        -1.0766
     25 O6         -3.6815   -7.3656   -4.6237 O.2       1 <0>        -1.0321
     26 O7         -4.6668   -7.3628   -2.5097 O.3       1 <0>        -1.0575
     27 H2          2.0814    1.5315    4.5202 H         1 <0>         0.1211
     28 H3          3.1536    2.1629    2.3966 H         1 <0>         0.1271
     29 H4          2.1736    1.4389    0.2580 H         1 <0>         0.1302
     30 H5         -0.9650   -0.5438    2.3762 H         1 <0>         0.1311
     31 H6          0.0268    0.1764    4.5108 H         1 <0>         0.1238
     32 H7         -2.4330    0.9622   -0.0281 H         1 <0>         0.1244
     33 H8         -4.4944   -0.3804    0.0445 H         1 <0>         0.1292
     34 H9         -4.3629   -2.8359    0.1556 H         1 <0>         0.1350
     35 H10        -0.1044   -2.6191    0.1132 H         1 <0>         0.1276
     36 H11        -1.2306   -4.6772    0.7401 H         1 <0>         0.0658
     37 H12        -3.0245   -4.7683    0.7540 H         1 <0>         0.0797
     38 H13        -3.0494   -4.6567   -1.7330 H         1 <0>         0.1238
     39 H14        -1.2555   -4.5655   -1.7469 H         1 <0>         0.0469
     40 H15        -1.1343   -6.7772   -0.6102 H         1 <0>         0.0455
     41 H16        -2.9282   -6.8684   -0.5963 H         1 <0>         0.0790
     42 H17        -0.0734  -10.2251   -1.6115 H         1 <0>         0.4293
@<TRIPOS>BOND
     1    1    6 ar
     2    1    2 ar
     3    1   27 1
     4    2    3 ar
     5    2   28 1
     6    3    4 ar
     7    3   29 1
     8    4    5 ar
     9    4    7 1
    10    5    6 ar
    11    5   30 1
    12    6   31 1
    13    7    8 1
    14    8   13 ar
    15    8    9 ar
    16    9   10 ar
    17    9   32 1
    18   10   11 ar
    19   10   33 1
    20   11   12 ar
    21   11   34 1
    22   12   13 ar
    23   12   14 1
    24   13   35 1
    25   14   15 1
    26   14   36 1
    27   14   37 1
    28   15   16 1
    29   15   38 1
    30   15   39 1
    31   16   17 1
    32   16   40 1
    33   16   41 1
    34   17   18 1
    35   17   19 1
    36   17   23 1
    37   19   20 2
    38   19   21 1
    39   19   22 1
    40   22   42 1
    41   23   24 2
    42   23   25 2
    43   23   26 1
@<TRIPOS>MOLECULE
ZINC03989256
   85    88     0     0     0
SMALL
USER_CHARGES

@<TRIPOS>ATOM
      1 C1          8.8101    6.2145    1.8114 C.3       1 <0>        -0.1477
      2 C2          8.8247    4.8801    1.1113 C.2       1 <0>         0.4596
      3 O1          9.8630    4.4328    0.6850 O.2       1 <0>        -0.5172
      4 O2          7.6841    4.1884    0.9613 O.3       1 <0>        -0.3475
      5 C3          7.7731    2.9108    0.2771 C.3       1 <0>         0.0817
      6 C4          6.3836    2.2746    0.2022 C.3       1 <0>        -0.0794
      7 C5          5.4395    3.2005   -0.5673 C.3       1 <0>        -0.1548
      8 C6          5.8446    2.0586    1.6177 C.3       1 <0>        -0.1341
      9 C7          6.4774    0.9283   -0.5188 C.3       1 <0>         0.1231
     10 N1          5.1470    0.3191   -0.5905 N.am      1 <0>        -0.5567
     11 C8          4.2978    0.5701   -1.6789 C.ar      1 <0>         0.1587
     12 C9          4.7618    0.4611   -2.9804 C.ar      1 <0>        -0.1189
     13 C10         3.9016    0.6968   -4.0362 C.ar      1 <0>        -0.0801
     14 C11         2.5832    1.0403   -3.7927 C.ar      1 <0>        -0.0441
     15 C12         2.1204    1.1524   -2.4930 C.ar      1 <0>        -0.0630
     16 C13         2.9763    0.9201   -1.4352 C.ar      1 <0>        -0.1212
     17 C14         2.4906    1.0446   -0.0156 C.3       1 <0>         0.1713
     18 H1          3.2236    1.5993    0.5701 H         1 <0>         0.0967
     19 O3          2.3126   -0.2555    0.5547 O.3       1 <0>        -0.3227
     20 C15         3.3672   -1.1698    0.2556 C.3       1 <0>         0.0989
     21 H2          3.2467   -1.5330   -0.7650 H         1 <0>         0.0925
     22 C16         4.7062   -0.4983    0.3879 C.2       1 <0>         0.4932
     23 O4          5.3882   -0.6909    1.3722 O.2       1 <0>        -0.4878
     24 C17         3.2987   -2.3530    1.2232 C.3       1 <0>        -0.1265
     25 C18         2.0093   -3.1032    1.0089 C.2       1 <0>         0.5202
     26 O5          1.2227   -2.7284    0.1653 O.2       1 <0>        -0.5388
     27 N2          1.7304   -4.1906    1.7547 N.am      1 <0>        -0.6062
     28 C19         2.6761   -4.6604    2.7762 C.3       1 <0>         0.1057
     29 C20         1.9303   -4.7813    4.1138 C.3       1 <0>        -0.1304
     30 C21         0.7065   -5.6816    3.9293 C.3       1 <0>        -0.0665
     31 C22        -0.2412   -5.0535    2.9048 C.3       1 <0>        -0.1309
     32 C23         0.4776   -4.9323    1.5574 C.3       1 <0>         0.1157
     33 C24        -0.0191   -5.8360    5.2673 C.3       1 <0>        -0.1543
     34 C25         0.8711   -6.5651    6.2404 C.2       1 <0>         0.4603
     35 O6          1.9729   -6.9245    5.8987 O.co2     1 <0>        -0.6374
     36 C26         1.1764    1.7820    0.0004 C.ar      1 <0>        -0.0695
     37 C27        -0.0126    1.0758    0.0080 C.ar      1 <0>        -0.1104
     38 C28        -1.2196    1.7490    0.0173 C.ar      1 <0>        -0.0837
     39 C29        -1.2436    3.1316    0.0308 C.ar      1 <0>        -0.1916
     40 C30        -0.0563    3.8450    0.0232 C.ar      1 <0>         0.1083
     41 C31         1.1593    3.1671    0.0080 C.ar      1 <0>         0.0762
     42 O7          2.3277    3.8630    0.0001 O.3       1 <0>        -0.3172
     43 C32         2.8724    4.2018   -1.2768 C.3       1 <0>         0.0251
     44 O8         -0.0782    5.2047    0.0312 O.3       1 <0>        -0.3061
     45 C33        -1.3617    5.8328    0.0468 C.3       1 <0>         0.0250
     46 Cl1         1.5056    1.3311   -5.1224 Cl        1 <0>        -0.0609
     47 H3          7.7926    6.4501    2.1232 H         1 <0>         0.0919
     48 H4          9.4579    6.1725    2.6870 H         1 <0>         0.1049
     49 H5          9.1693    6.9860    1.1304 H         1 <0>         0.1040
     50 H6          8.4457    2.2511    0.8253 H         1 <0>         0.0741
     51 H7          8.1571    3.0647   -0.7314 H         1 <0>         0.0714
     52 H8          4.4497    2.7473   -0.6207 H         1 <0>         0.0728
     53 H9          5.3727    4.1596   -0.0537 H         1 <0>         0.0708
     54 H10         5.8235    3.3544   -1.5757 H         1 <0>         0.0523
     55 H11         6.5173    1.3989    2.1659 H         1 <0>         0.0636
     56 H12         5.7779    3.0176    2.1313 H         1 <0>         0.0630
     57 H13         4.8548    1.6053    1.5643 H         1 <0>         0.0540
     58 H14         7.1500    0.2687    0.0294 H         1 <0>         0.0985
     59 H15         6.8614    1.0822   -1.5272 H         1 <0>         0.0884
     60 H16         5.7909    0.1929   -3.1687 H         1 <0>         0.1427
     61 H17         4.2585    0.6124   -5.0520 H         1 <0>         0.1431
     62 H18         1.0912    1.4216   -2.3068 H         1 <0>         0.1434
     63 H19         4.1415   -3.0199    1.0419 H         1 <0>         0.1125
     64 H20         3.3395   -1.9864    2.2489 H         1 <0>         0.1150
     65 H21         3.0731   -5.6334    2.4868 H         1 <0>         0.0720
     66 H22         3.4926   -3.9450    2.8749 H         1 <0>         0.0802
     67 H23         1.6088   -3.7937    4.4445 H         1 <0>         0.0537
     68 H24         2.5936   -5.2176    4.8607 H         1 <0>         0.1049
     69 H25         1.0266   -6.6614    3.5748 H         1 <0>         0.0712
     70 H26        -0.5422   -4.0633    3.2469 H         1 <0>         0.0623
     71 H27        -1.1237   -5.6830    2.7911 H         1 <0>         0.0700
     72 H28        -0.1571   -4.3965    0.8516 H         1 <0>         0.0877
     73 H29         0.6989   -5.9271    1.1706 H         1 <0>         0.0643
     74 H30        -0.2616   -4.8505    5.6650 H         1 <0>         0.0618
     75 H31        -0.9375   -6.4040    5.1192 H         1 <0>         0.0626
     76 H32         0.0021   -0.0041    0.0020 H         1 <0>         0.1476
     77 H33        -2.1461    1.1939    0.0184 H         1 <0>         0.1327
     78 H34        -2.1881    3.6552    0.0426 H         1 <0>         0.1335
     79 H35         2.1599    4.8195   -1.8234 H         1 <0>         0.0441
     80 H36         3.8022    4.7541   -1.1402 H         1 <0>         0.0960
     81 H37         3.0706    3.2903   -1.8407 H         1 <0>         0.0486
     82 H38        -1.2363    6.9156    0.0518 H         1 <0>         0.1003
     83 H39        -1.9222    5.5360   -0.8397 H         1 <0>         0.0549
     84 H40        -1.9055    5.5259    0.9402 H         1 <0>         0.0567
     85 O9          0.4400   -6.8154    7.4867 O.co2     1 <0>        -0.7780
@<TRIPOS>BOND
     1    1    2 1
     2    1   47 1
     3    1   48 1
     4    1   49 1
     5    2    3 2
     6    2    4 1
     7    4    5 1
     8    5    6 1
     9    5   50 1
    10    5   51 1
    11    6    7 1
    12    6    8 1
    13    6    9 1
    14    7   52 1
    15    7   53 1
    16    7   54 1
    17    8   55 1
    18    8   56 1
    19    8   57 1
    20    9   10 1
    21    9   58 1
    22    9   59 1
    23   10   22 am
    24   10   11 1
    25   11   16 ar
    26   11   12 ar
    27   12   13 ar
    28   12   60 1
    29   13   14 ar
    30   13   61 1
    31   14   15 ar
    32   14   46 1
    33   15   16 ar
    34   15   62 1
    35   16   17 1
    36   17   18 1
    37   17   19 1
    38   17   36 1
    39   19   20 1
    40   20   21 1
    41   20   22 1
    42   20   24 1
    43   22   23 2
    44   24   25 1
    45   24   63 1
    46   24   64 1
    47   25   26 2
    48   25   27 am
    49   27   32 1
    50   27   28 1
    51   28   29 1
    52   28   65 1
    53   28   66 1
    54   29   30 1
    55   29   67 1
    56   29   68 1
    57   30   31 1
    58   30   33 1
    59   30   69 1
    60   31   32 1
    61   31   70 1
    62   31   71 1
    63   32   72 1
    64   32   73 1
    65   33   34 1
    66   33   74 1
    67   33   75 1
    68   34   35 2
    69   34   85 1
    70   36   41 ar
    71   36   37 ar
    72   37   38 ar
    73   37   76 1
    74   38   39 ar
    75   38   77 1
    76   39   40 ar
    77   39   78 1
    78   40   41 ar
    79   40   44 1
    80   41   42 1
    81   42   43 1
    82   43   79 1
    83   43   80 1
    84   43   81 1
    85   44   45 1
    86   45   82 1
    87   45   83 1
    88   45   84 1
@<TRIPOS>MOLECULE
ZINC03830212
   61    63     0     0     0
SMALL
USER_CHARGES
(2-butylbenzofuran-3-yl)-[4-(2-diethylaminoethoxy)-3,5-diiodo-phenyl]-methanone
@<TRIPOS>ATOM
      1 C1         -4.1677    4.6447    4.0546 C.3       1 <0>        -0.1559
      2 C2         -2.9795    4.1958    4.9076 C.3       1 <0>        -0.1215
      3 C3         -2.2245    3.0795    4.1832 C.3       1 <0>        -0.1217
      4 C4         -1.0363    2.6306    5.0361 C.3       1 <0>        -0.0556
      5 C5         -0.2927    1.5310    4.3226 C.2       1 <0>         0.1031
      6 C6          0.7390    1.7197    3.4530 C.2       1 <0>        -0.2632
      7 C7          1.1431    0.3689    3.0136 C.ar      1 <0>        -0.0982
      8 C8          2.1157   -0.1196    2.1476 C.ar      1 <0>        -0.0789
      9 C9          2.2335   -1.4791    1.9520 C.ar      1 <0>        -0.1205
     10 C10         1.3877   -2.3551    2.6156 C.ar      1 <0>        -0.0885
     11 C11         0.4203   -1.8818    3.4760 C.ar      1 <0>        -0.0979
     12 C12         0.2862   -0.5146    3.6855 C.ar      1 <0>         0.0534
     13 O1         -0.5429    0.2233    4.4527 O.3       1 <0>        -0.1754
     14 C13         1.3271    3.0012    3.0377 C.2       1 <0>         0.4789
     15 O2          0.9433    3.5452    2.0190 O.2       1 <0>        -0.4115
     16 C14         2.3833    3.6285    3.8565 C.ar      1 <0>        -0.1423
     17 C15         2.9023    2.9553    4.9660 C.ar      1 <0>         0.0014
     18 C16         3.8914    3.5418    5.7244 C.ar      1 <0>        -0.1300
     19 C17         4.3655    4.8065    5.3942 C.ar      1 <0>         0.1789
     20 C18         3.8481    5.4816    4.2943 C.ar      1 <0>        -0.1306
     21 C19         2.8628    4.8995    3.5275 C.ar      1 <0>         0.0029
     22 I1          4.5683    7.3863    3.8021 I         1 <0>        -0.0105
     23 O3          5.3362    5.3834    6.1473 O.3       1 <0>        -0.3308
     24 C20         4.9106    6.1869    7.2496 C.3       1 <0>         0.0219
     25 C21         6.1355    6.7485    7.9743 C.3       1 <0>        -0.0014
     26 C22         6.0477    8.8560    6.7855 C.3       1 <0>        -0.0236
     27 C23         5.8232    9.6517    8.0729 C.3       1 <0>        -0.1842
     28 C24         8.1576    8.0399    7.6484 C.3       1 <0>        -0.0132
     29 C25         9.0268    8.6709    6.5589 C.3       1 <0>        -0.1896
     30 I2          4.6769    2.5302    7.3823 I         1 <0>         0.0118
     31 H1         -3.8070    5.0137    3.0946 H         1 <0>         0.0557
     32 H2         -4.8371    3.8002    3.8910 H         1 <0>         0.0574
     33 H3         -4.7056    5.4399    4.5707 H         1 <0>         0.0582
     34 H4         -3.3403    3.8267    5.8677 H         1 <0>         0.0666
     35 H5         -2.3101    5.0403    5.0713 H         1 <0>         0.0616
     36 H6         -2.8939    2.2350    4.0195 H         1 <0>         0.0747
     37 H7         -1.8638    3.4485    3.2231 H         1 <0>         0.0717
     38 H8         -0.3669    3.4751    5.1998 H         1 <0>         0.0938
     39 H9         -1.3971    2.2615    5.9962 H         1 <0>         0.0985
     40 H10         2.7746    0.5624    1.6307 H         1 <0>         0.1258
     41 H11         2.9870   -1.8632    1.2803 H         1 <0>         0.1358
     42 H12         1.4876   -3.4186    2.4564 H         1 <0>         0.1419
     43 H13        -0.2334   -2.5732    3.9869 H         1 <0>         0.1384
     44 H14         2.5311    1.9750    5.2260 H         1 <0>         0.1552
     45 H15         2.4616    5.4243    2.6731 H         1 <0>         0.1598
     46 H16         4.2961    7.0095    6.8838 H         1 <0>         0.0851
     47 H17         4.3279    5.5772    7.9401 H         1 <0>         0.1097
     48 H18         5.8148    7.2875    8.8658 H         1 <0>         0.1566
     49 H19         6.7945    5.9295    8.2624 H         1 <0>         0.1467
     50 H20         6.5703    9.4791    6.0597 H         1 <0>         0.1322
     51 H21         5.0854    8.5497    6.3753 H         1 <0>         0.1222
     52 H22         6.7760   10.0446    8.4280 H         1 <0>         0.0855
     53 H23         5.1406   10.4781    7.8749 H         1 <0>         0.1082
     54 H24         5.3932    8.9994    8.8329 H         1 <0>         0.0802
     55 H25         8.0090    8.7572    8.4556 H         1 <0>         0.1366
     56 H26         8.6530    7.1510    8.0390 H         1 <0>         0.1317
     57 H27        10.0246    8.8607    6.9545 H         1 <0>         0.1088
     58 H28         9.0959    7.9908    5.7099 H         1 <0>         0.0802
     59 H29         8.5791    9.6109    6.2359 H         1 <0>         0.0800
     60 N1          6.8605    7.6515    7.0557 N.4       1 <0>        -0.3989
     61 H30         7.0320    7.1595    6.1709 H         1 <0>         0.4328
@<TRIPOS>BOND
     1    1    2 1
     2    1   31 1
     3    1   32 1
     4    1   33 1
     5    2    3 1
     6    2   34 1
     7    2   35 1
     8    3    4 1
     9    3   36 1
    10    3   37 1
    11    4    5 1
    12    4   38 1
    13    4   39 1
    14    5   13 1
    15    5    6 2
    16    6    7 1
    17    6   14 1
    18    7   12 ar
    19    7    8 ar
    20    8    9 ar
    21    8   40 1
    22    9   10 ar
    23    9   41 1
    24   10   11 ar
    25   10   42 1
    26   11   12 ar
    27   11   43 1
    28   12   13 1
    29   14   15 2
    30   14   16 1
    31   16   21 ar
    32   16   17 ar
    33   17   18 ar
    34   17   44 1
    35   18   19 ar
    36   18   30 1
    37   19   20 ar
    38   19   23 1
    39   20   21 ar
    40   20   22 1
    41   21   45 1
    42   23   24 1
    43   24   25 1
    44   24   46 1
    45   24   47 1
    46   25   48 1
    47   25   49 1
    48   25   60 1
    49   26   27 1
    50   26   50 1
    51   26   51 1
    52   26   60 1
    53   27   52 1
    54   27   53 1
    55   27   54 1
    56   28   29 1
    57   28   55 1
    58   28   56 1
    59   28   60 1
    60   29   57 1
    61   29   58 1
    62   29   59 1
    63   60   61 1
@<TRIPOS>MOLECULE
ZINC34016620
   69    69     0     0     0
SMALL
USER_CHARGES

@<TRIPOS>ATOM
      1 C1          0.7698    0.2642   -0.5103 C.3       1 <0>        -0.1738
      2 C2         -0.2700    0.4153    0.6018 C.3       1 <0>        -0.1091
      3 C3         -0.7259    1.8737    0.6790 C.3       1 <0>        -0.1527
      4 C4         -1.4734   -0.4800    0.2999 C.3       1 <0>         0.0325
      5 H1         -2.2168   -0.3678    1.0891 H         1 <0>         0.1498
      6 C5         -2.0879   -0.0734   -1.0410 C.3       1 <0>         0.0278
      7 N1         -3.1673   -1.0073   -1.3883 N.3       1 <0>        -0.6639
      8 C6         -3.8768   -0.5660   -2.5965 C.3       1 <0>         0.0876
      9 H2         -3.5978    0.4623   -2.8265 H         1 <0>         0.0997
     10 C7         -3.4979   -1.4718   -3.7699 C.3       1 <0>        -0.1092
     11 C8         -2.0277   -1.3228   -4.0653 C.ar      1 <0>        -0.0795
     12 C9         -1.5843   -0.2816   -4.8592 C.ar      1 <0>        -0.1128
     13 C10        -0.2357   -0.1449   -5.1301 C.ar      1 <0>        -0.1086
     14 C11         0.6696   -1.0490   -4.6068 C.ar      1 <0>        -0.1224
     15 C12         0.2263   -2.0897   -3.8121 C.ar      1 <0>        -0.1173
     16 C13        -1.1219   -2.2239   -3.5377 C.ar      1 <0>        -0.1383
     17 C14        -5.3635   -0.6427   -2.3623 C.2       1 <0>         0.5105
     18 O1         -5.7900   -1.0272   -1.2940 O.2       1 <0>        -0.5216
     19 N2         -6.2191   -0.2841   -3.3399 N.am      1 <0>        -0.6936
     20 C15        -7.6644   -0.3588   -3.1122 C.3       1 <0>         0.0848
     21 H3         -7.8822   -0.1064   -2.0744 H         1 <0>         0.0846
     22 C16        -8.3782    0.6286   -4.0378 C.3       1 <0>        -0.0962
     23 C17        -7.9824    2.0578   -3.6615 C.3       1 <0>        -0.0743
     24 S1         -8.8286    3.2284   -4.7588 S.3       1 <0>        -0.2686
     25 C18        -8.2601    4.8539   -4.1887 C.3       1 <0>        -0.1213
     26 C19        -8.1469   -1.7569   -3.4011 C.2       1 <0>         0.4930
     27 O2         -9.1092   -2.2057   -2.8019 O.co2     1 <0>        -0.6866
     28 O3         -7.5750   -2.4392   -4.2341 O.co2     1 <0>        -0.6884
     29 N3         -1.0371   -1.8811    0.2338 N.4       1 <0>        -0.5023
     30 C20        -0.5620   -2.3090    1.5564 C.3       1 <0>        -0.0016
     31 C21        -0.1036   -3.7670    1.4865 C.3       1 <0>         0.0806
     32 H4         -0.9584   -4.4065    1.2664 H         1 <0>         0.1221
     33 C22         0.5061   -4.1748    2.8292 C.3       1 <0>        -0.1162
     34 S2          1.0496   -5.9035    2.7464 S.3       1 <0>        -0.2256
     35 N4          0.9033   -3.9135    0.4269 N.3       1 <0>        -0.8518
     36 H5          1.6272    0.9020   -0.2952 H         1 <0>         0.0824
     37 H6          1.0947   -0.7749   -0.5653 H         1 <0>         0.0538
     38 H7          0.3285    0.5578   -1.4627 H         1 <0>         0.0772
     39 H8          0.1714    0.1217    1.5543 H         1 <0>         0.0938
     40 H9         -1.0714    2.1988   -0.3023 H         1 <0>         0.0693
     41 H10        -1.5399    1.9623    1.3986 H         1 <0>         0.0698
     42 H11         0.1088    2.4990    0.9959 H         1 <0>         0.0750
     43 H12        -2.4915    0.9362   -0.9644 H         1 <0>         0.1197
     44 H13        -1.3210   -0.1003   -1.8151 H         1 <0>         0.0673
     45 H14        -2.8122   -1.9451   -1.4997 H         1 <0>         0.3324
     46 H15        -3.7135   -2.5089   -3.5127 H         1 <0>         0.0919
     47 H16        -4.0758   -1.1879   -4.6494 H         1 <0>         0.1006
     48 H17        -2.2916    0.4248   -5.2680 H         1 <0>         0.1263
     49 H18         0.1106    0.6681   -5.7509 H         1 <0>         0.1247
     50 H19         1.7232   -0.9426   -4.8190 H         1 <0>         0.1225
     51 H20         0.9335   -2.7963   -3.4035 H         1 <0>         0.1243
     52 H21        -1.4679   -3.0348   -2.9138 H         1 <0>         0.1172
     53 H22        -5.8780    0.0233   -4.1943 H         1 <0>         0.3905
     54 H23        -8.0901    0.4317   -5.0704 H         1 <0>         0.0763
     55 H24        -9.4566    0.5106   -3.9326 H         1 <0>         0.0888
     56 H25        -8.2704    2.2546   -2.6288 H         1 <0>         0.0788
     57 H26        -6.9039    2.1758   -3.7667 H         1 <0>         0.0746
     58 H27        -8.7206    5.6333   -4.7957 H         1 <0>         0.0998
     59 H28        -8.5423    4.9919   -3.1449 H         1 <0>         0.0738
     60 H29        -7.1758    4.9131   -4.2828 H         1 <0>         0.0716
     61 H30        -1.8122   -2.4618   -0.0492 H         1 <0>         0.4301
     62 H31         0.2734   -1.6797    1.8634 H         1 <0>         0.1318
     63 H32        -1.3716   -2.2170    2.2805 H         1 <0>         0.1423
     64 H33         1.3609   -3.5353    3.0494 H         1 <0>         0.0928
     65 H34        -0.2410   -4.0662    3.6154 H         1 <0>         0.1012
     66 H35         1.5604   -6.1428    3.9674 H         1 <0>         0.1060
     67 H36         1.7064   -3.3301    0.6081 H         1 <0>         0.3500
     68 H37         1.1750   -4.8790    0.3173 H         1 <0>         0.3774
     69 H38        -0.2885   -1.9690   -0.4371 H         1 <0>         0.4285
@<TRIPOS>BOND
     1    1    2 1
     2    1   36 1
     3    1   37 1
     4    1   38 1
     5    2    3 1
     6    2    4 1
     7    2   39 1
     8    3   40 1
     9    3   41 1
    10    3   42 1
    11    4    5 1
    12    4    6 1
    13    4   29 1
    14    6    7 1
    15    6   43 1
    16    6   44 1
    17    7    8 1
    18    7   45 1
    19    8    9 1
    20    8   10 1
    21    8   17 1
    22   10   11 1
    23   10   46 1
    24   10   47 1
    25   11   16 ar
    26   11   12 ar
    27   12   13 ar
    28   12   48 1
    29   13   14 ar
    30   13   49 1
    31   14   15 ar
    32   14   50 1
    33   15   16 ar
    34   15   51 1
    35   16   52 1
    36   17   18 2
    37   17   19 am
    38   19   20 1
    39   19   53 1
    40   20   21 1
    41   20   22 1
    42   20   26 1
    43   22   23 1
    44   22   54 1
    45   22   55 1
    46   23   24 1
    47   23   56 1
    48   23   57 1
    49   24   25 1
    50   25   58 1
    51   25   59 1
    52   25   60 1
    53   26   27 2
    54   26   28 1
    55   29   30 1
    56   29   61 1
    57   29   69 1
    58   30   31 1
    59   30   62 1
    60   30   63 1
    61   31   32 1
    62   31   33 1
    63   31   35 1
    64   33   34 1
    65   33   64 1
    66   33   65 1
    67   34   66 1
    68   35   67 1
    69   35   68 1
@<TRIPOS>MOLECULE
ZINC34016620
   70    70     0     0     0
SMALL
USER_CHARGES

@<TRIPOS>ATOM
      1 C1          0.5778    0.4603   -0.2664 C.3       1 <0>        -0.1746
      2 C2         -0.5487    0.4832    0.7686 C.3       1 <0>        -0.1113
      3 C3         -1.1258    1.8971    0.8631 C.3       1 <0>        -0.1575
      4 C4         -1.6505   -0.4901    0.3448 C.3       1 <0>         0.0336
      5 H1         -2.4586   -0.4649    1.0759 H         1 <0>         0.1664
      6 C5         -2.1912   -0.0823   -1.0272 C.3       1 <0>         0.0219
      7 N1         -3.1633   -1.0829   -1.4876 N.3       1 <0>        -0.6603
      8 C6         -3.8148   -0.6506   -2.7312 C.3       1 <0>         0.0866
      9 H2         -3.5868    0.3993   -2.9148 H         1 <0>         0.1029
     10 C7         -3.2992   -1.4960   -3.8975 C.3       1 <0>        -0.1117
     11 C8         -1.8216   -1.2592   -4.0750 C.ar      1 <0>        -0.0738
     12 C9         -1.3785   -0.1669   -4.7970 C.ar      1 <0>        -0.1052
     13 C10        -0.0230    0.0504   -4.9598 C.ar      1 <0>        -0.0999
     14 C11         0.8893   -0.8245   -4.4002 C.ar      1 <0>        -0.1182
     15 C12         0.4462   -1.9163   -3.6774 C.ar      1 <0>        -0.1338
     16 C13        -0.9092   -2.1312   -3.5110 C.ar      1 <0>        -0.1542
     17 C14        -5.3061   -0.8261   -2.6042 C.2       1 <0>         0.5089
     18 O1         -5.7796   -1.2678   -1.5787 O.2       1 <0>        -0.5240
     19 N2         -6.1137   -0.4923   -3.6303 N.am      1 <0>        -0.6887
     20 C15        -7.5635   -0.6629   -3.5069 C.3       1 <0>         0.0843
     21 H3         -7.8677   -0.4554   -2.4809 H         1 <0>         0.0859
     22 C16        -8.2735    0.3055   -4.4551 C.3       1 <0>        -0.0980
     23 C17        -7.9965    1.7446   -4.0157 C.3       1 <0>        -0.0757
     24 S1         -8.8383    2.8927   -5.1399 S.3       1 <0>        -0.2638
     25 C18        -8.4151    4.5326   -4.4902 C.3       1 <0>        -0.1218
     26 C19        -7.9349   -2.0789   -3.8644 C.2       1 <0>         0.4928
     27 O2         -8.9055   -2.6040   -3.3460 O.co2     1 <0>        -0.6822
     28 O3         -7.2648   -2.6995   -4.6721 O.co2     1 <0>        -0.6900
     29 N3         -1.1003   -1.8501    0.2698 N.4       1 <0>        -0.5272
     30 C20        -0.6894   -2.2867    1.6109 C.3       1 <0>        -0.0343
     31 C21        -0.2229   -3.7427    1.5526 C.3       1 <0>         0.0288
     32 H4         -1.0636   -4.3831    1.2858 H         1 <0>         0.1862
     33 C22         0.3213   -4.1590    2.9205 C.3       1 <0>        -0.1231
     34 S2          0.8744   -5.8853    2.8514 S.3       1 <0>        -0.2257
     35 N4          0.8354   -3.8777    0.5428 N.4       1 <0>        -0.6499
     36 H5          1.3628    1.1537    0.0355 H         1 <0>         0.0930
     37 H6          0.9889   -0.5469   -0.3338 H         1 <0>         0.0353
     38 H7          0.1843    0.7578   -1.2384 H         1 <0>         0.0853
     39 H8         -0.1552    0.1857    1.7406 H         1 <0>         0.0969
     40 H9         -1.4251    2.2344   -0.1292 H         1 <0>         0.0740
     41 H10        -1.9939    1.8919    1.5223 H         1 <0>         0.0758
     42 H11        -0.3695    2.5722    1.2636 H         1 <0>         0.0824
     43 H12        -2.6786    0.8897   -0.9514 H         1 <0>         0.1315
     44 H13        -1.3678   -0.0214   -1.7388 H         1 <0>         0.0706
     45 H14        -2.7264   -1.9851   -1.6029 H         1 <0>         0.3234
     46 H15        -3.4755   -2.5510   -3.6874 H         1 <0>         0.0936
     47 H16        -3.8245   -1.2147   -4.8103 H         1 <0>         0.1065
     48 H17        -2.0912    0.5166   -5.2343 H         1 <0>         0.1323
     49 H18         0.3231    0.9034   -5.5245 H         1 <0>         0.1310
     50 H19         1.9482   -0.6552   -4.5280 H         1 <0>         0.1264
     51 H20         1.1589   -2.6000   -3.2404 H         1 <0>         0.1160
     52 H21        -1.2554   -2.9822   -2.9432 H         1 <0>         0.1117
     53 H22        -5.7350   -0.1390   -4.4505 H         1 <0>         0.3914
     54 H23        -7.9033    0.1576   -5.4696 H         1 <0>         0.0772
     55 H24        -9.3470    0.1179   -4.4291 H         1 <0>         0.0913
     56 H25        -8.3667    1.8925   -3.0012 H         1 <0>         0.0786
     57 H26        -6.9231    1.9322   -4.0417 H         1 <0>         0.0722
     58 H27        -8.7765    4.6219   -3.4657 H         1 <0>         0.0743
     59 H28        -7.3329    4.6616   -4.5062 H         1 <0>         0.0710
     60 H29        -8.8816    5.2998   -5.1082 H         1 <0>         0.1017
     61 H30        -1.8042   -2.4785   -0.0875 H         1 <0>         0.4405
     62 H31         0.1276   -1.6572    1.9635 H         1 <0>         0.1652
     63 H32        -1.5339   -2.2029    2.2949 H         1 <0>         0.1907
     64 H33         1.1620   -3.5185    3.1874 H         1 <0>         0.1237
     65 H34        -0.4639   -4.0588    3.6698 H         1 <0>         0.1488
     66 H35         1.3253   -6.1325    4.0942 H         1 <0>         0.1522
     67 H36         0.4764   -3.6032   -0.3594 H         1 <0>         0.4268
     68 H37         1.6136   -3.2849    0.7897 H         1 <0>         0.4442
     69 H38        -0.3006   -1.8559   -0.3455 H         1 <0>         0.4079
     70 H39         1.1430   -4.8379    0.5043 H         1 <0>         0.4632
@<TRIPOS>BOND
     1    1    2 1
     2    1   36 1
     3    1   37 1
     4    1   38 1
     5    2    3 1
     6    2    4 1
     7    2   39 1
     8    3   40 1
     9    3   41 1
    10    3   42 1
    11    4    5 1
    12    4    6 1
    13    4   29 1
    14    6    7 1
    15    6   43 1
    16    6   44 1
    17    7    8 1
    18    7   45 1
    19    8    9 1
    20    8   10 1
    21    8   17 1
    22   10   11 1
    23   10   46 1
    24   10   47 1
    25   11   16 ar
    26   11   12 ar
    27   12   13 ar
    28   12   48 1
    29   13   14 ar
    30   13   49 1
    31   14   15 ar
    32   14   50 1
    33   15   16 ar
    34   15   51 1
    35   16   52 1
    36   17   18 2
    37   17   19 am
    38   19   20 1
    39   19   53 1
    40   20   21 1
    41   20   22 1
    42   20   26 1
    43   22   23 1
    44   22   54 1
    45   22   55 1
    46   23   24 1
    47   23   56 1
    48   23   57 1
    49   24   25 1
    50   25   58 1
    51   25   59 1
    52   25   60 1
    53   26   27 2
    54   26   28 1
    55   29   30 1
    56   29   61 1
    57   29   69 1
    58   30   31 1
    59   30   62 1
    60   30   63 1
    61   31   32 1
    62   31   33 1
    63   31   35 1
    64   33   34 1
    65   33   64 1
    66   33   65 1
    67   34   66 1
    68   35   67 1
    69   35   68 1
    70   35   70 1
