@<TRIPOS>MOLECULE
ZINC00390111
   33    35     0     0     0
SMALL
USER_CHARGES

@<TRIPOS>ATOM
      1 C1         -0.0164    1.3567    0.0095 C.ar      1 <0>        -0.1150
      2 C2          1.1685    2.0906    0.0021 C.ar      1 <0>        -0.1103
      3 C3          2.3785    1.4679   -0.0132 C.ar      1 <0>        -0.1066
      4 C4          2.4378    0.0637   -0.0214 C.ar      1 <0>        -0.0348
      5 C5          1.2328   -0.6827   -0.0134 C.ar      1 <0>        -0.0531
      6 C6          0.0021   -0.0041    0.0020 C.ar      1 <0>        -0.1060
      7 C7          1.2920   -2.0865   -0.0210 C.ar      1 <0>        -0.0956
      8 C8          2.5022   -2.7094   -0.0359 C.ar      1 <0>        -0.1170
      9 C9          3.6867   -1.9757   -0.0433 C.ar      1 <0>        -0.0886
     10 C10         3.6681   -0.6146   -0.0367 C.ar      1 <0>        -0.0675
     11 C11         4.9603    0.1606   -0.0459 C.3       1 <0>        -0.0745
     12 S1          5.4958    0.4637    1.6606 S.3       1 <0>         0.0466
     13 C12         6.9982    1.3667    1.4819 C.2       1 <0>         0.0339
     14 N1          7.6144    1.7549    0.3819 N.2       1 <0>        -0.2970
     15 N2          8.7925    2.4600    0.4699 N.2       1 <0>        -0.3210
     16 C13         9.3002    2.7445    1.6538 C.2       1 <0>         0.0637
     17 S2          8.0899    2.0082    2.7418 S.3       1 <0>         0.0293
     18 S3         10.7747    3.6220    2.0546 S.3       1 <0>         0.1190
     19 C14        11.4722    4.0685    0.4407 C.3       1 <0>        -0.1797
     20 C15        12.7544    4.8342    0.6421 C.2       1 <0>         0.5164
     21 O1         13.1601    5.0579    1.7699 O.co2     1 <0>        -0.6729
     22 O2         13.3861    5.2299   -0.3227 O.co2     1 <0>        -0.6705
     23 H1         -0.9634    1.8756    0.0259 H         1 <0>         0.1237
     24 H2          1.1258    3.1698    0.0084 H         1 <0>         0.1250
     25 H3          3.2883    2.0497   -0.0195 H         1 <0>         0.1291
     26 H4         -0.9241   -0.5595    0.0082 H         1 <0>         0.1276
     27 H5          0.3820   -2.6682   -0.0147 H         1 <0>         0.1291
     28 H6          2.5450   -3.7886   -0.0417 H         1 <0>         0.1278
     29 H7          4.6338   -2.4947   -0.0548 H         1 <0>         0.1295
     30 H8          5.7246   -0.4132   -0.5701 H         1 <0>         0.1094
     31 H9          4.8090    1.1131   -0.5538 H         1 <0>         0.1081
     32 H10        11.6758    3.1626   -0.1303 H         1 <0>         0.0959
     33 H11        10.7602    4.6888   -0.1037 H         1 <0>         0.0959
@<TRIPOS>BOND
     1    1    6 ar
     2    1    2 ar
     3    1   23 1
     4    2    3 ar
     5    2   24 1
     6    3    4 ar
     7    3   25 1
     8    4   10 ar
     9    4    5 ar
    10    5    6 ar
    11    5    7 ar
    12    6   26 1
    13    7    8 ar
    14    7   27 1
    15    8    9 ar
    16    8   28 1
    17    9   10 ar
    18    9   29 1
    19   10   11 1
    20   11   12 1
    21   11   30 1
    22   11   31 1
    23   12   13 1
    24   13   17 1
    25   13   14 2
    26   14   15 1
    27   15   16 2
    28   16   17 1
    29   16   18 1
    30   18   19 1
    31   19   20 1
    32   19   32 1
    33   19   33 1
    34   20   21 2
    35   20   22 1
@<TRIPOS>MOLECULE
ZINC01870851
   35    36     0     0     0
SMALL
USER_CHARGES
6-[4-oxo-5-(2-thienylmethylene)-2-thioxo-thiazolidin-3-yl]hexanoic acid
@<TRIPOS>ATOM
      1 C1          4.4329    5.1048    6.9866 C.2       1 <0>        -0.1903
      2 C2          3.9325    4.0247    7.6704 C.2       1 <0>        -0.0841
      3 C3          3.2604    3.0623    6.9246 C.2       1 <0>        -0.2344
      4 S1          3.3560    3.7428    5.2782 S.3       1 <0>         0.2651
      5 C4          4.2421    5.1872    5.6438 C.2       1 <0>        -0.2087
      6 C5          2.6540    1.8608    7.3589 C.2       1 <0>         0.1556
      7 C6          1.5307    1.4009    6.7378 C.2       1 <0>        -0.2661
      8 C7          0.7132    2.0341    5.7530 C.2       1 <0>         0.5338
      9 O1          0.9758    3.1507    5.3435 O.2       1 <0>        -0.4485
     10 N1         -0.3371    1.3723    5.2994 N.am      1 <0>        -0.5181
     11 C8         -0.6312    0.1355    5.7581 C.2       1 <0>         0.2828
     12 S2         -1.9306   -0.8898    5.3210 S.2       1 <0>        -0.3268
     13 S3          0.6805   -0.1592    6.9344 S.3       1 <0>         0.0570
     14 C9         -1.1986    1.9909    4.2888 C.3       1 <0>         0.0840
     15 C10        -0.6858    1.6323    2.8927 C.3       1 <0>        -0.1288
     16 C11        -1.5855    2.2784    1.8373 C.3       1 <0>        -0.1126
     17 C12        -1.0727    1.9197    0.4411 C.3       1 <0>        -0.0964
     18 C13        -1.9725    2.5658   -0.6143 C.3       1 <0>        -0.1575
     19 C14        -1.4674    2.2125   -1.9894 C.2       1 <0>         0.4573
     20 O2         -0.4882    1.5155   -2.1127 O.co2     1 <0>        -0.6424
     21 H1          4.9677    5.8829    7.5109 H         1 <0>         0.1347
     22 H2          4.0581    3.9250    8.7384 H         1 <0>         0.1421
     23 H3          4.5644    5.9651    4.9675 H         1 <0>         0.1875
     24 H4          3.0807    1.3076    8.1824 H         1 <0>         0.1661
     25 H5         -1.1854    3.0737    4.4137 H         1 <0>         0.1045
     26 H6         -2.2182    1.6240    4.4067 H         1 <0>         0.1113
     27 H7         -0.6990    0.5495    2.7678 H         1 <0>         0.0730
     28 H8          0.3338    1.9992    2.7748 H         1 <0>         0.0676
     29 H9         -1.5723    3.3611    1.9621 H         1 <0>         0.0611
     30 H10        -2.6051    1.9115    1.9552 H         1 <0>         0.0649
     31 H11        -1.0859    0.8370    0.3163 H         1 <0>         0.0612
     32 H12        -0.0531    2.2866    0.3232 H         1 <0>         0.0590
     33 H13        -2.9921    2.1989   -0.4964 H         1 <0>         0.0632
     34 H14        -1.9592    3.6486   -0.4894 H         1 <0>         0.0618
     35 O3         -2.1052    2.6722   -3.0773 O.co2     1 <0>        -0.7790
@<TRIPOS>BOND
     1    1    5 2
     2    1    2 1
     3    1   21 1
     4    2    3 2
     5    2   22 1
     6    3    4 1
     7    3    6 1
     8    4    5 1
     9    5   23 1
    10    6    7 2
    11    6   24 1
    12    7   13 1
    13    7    8 1
    14    8    9 2
    15    8   10 am
    16   10   11 1
    17   10   14 1
    18   11   12 2
    19   11   13 1
    20   14   15 1
    21   14   25 1
    22   14   26 1
    23   15   16 1
    24   15   27 1
    25   15   28 1
    26   16   17 1
    27   16   29 1
    28   16   30 1
    29   17   18 1
    30   17   31 1
    31   17   32 1
    32   18   19 1
    33   18   33 1
    34   18   34 1
    35   19   20 2
    36   19   35 1
