@<TRIPOS>MOLECULE
ZINC03814434
   62    69     0     0     0
SMALL
USER_CHARGES

@<TRIPOS>ATOM
      1 C1         -0.1295    1.5952   -0.2973 C.3       1 <0>        -0.1687
      2 C2         -0.0862    0.0696   -0.1900 C.3       1 <0>         0.3342
      3 C3          0.5692   -0.4501   -1.4637 C.3       1 <0>         0.0405
      4 H1          1.4796    0.1159   -1.6612 H         1 <0>         0.1372
      5 C4          0.9167   -1.9328   -1.2889 C.3       1 <0>        -0.0061
      6 H2          1.3963   -2.3075   -2.1932 H         1 <0>         0.1555
      7 C5          1.8785   -2.0596   -0.1021 C.3       1 <0>        -0.1827
      8 C6          1.2061   -1.5198    1.1541 C.3       1 <0>         0.2999
      9 H3          1.9797   -1.4243    1.9161 H         1 <0>         0.1550
     10 O1          0.6555   -0.2442    0.9666 O.3       1 <0>        -0.3234
     11 N1          0.2189   -2.4746    1.6600 N.pl3     1 <0>        -0.5366
     12 C7          0.4705   -3.5508    2.4739 C.ar      1 <0>         0.1469
     13 C8          1.6649   -4.0152    3.0240 C.ar      1 <0>        -0.1522
     14 C9          1.5948   -5.1456    3.8201 C.ar      1 <0>        -0.0582
     15 C10         0.4006   -5.7997    4.0696 C.ar      1 <0>        -0.1457
     16 C11        -0.7984   -5.3597    3.5358 C.ar      1 <0>        -0.0280
     17 C12        -0.7487   -4.2198    2.7307 C.ar      1 <0>        -0.1131
     18 C13        -1.7893   -3.4830    2.0197 C.ar      1 <0>         0.0276
     19 C14        -1.1442   -2.4197    1.3841 C.ar      1 <0>         0.0376
     20 C15        -1.8806   -1.5095    0.6175 C.ar      1 <0>         0.0894
     21 N2         -1.4718   -0.3951   -0.1095 N.pl3     1 <0>        -0.5183
     22 C16        -2.5611    0.1913   -0.7090 C.ar      1 <0>         0.1618
     23 C17        -2.6521    1.3277   -1.5118 C.ar      1 <0>        -0.1305
     24 C18        -3.9109    1.6745   -1.9733 C.ar      1 <0>        -0.0737
     25 C19        -5.0393    0.9368   -1.6616 C.ar      1 <0>        -0.1358
     26 C20        -4.9745   -0.1955   -0.8662 C.ar      1 <0>        -0.0503
     27 C21        -3.7147   -0.5596   -0.3919 C.ar      1 <0>        -0.1042
     28 C22        -3.2693   -1.6660    0.4845 C.ar      1 <0>        -0.0360
     29 C23        -3.9084   -2.7313    1.1102 C.ar      1 <0>        -0.0288
     30 C24        -3.1873   -3.6421    1.8754 C.ar      1 <0>        -0.1255
     31 C25        -4.1221   -4.6480    2.4030 C.2       1 <0>         0.5632
     32 O2         -3.8062   -5.5851    3.1110 O.2       1 <0>        -0.5106
     33 N3         -5.3744   -4.3851    1.9926 N.am      1 <0>        -0.7162
     34 C26        -5.3495   -3.1771    1.1601 C.3       1 <0>         0.1358
     35 N4         -0.3067   -2.7008   -1.0216 N.4       1 <0>        -0.5252
     36 C27         0.0145   -4.1336   -0.9773 C.3       1 <0>        -0.0497
     37 O3         -0.3340   -0.2979   -2.5607 O.3       1 <0>        -0.3614
     38 C28         0.3101   -0.0933   -3.8198 C.3       1 <0>         0.0162
     39 H4          0.8261    2.0094    0.0240 H         1 <0>         0.0984
     40 H5         -0.3202    1.8814   -1.3317 H         1 <0>         0.1036
     41 H6         -0.9255    1.9818    0.3392 H         1 <0>         0.0921
     42 H7          2.1370   -3.1081    0.0458 H         1 <0>         0.1233
     43 H8          2.7835   -1.4869   -0.3048 H         1 <0>         0.1455
     44 H9          2.6036   -3.5149    2.8368 H         1 <0>         0.1365
     45 H10         2.5026   -5.5304    4.2610 H         1 <0>         0.1359
     46 H11         0.4045   -6.6780    4.6980 H         1 <0>         0.1352
     47 H12        -1.7278   -5.8736    3.7323 H         1 <0>         0.1600
     48 H13        -1.7792    1.9122   -1.7624 H         1 <0>         0.1440
     49 H14        -4.0153    2.5500   -2.5970 H         1 <0>         0.1336
     50 H15        -5.9967    1.2527   -2.0488 H         1 <0>         0.1332
     51 H16        -5.8575   -0.7687   -0.6249 H         1 <0>         0.1415
     52 H17        -6.1628   -4.9065    2.2103 H         1 <0>         0.4348
     53 H18        -5.9671   -2.3994    1.6094 H         1 <0>         0.1115
     54 H19        -5.7060   -3.4063    0.1559 H         1 <0>         0.1103
     55 H20        -0.6958   -2.4158   -0.1353 H         1 <0>         0.4186
     56 H21         0.4349   -4.4415   -1.9347 H         1 <0>         0.1256
     57 H22         0.7403   -4.3189   -0.1854 H         1 <0>         0.1191
     58 H23        -0.8932   -4.7035   -0.7789 H         1 <0>         0.1256
     59 H24         0.9168    0.8112   -3.7748 H         1 <0>         0.0633
     60 H25         0.9482   -0.9479   -4.0446 H         1 <0>         0.0514
     61 H26        -0.4433    0.0130   -4.6003 H         1 <0>         0.1100
     62 H27        -0.9785   -2.5293   -1.7546 H         1 <0>         0.4274
@<TRIPOS>BOND
     1    1    2 1
     2    1   39 1
     3    1   40 1
     4    1   41 1
     5    2   10 1
     6    2   21 1
     7    2    3 1
     8    3    4 1
     9    3    5 1
    10    3   37 1
    11    5    6 1
    12    5    7 1
    13    5   35 1
    14    7    8 1
    15    7   42 1
    16    7   43 1
    17    8    9 1
    18    8   10 1
    19    8   11 1
    20   11   19 1
    21   11   12 1
    22   12   17 ar
    23   12   13 ar
    24   13   14 ar
    25   13   44 1
    26   14   15 ar
    27   14   45 1
    28   15   16 ar
    29   15   46 1
    30   16   17 ar
    31   16   47 1
    32   17   18 1
    33   18   30 ar
    34   18   19 ar
    35   19   20 ar
    36   20   28 ar
    37   20   21 1
    38   21   22 1
    39   22   27 ar
    40   22   23 ar
    41   23   24 ar
    42   23   48 1
    43   24   25 ar
    44   24   49 1
    45   25   26 ar
    46   25   50 1
    47   26   27 ar
    48   26   51 1
    49   27   28 1
    50   28   29 ar
    51   29   34 1
    52   29   30 ar
    53   30   31 1
    54   31   32 2
    55   31   33 am
    56   33   34 1
    57   33   52 1
    58   34   53 1
    59   34   54 1
    60   35   36 1
    61   35   55 1
    62   35   62 1
    63   36   56 1
    64   36   57 1
    65   36   58 1
    66   37   38 1
    67   38   59 1
    68   38   60 1
    69   38   61 1
@<TRIPOS>MOLECULE
ZINC72105034
   70    73     0     0     0
SMALL
USER_CHARGES

@<TRIPOS>ATOM
      1 C1         -3.0465   -3.1127   14.8741 C.3       1 <0>        -0.1892
      2 C2         -3.2466   -2.2549   13.6230 C.3       1 <0>        -0.0108
      3 N1         -4.1264   -2.9600   12.6814 N.4       1 <0>        -0.3829
      4 C3         -3.4647   -4.1874   12.2214 C.3       1 <0>        -0.0274
      5 C4         -4.4254   -4.9810   11.3297 C.3       1 <0>         0.1010
      6 N2         -4.8919   -4.1005   10.2474 N.pl3     1 <0>        -0.6456
      7 C5         -5.4217   -2.7770   10.6103 C.3       1 <0>         0.1015
      8 C6         -4.4140   -2.0875   11.5359 C.3       1 <0>        -0.0220
      9 C7         -4.8337   -4.5106    8.9106 C.ar      1 <0>         0.1766
     10 C8         -4.2262   -5.7148    8.5795 C.ar      1 <0>        -0.1629
     11 C9         -4.1692   -6.1195    7.2606 C.ar      1 <0>        -0.0646
     12 C10        -4.7193   -5.3226    6.2653 C.ar      1 <0>         0.1310
     13 C11        -5.3268   -4.1185    6.5964 C.ar      1 <0>        -0.1041
     14 C12        -5.3885   -3.7162    7.9158 C.ar      1 <0>        -0.1629
     15 N3         -4.6611   -5.7330    4.9274 N.pl3     1 <0>        -0.6533
     16 C13        -4.7431   -7.0808    4.6114 C.ar      1 <0>         0.4484
     17 C14        -4.5642   -7.5111    3.2990 C.ar      1 <0>        -0.3232
     18 C15        -4.6563   -8.8727    3.0342 C.ar      1 <0>         0.4562
     19 N4         -4.9104   -9.7105    4.0371 N.ar      1 <0>        -0.5358
     20 C16        -5.0737   -9.2649    5.2660 C.ar      1 <0>         0.3663
     21 N5         -4.9887   -7.9832    5.5591 N.ar      1 <0>        -0.5884
     22 N6         -4.4859   -9.3527    1.7400 N.am      1 <0>        -0.5513
     23 C17        -4.0993   -8.4367    0.6640 C.3       1 <0>         0.0633
     24 C18        -4.6764  -10.6605    1.4758 C.2       1 <0>         0.6965
     25 O1         -4.9972  -11.4206    2.3688 O.2       1 <0>        -0.4771
     26 N7         -4.5113  -11.1256    0.2217 N.am      1 <0>        -0.6806
     27 C19        -4.5933  -12.5005   -0.0317 C.ar      1 <0>         0.2488
     28 C20        -3.5635  -13.1459   -0.7035 C.ar      1 <0>        -0.1156
     29 C21        -3.6457  -14.5077   -0.9540 C.ar      1 <0>         0.1985
     30 C22        -4.7561  -15.2246   -0.5342 C.ar      1 <0>        -0.2856
     31 C23        -5.7851  -14.5810    0.1368 C.ar      1 <0>         0.1981
     32 C24        -5.7020  -13.2205    0.3937 C.ar      1 <0>        -0.0913
     33 Cl1        -6.9867  -12.4166    1.2405 Cl        1 <0>        -0.0174
     34 O2         -6.8731  -15.2849    0.5478 O.3       1 <0>        -0.2934
     35 C25        -6.8895  -16.6834    0.2548 C.3       1 <0>         0.0217
     36 O3         -2.6377  -15.1397   -1.6116 O.3       1 <0>        -0.2949
     37 C26        -2.7887  -16.5430   -1.8355 C.3       1 <0>         0.0219
     38 Cl2        -2.1738  -12.2486   -1.2302 Cl        1 <0>        -0.0383
     39 H1         -2.3937   -2.5895   15.5727 H         1 <0>         0.1068
     40 H2         -4.0114   -3.2967   15.3466 H         1 <0>         0.0809
     41 H3         -2.5919   -4.0630   14.5941 H         1 <0>         0.0805
     42 H4         -3.7012   -1.3046   13.9030 H         1 <0>         0.1310
     43 H5         -2.2817   -2.0709   13.1505 H         1 <0>         0.1281
     44 H6         -2.5717   -3.9277   11.6528 H         1 <0>         0.1321
     45 H7         -3.1838   -4.7935   13.0827 H         1 <0>         0.1410
     46 H8         -3.9058   -5.8399   10.9049 H         1 <0>         0.1268
     47 H9         -5.2773   -5.3195   11.9194 H         1 <0>         0.0863
     48 H10        -5.5608   -2.1788    9.7098 H         1 <0>         0.1256
     49 H11        -6.3742   -2.8930   11.1273 H         1 <0>         0.0858
     50 H12        -4.8326   -1.1462   11.8921 H         1 <0>         0.1394
     51 H13        -3.4923   -1.8913   10.9881 H         1 <0>         0.1318
     52 H14        -3.7980   -6.3344    9.3535 H         1 <0>         0.1245
     53 H15        -3.6964   -7.0558    7.0031 H         1 <0>         0.1406
     54 H16        -5.7546   -3.4987    5.8223 H         1 <0>         0.1287
     55 H17        -5.8648   -2.7819    8.1738 H         1 <0>         0.1249
     56 H18        -4.5634   -5.0745    4.2219 H         1 <0>         0.4207
     57 H19        -4.3595   -6.8053    2.5076 H         1 <0>         0.1461
     58 H20        -5.2787   -9.9712    6.0569 H         1 <0>         0.2006
     59 H21        -3.0123   -8.3941    0.5961 H         1 <0>         0.0784
     60 H22        -4.5087   -8.7932   -0.2812 H         1 <0>         0.0834
     61 H23        -4.4893   -7.4413    0.8765 H         1 <0>         0.0916
     62 H24        -4.3356  -10.5081   -0.5055 H         1 <0>         0.4126
     63 H25        -4.8197  -16.2847   -0.7302 H         1 <0>         0.1546
     64 H26        -7.8108  -17.1238    0.6364 H         1 <0>         0.1096
     65 H27        -6.8368  -16.8293   -0.8241 H         1 <0>         0.0610
     66 H28        -6.0336  -17.1640    0.7287 H         1 <0>         0.0609
     67 H29        -3.6841  -16.7217   -2.4308 H         1 <0>         0.0613
     68 H30        -1.9165  -16.9218   -2.3683 H         1 <0>         0.1099
     69 H31        -2.8806  -17.0558   -0.8781 H         1 <0>         0.0610
     70 H32        -4.9899   -3.1998   13.1451 H         1 <0>         0.4221
@<TRIPOS>BOND
     1    1    2 1
     2    1   39 1
     3    1   40 1
     4    1   41 1
     5    2    3 1
     6    2   42 1
     7    2   43 1
     8    3    8 1
     9    3    4 1
    10    3   70 1
    11    4    5 1
    12    4   44 1
    13    4   45 1
    14    5    6 1
    15    5   46 1
    16    5   47 1
    17    6    7 1
    18    6    9 1
    19    7    8 1
    20    7   48 1
    21    7   49 1
    22    8   50 1
    23    8   51 1
    24    9   14 ar
    25    9   10 ar
    26   10   11 ar
    27   10   52 1
    28   11   12 ar
    29   11   53 1
    30   12   13 ar
    31   12   15 1
    32   13   14 ar
    33   13   54 1
    34   14   55 1
    35   15   16 1
    36   15   56 1
    37   16   21 ar
    38   16   17 ar
    39   17   18 ar
    40   17   57 1
    41   18   19 ar
    42   18   22 1
    43   19   20 ar
    44   20   21 ar
    45   20   58 1
    46   22   23 1
    47   22   24 am
    48   23   59 1
    49   23   60 1
    50   23   61 1
    51   24   25 2
    52   24   26 am
    53   26   27 1
    54   26   62 1
    55   27   32 ar
    56   27   28 ar
    57   28   29 ar
    58   28   38 1
    59   29   30 ar
    60   29   36 1
    61   30   31 ar
    62   30   63 1
    63   31   32 ar
    64   31   34 1
    65   32   33 1
    66   34   35 1
    67   35   64 1
    68   35   65 1
    69   35   66 1
    70   36   37 1
    71   37   67 1
    72   37   68 1
    73   37   69 1
@<TRIPOS>MOLECULE
ZINC72105034
   69    72     0     0     0
SMALL
USER_CHARGES

@<TRIPOS>ATOM
      1 C1         -3.4378   -3.9375   14.6684 C.3       1 <0>        -0.1502
      2 C2         -3.5006   -3.0159   13.4488 C.3       1 <0>         0.0503
      3 N1         -4.3406   -3.6313   12.4127 N.3       1 <0>        -0.5378
      4 C3         -3.7251   -4.8621   11.8984 C.3       1 <0>         0.0363
      5 C4         -4.7086   -5.5666   10.9578 C.3       1 <0>         0.1266
      6 N2         -5.1378   -4.6085    9.9278 N.pl3     1 <0>        -0.6321
      7 C5         -5.6391   -3.2963   10.3636 C.3       1 <0>         0.1276
      8 C6         -4.6190   -2.6811   11.3275 C.3       1 <0>         0.0396
      9 C7         -5.0714   -4.9369    8.5689 C.ar      1 <0>         0.2080
     10 C8         -4.4894   -6.1336    8.1714 C.ar      1 <0>        -0.1806
     11 C9         -4.4244   -6.4578    6.8309 C.ar      1 <0>        -0.0579
     12 C10        -4.9408   -5.5873    5.8801 C.ar      1 <0>         0.0956
     13 C11        -5.5227   -4.3907    6.2776 C.ar      1 <0>        -0.0967
     14 C12        -5.5926   -4.0689    7.6185 C.ar      1 <0>        -0.1814
     15 N3         -4.8743   -5.9160    4.5202 N.pl3     1 <0>        -0.6480
     16 C13        -4.9857   -7.2392    4.1204 C.ar      1 <0>         0.4532
     17 C14        -4.7996   -7.5924    2.7862 C.ar      1 <0>        -0.3285
     18 C15        -4.9221   -8.9324    2.4366 C.ar      1 <0>         0.4515
     19 N4         -5.2108   -9.8235    3.3827 N.ar      1 <0>        -0.5423
     20 C16        -5.3796   -9.4503    4.6347 C.ar      1 <0>         0.3655
     21 N5         -5.2667   -8.1917    5.0075 N.ar      1 <0>        -0.5828
     22 N6         -4.7461   -9.3361    1.1173 N.am      1 <0>        -0.5515
     23 C17        -4.3221   -8.3659    0.1048 C.3       1 <0>         0.0649
     24 C18        -4.9656  -10.6198    0.7705 C.2       1 <0>         0.6963
     25 O1         -5.3174  -11.4249    1.6108 O.2       1 <0>        -0.4774
     26 N7         -4.7950  -11.0110   -0.5080 N.am      1 <0>        -0.6824
     27 C19        -4.9079  -12.3651   -0.8468 C.ar      1 <0>         0.2515
     28 C20        -3.8855  -12.9943   -1.5448 C.ar      1 <0>        -0.1156
     29 C21        -3.9983  -14.3355   -1.8800 C.ar      1 <0>         0.1969
     30 C22        -5.1319  -15.0480   -1.5188 C.ar      1 <0>        -0.2867
     31 C23        -6.1535  -14.4206   -0.8218 C.ar      1 <0>         0.1972
     32 C24        -6.0399  -13.0811   -0.4802 C.ar      1 <0>        -0.0912
     33 Cl1        -7.3156  -12.2980    0.3991 Cl        1 <0>        -0.0151
     34 O2         -7.2642  -15.1202   -0.4683 O.3       1 <0>        -0.2933
     35 C25        -7.3116  -16.4972   -0.8473 C.3       1 <0>         0.0224
     36 O3         -2.9975  -14.9516   -2.5633 O.3       1 <0>        -0.2955
     37 C26        -3.1804  -16.3341   -2.8753 C.3       1 <0>         0.0225
     38 Cl2        -2.4668  -12.1023   -1.9981 Cl        1 <0>        -0.0388
     39 H1         -2.8146   -3.4808   15.4373 H         1 <0>         0.0601
     40 H2         -4.4435   -4.0912   15.0599 H         1 <0>         0.0642
     41 H3         -3.0108   -4.8971   14.3771 H         1 <0>         0.0548
     42 H4         -3.9276   -2.0563   13.7401 H         1 <0>         0.0754
     43 H5         -2.4950   -2.8622   13.0574 H         1 <0>         0.0324
     44 H6         -2.8150   -4.6131   11.3528 H         1 <0>         0.0373
     45 H7         -3.4816   -5.5223   12.7308 H         1 <0>         0.0881
     46 H8         -4.2176   -6.4171   10.4850 H         1 <0>         0.0867
     47 H9         -5.5752   -5.9086   11.5236 H         1 <0>         0.0692
     48 H10        -5.7633   -2.6458    9.4978 H         1 <0>         0.0853
     49 H11        -6.5952   -3.4200   10.8723 H         1 <0>         0.0688
     50 H12        -5.0237   -1.7596   11.7460 H         1 <0>         0.0847
     51 H13        -3.6964   -2.4625   10.7899 H         1 <0>         0.0375
     52 H14        -4.0875   -6.8104    8.9108 H         1 <0>         0.1239
     53 H15        -3.9715   -7.3882    6.5217 H         1 <0>         0.1333
     54 H16        -5.9244   -3.7138    5.5381 H         1 <0>         0.1213
     55 H17        -6.0491   -3.1403    7.9278 H         1 <0>         0.1240
     56 H18        -4.7504   -5.2181    3.8580 H         1 <0>         0.4169
     57 H19        -4.5666   -6.8448    2.0425 H         1 <0>         0.1434
     58 H20        -5.6130  -10.1984    5.3779 H         1 <0>         0.1992
     59 H21        -3.2335   -8.3472    0.0528 H         1 <0>         0.0766
     60 H22        -4.7274   -8.6529   -0.8655 H         1 <0>         0.0808
     61 H23        -4.6901   -7.3757    0.3737 H         1 <0>         0.0918
     62 H24        -4.5941  -10.3546   -1.1933 H         1 <0>         0.4120
     63 H25        -5.2193  -16.0921   -1.7808 H         1 <0>         0.1535
     64 H26        -7.2478  -16.5777   -1.9325 H         1 <0>         0.0599
     65 H27        -6.4745  -17.0279   -0.3938 H         1 <0>         0.0605
     66 H28        -8.2486  -16.9363   -0.5049 H         1 <0>         0.1088
     67 H29        -3.2981  -16.9023   -1.9526 H         1 <0>         0.0606
     68 H30        -4.0718  -16.4527   -3.4913 H         1 <0>         0.0604
     69 H31        -2.3108  -16.7017   -3.4200 H         1 <0>         0.1087
@<TRIPOS>BOND
     1    1    2 1
     2    1   39 1
     3    1   40 1
     4    1   41 1
     5    2    3 1
     6    2   42 1
     7    2   43 1
     8    3    8 1
     9    3    4 1
    10    4    5 1
    11    4   44 1
    12    4   45 1
    13    5    6 1
    14    5   46 1
    15    5   47 1
    16    6    7 1
    17    6    9 1
    18    7    8 1
    19    7   48 1
    20    7   49 1
    21    8   50 1
    22    8   51 1
    23    9   14 ar
    24    9   10 ar
    25   10   11 ar
    26   10   52 1
    27   11   12 ar
    28   11   53 1
    29   12   13 ar
    30   12   15 1
    31   13   14 ar
    32   13   54 1
    33   14   55 1
    34   15   16 1
    35   15   56 1
    36   16   21 ar
    37   16   17 ar
    38   17   18 ar
    39   17   57 1
    40   18   19 ar
    41   18   22 1
    42   19   20 ar
    43   20   21 ar
    44   20   58 1
    45   22   23 1
    46   22   24 am
    47   23   59 1
    48   23   60 1
    49   23   61 1
    50   24   25 2
    51   24   26 am
    52   26   27 1
    53   26   62 1
    54   27   32 ar
    55   27   28 ar
    56   28   29 ar
    57   28   38 1
    58   29   30 ar
    59   29   36 1
    60   30   31 ar
    61   30   63 1
    62   31   32 ar
    63   31   34 1
    64   32   33 1
    65   34   35 1
    66   35   64 1
    67   35   65 1
    68   35   66 1
    69   36   37 1
    70   37   67 1
    71   37   68 1
    72   37   69 1
@<TRIPOS>MOLECULE
ZINC12504479
   39    42     0     0     0
SMALL
USER_CHARGES
tert-butyl-fluoro-BLAHone
@<TRIPOS>ATOM
      1 C1          0.0306    7.5665   -1.3573 C.3       1 <0>        -0.1435
      2 C2         -0.0131    6.9316    0.0341 C.3       1 <0>         0.0141
      3 C3         -1.4663    6.6486    0.4201 C.3       1 <0>        -0.1303
      4 C4          0.6075    7.8907    1.0520 C.3       1 <0>        -0.1484
      5 C5          0.7640    5.6405    0.0218 C.2       1 <0>         0.2640
      6 N1          2.1200    5.5432    0.0086 N.pl3     1 <0>        -0.5660
      7 H1          2.7692    6.3038    0.0059 H         1 <0>         0.4300
      8 C6          2.4322    4.2055   -0.0004 C.ar      1 <0>         0.0707
      9 C7          3.6945    3.4726   -0.0160 C.ar      1 <0>        -0.0387
     10 C8          4.9179    4.1553   -0.0241 C.ar      1 <0>        -0.0830
     11 C9          6.0889    3.4567   -0.0382 C.ar      1 <0>        -0.1479
     12 C10         6.0877    2.0644   -0.0451 C.ar      1 <0>         0.1067
     13 C11         4.9015    1.3651   -0.0371 C.ar      1 <0>        -0.1434
     14 C12         3.6874    2.0596   -0.0226 C.ar      1 <0>         0.0348
     15 C13         2.4115    1.3424   -0.0138 C.ar      1 <0>        -0.1820
     16 C14         1.2049    2.0599    0.0016 C.ar      1 <0>         0.1180
     17 C15         1.2195    3.5214    0.0080 C.ar      1 <0>         0.0317
     18 N2          0.2386    4.4495    0.0214 N.2       1 <0>        -0.4565
     19 C16        -0.0162    1.3425    0.0094 C.2       1 <0>        -0.2034
     20 C17         0.0021   -0.0041    0.0020 C.2       1 <0>         0.1350
     21 N3          1.1742   -0.7011   -0.0125 N.am      1 <0>        -0.6142
     22 H2          1.1491   -1.6708   -0.0168 H         1 <0>         0.4195
     23 C18         2.3662   -0.0731   -0.0205 C.2       1 <0>         0.5428
     24 O1          3.3998   -0.7196   -0.0338 O.2       1 <0>        -0.5363
     25 F1          7.2604    1.3938   -0.0600 F         1 <0>        -0.1343
     26 H3         -0.4115    6.8833   -2.0824 H         1 <0>         0.0650
     27 H4         -0.5315    8.5004   -1.3483 H         1 <0>         0.0730
     28 H5          1.0659    7.7682   -1.6323 H         1 <0>         0.0547
     29 H6         -1.4974    6.1963    1.4114 H         1 <0>         0.0620
     30 H7         -2.0283    7.5824    0.4291 H         1 <0>         0.0642
     31 H8         -1.9084    5.9653   -0.3050 H         1 <0>         0.0701
     32 H9          1.6428    8.0923    0.7770 H         1 <0>         0.0535
     33 H10         0.0454    8.8245    1.0609 H         1 <0>         0.0757
     34 H11         0.5764    7.4384    2.0432 H         1 <0>         0.0638
     35 H12         4.9335    5.2351   -0.0195 H         1 <0>         0.1298
     36 H13         7.0282    3.9897   -0.0443 H         1 <0>         0.1393
     37 H14         4.9085    0.2852   -0.0418 H         1 <0>         0.1812
     38 H15        -0.9571    1.8725    0.0168 H         1 <0>         0.1577
     39 H16        -0.9330   -0.5444    0.0080 H         1 <0>         0.1706
@<TRIPOS>BOND
     1    1    2 1
     2    1   26 1
     3    1   27 1
     4    1   28 1
     5    2    3 1
     6    2    4 1
     7    2    5 1
     8    3   29 1
     9    3   30 1
    10    3   31 1
    11    4   32 1
    12    4   33 1
    13    4   34 1
    14    5   18 2
    15    5    6 1
    16    6    7 1
    17    6    8 1
    18    8   17 ar
    19    8    9 ar
    20    9   14 ar
    21    9   10 ar
    22   10   11 ar
    23   10   35 1
    24   11   12 ar
    25   11   36 1
    26   12   13 ar
    27   12   25 1
    28   13   14 ar
    29   13   37 1
    30   14   15 ar
    31   15   23 1
    32   15   16 ar
    33   16   17 ar
    34   16   19 1
    35   17   18 1
    36   19   20 2
    37   19   38 1
    38   20   21 1
    39   20   39 1
    40   21   22 1
    41   21   23 am
    42   23   24 2
@<TRIPOS>MOLECULE
ZINC14965294
   63    67     0     0     0
SMALL
USER_CHARGES
4-[[2-[[4-chloro-3-[[(2S)-1-methylpyrrolidin-2-yl]methoxy]phenyl]amino]-1,3-benzoxazol-5-yl]oxy]-N-methyl-pyridine-2-carboxamide
@<TRIPOS>ATOM
      1 C1        -13.7281    0.6446    5.1022 C.3       1 <0>         0.0839
      2 N1        -12.2870    0.5892    4.8445 N.am      1 <0>        -0.7127
      3 C2        -11.8065    0.9193    3.6293 C.2       1 <0>         0.5702
      4 O1        -12.5687    1.2629    2.7475 O.2       1 <0>        -0.5245
      5 C3        -10.3489    0.8632    3.3687 C.ar      1 <0>         0.1155
      6 C4         -9.8593    1.2108    2.1139 C.ar      1 <0>        -0.1328
      7 C5         -8.4874    1.1472    1.8837 C.ar      1 <0>         0.1579
      8 C6         -7.6590    0.7469    2.9288 C.ar      1 <0>        -0.2285
      9 C7         -8.2201    0.4224    4.1506 C.ar      1 <0>         0.1389
     10 N2         -9.5215    0.4868    4.3368 N.ar      1 <0>        -0.4773
     11 O2         -7.9699    1.4727    0.6718 O.3       1 <0>        -0.2394
     12 C8         -6.6170    1.4887    0.5390 C.ar      1 <0>         0.0926
     13 C9         -5.9388    2.7028    0.5025 C.ar      1 <0>        -0.0970
     14 C10        -4.5659    2.7320    0.3685 C.ar      1 <0>        -0.0616
     15 C11        -3.8548    1.5472    0.2683 C.ar      1 <0>         0.0039
     16 C12        -4.5323    0.3193    0.3039 C.ar      1 <0>         0.0682
     17 C13        -5.9209    0.2985    0.4402 C.ar      1 <0>        -0.0835
     18 N3         -3.5863   -0.6518    0.1813 N.2       1 <0>        -0.5055
     19 C14        -2.4114   -0.0836    0.0855 C.2       1 <0>         0.4915
     20 O3         -2.5403    1.2540    0.1319 O.3       1 <0>        -0.2175
     21 N4         -1.2172   -0.7574   -0.0492 N.pl3     1 <0>        -0.6094
     22 C15        -0.0087   -0.0545   -0.0052 C.ar      1 <0>         0.2115
     23 C16         0.0728    1.1455    0.6901 C.ar      1 <0>        -0.1617
     24 C17         1.2661    1.8401    0.7333 C.ar      1 <0>        -0.0313
     25 C18         2.3820    1.3433    0.0850 C.ar      1 <0>        -0.0837
     26 C19         2.3058    0.1443   -0.6114 C.ar      1 <0>         0.1596
     27 C20         1.1101   -0.5549   -0.6566 C.ar      1 <0>        -0.2268
     28 O4          3.4031   -0.3429   -1.2486 O.3       1 <0>        -0.3096
     29 C21         3.2520   -1.5812   -1.9457 C.3       1 <0>         0.0375
     30 C22         4.5828   -1.9666   -2.5949 C.3       1 <0>         0.0329
     31 H1          4.9619   -1.1434   -3.2005 H         1 <0>         0.1534
     32 C23         4.4135   -3.2359   -3.4573 C.3       1 <0>        -0.1411
     33 C24         5.7173   -4.0349   -3.2546 C.3       1 <0>        -0.1483
     34 C25         6.5647   -3.1813   -2.2869 C.3       1 <0>        -0.0069
     35 C26         6.2123   -1.1603   -0.9752 C.3       1 <0>        -0.0397
     36 Cl1         3.8796    2.2194    0.1418 Cl        1 <0>        -0.0465
     37 H2        -14.0865    1.6619    4.9448 H         1 <0>         0.0645
     38 H3        -14.2452   -0.0321    4.4218 H         1 <0>         0.0644
     39 H4        -13.9249    0.3453    6.1316 H         1 <0>         0.0810
     40 H5        -11.6787    0.3149    5.5484 H         1 <0>         0.4138
     41 H6        -10.5332    1.5213    1.3292 H         1 <0>         0.1610
     42 H7         -6.5898    0.6909    2.7871 H         1 <0>         0.1446
     43 H8         -7.5811    0.1111    4.9637 H         1 <0>         0.1696
     44 H9         -6.4904    3.6281    0.5796 H         1 <0>         0.1566
     45 H10        -4.0459    3.6782    0.3412 H         1 <0>         0.1500
     46 H11        -6.4492   -0.6430    0.4687 H         1 <0>         0.1485
     47 H12        -1.2145   -1.7193   -0.1745 H         1 <0>         0.4450
     48 H13        -0.7985    1.5378    1.1935 H         1 <0>         0.1477
     49 H14         1.3276    2.7728    1.2742 H         1 <0>         0.1543
     50 H15         1.0489   -1.4874   -1.1980 H         1 <0>         0.1445
     51 H16         2.9515   -2.3590   -1.2437 H         1 <0>         0.0895
     52 H17         2.4893   -1.4733   -2.7168 H         1 <0>         0.1131
     53 H18         3.5568   -3.8156   -3.1135 H         1 <0>         0.1030
     54 H19         4.2933   -2.9673   -4.5068 H         1 <0>         0.1171
     55 H20         5.5007   -5.0069   -2.8115 H         1 <0>         0.1022
     56 H21         6.2362   -4.1601   -4.2050 H         1 <0>         0.1137
     57 H22         7.1090   -3.8213   -1.5925 H         1 <0>         0.1399
     58 H23         7.2575   -2.5503   -2.8437 H         1 <0>         0.1341
     59 H24         5.4523   -0.5277   -0.5165 H         1 <0>         0.1326
     60 H25         6.9334   -1.4688   -0.2183 H         1 <0>         0.1248
     61 H26         6.7246   -0.6026   -1.7592 H         1 <0>         0.1192
     62 N5          5.5663   -2.3627   -1.5897 N.4       1 <0>        -0.3946
     63 H27         5.1116   -2.9146   -0.8528 H         1 <0>         0.4280
@<TRIPOS>BOND
     1    1    2 1
     2    1   37 1
     3    1   38 1
     4    1   39 1
     5    2    3 am
     6    2   40 1
     7    3    4 2
     8    3    5 1
     9    5   10 ar
    10    5    6 ar
    11    6    7 ar
    12    6   41 1
    13    7    8 ar
    14    7   11 1
    15    8    9 ar
    16    8   42 1
    17    9   10 ar
    18    9   43 1
    19   11   12 1
    20   12   17 ar
    21   12   13 ar
    22   13   14 ar
    23   13   44 1
    24   14   15 ar
    25   14   45 1
    26   15   20 1
    27   15   16 ar
    28   16   17 ar
    29   16   18 1
    30   17   46 1
    31   18   19 2
    32   19   20 1
    33   19   21 1
    34   21   22 1
    35   21   47 1
    36   22   27 ar
    37   22   23 ar
    38   23   24 ar
    39   23   48 1
    40   24   25 ar
    41   24   49 1
    42   25   26 ar
    43   25   36 1
    44   26   27 ar
    45   26   28 1
    46   27   50 1
    47   28   29 1
    48   29   30 1
    49   29   51 1
    50   29   52 1
    51   30   31 1
    52   30   32 1
    53   30   62 1
    54   32   33 1
    55   32   53 1
    56   32   54 1
    57   33   34 1
    58   33   55 1
    59   33   56 1
    60   34   57 1
    61   34   58 1
    62   34   62 1
    63   35   59 1
    64   35   60 1
    65   35   61 1
    66   35   62 1
    67   62   63 1
@<TRIPOS>MOLECULE
ZINC01546258
   53    55     0     0     0
SMALL
USER_CHARGES
3-[4-amino-9-(3,5-dimethoxyphenyl)-3,5,7-triazabicyclo[4.4.0]deca-2,4,7,9,11-pentaen-8-yl]-1-tert-butyl-urea
@<TRIPOS>ATOM
      1 C1         -1.0887    7.6775    1.3033 C.3       1 <0>        -0.1663
      2 C2         -0.3113    8.0808    0.0487 C.3       1 <0>         0.1877
      3 C3         -0.0830    9.5937    0.0546 C.3       1 <0>        -0.1554
      4 C4         -1.1124    7.6908   -1.1951 C.3       1 <0>        -0.1662
      5 N1          0.9815    7.3919    0.0329 N.am      1 <0>        -0.7353
      6 C5          1.0273    6.0450    0.0253 C.2       1 <0>         0.6901
      7 O1         -0.0042    5.4017    0.0317 O.2       1 <0>        -0.5044
      8 N2          2.2167    5.4112    0.0107 N.am      1 <0>        -0.6633
      9 C6          2.2638    4.0247    0.0029 C.ar      1 <0>         0.4750
     10 C7          3.5175    3.3772   -0.0124 C.ar      1 <0>        -0.1647
     11 C8          3.5690    1.9924   -0.0207 C.ar      1 <0>         0.0437
     12 C9          2.3538    1.2883   -0.0134 C.ar      1 <0>        -0.2965
     13 C10         2.3093   -0.1165   -0.0206 C.ar      1 <0>         0.2662
     14 N3          1.1320   -0.7081   -0.0126 N.ar      1 <0>        -0.5715
     15 C11         0.0021   -0.0041    0.0020 C.ar      1 <0>         0.5958
     16 N4         -0.0158    1.3153    0.0093 N.ar      1 <0>        -0.5643
     17 C12         1.1301    2.0077    0.0021 C.ar      1 <0>         0.4294
     18 N5          1.1372    3.3420    0.0095 N.ar      1 <0>        -0.4758
     19 N6         -1.2015   -0.6830    0.0094 N.pl3     1 <0>        -0.8106
     20 C13         4.7693    4.1719   -0.0200 C.ar      1 <0>         0.0404
     21 C14         4.9368    5.2020   -0.9432 C.ar      1 <0>        -0.1979
     22 C15         6.1054    5.9464   -0.9438 C.ar      1 <0>         0.1772
     23 C16         7.1125    5.6599   -0.0338 C.ar      1 <0>        -0.2963
     24 C17         6.9514    4.6311    0.8826 C.ar      1 <0>         0.1767
     25 C18         5.7831    3.8866    0.8924 C.ar      1 <0>        -0.1729
     26 O2          7.9407    4.3534    1.7721 O.3       1 <0>        -0.3102
     27 C19         9.1180    5.1606    1.7060 C.3       1 <0>         0.0250
     28 O3          6.2671    6.9551   -1.8400 O.3       1 <0>        -0.3107
     29 C20         7.4986    7.6781   -1.7878 C.3       1 <0>         0.0249
     30 H1         -0.5180    7.9554    2.1894 H         1 <0>         0.0525
     31 H2         -2.0506    8.1901    1.3151 H         1 <0>         0.0638
     32 H3         -1.2514    6.5997    1.2991 H         1 <0>         0.0817
     33 H4          0.4708    9.8810   -0.8392 H         1 <0>         0.0624
     34 H5         -1.0449   10.1063    0.0664 H         1 <0>         0.0764
     35 H6          0.4877    9.8716    0.9407 H         1 <0>         0.0620
     36 H7         -1.2750    6.6130   -1.1992 H         1 <0>         0.0817
     37 H8         -2.0743    8.2033   -1.1832 H         1 <0>         0.0637
     38 H9         -0.5585    7.9781   -2.0888 H         1 <0>         0.0529
     39 H10         1.8046    7.9052    0.0278 H         1 <0>         0.3944
     40 H11         3.0397    5.9245    0.0056 H         1 <0>         0.4167
     41 H12         4.5146    1.4707   -0.0328 H         1 <0>         0.1552
     42 H13         3.2195   -0.6978   -0.0320 H         1 <0>         0.1816
     43 H14        -2.0366   -0.1897    0.0197 H         1 <0>         0.4185
     44 H15        -1.2112   -1.6530    0.0043 H         1 <0>         0.4170
     45 H16         4.1548    5.4227   -1.6547 H         1 <0>         0.1357
     46 H17         8.0241    6.2390   -0.0391 H         1 <0>         0.1377
     47 H18         5.6583    3.0857    1.6061 H         1 <0>         0.1385
     48 H19         9.5731    5.0593    0.7208 H         1 <0>         0.0572
     49 H20         8.8534    6.2039    1.8784 H         1 <0>         0.0568
     50 H21         9.8255    4.8344    2.4683 H         1 <0>         0.1047
     51 H22         8.3290    6.9943   -1.9635 H         1 <0>         0.0573
     52 H23         7.4977    8.4532   -2.5542 H         1 <0>         0.1047
     53 H24         7.6083    8.1383   -0.8058 H         1 <0>         0.0573
@<TRIPOS>BOND
     1    1    2 1
     2    1   30 1
     3    1   31 1
     4    1   32 1
     5    2    3 1
     6    2    4 1
     7    2    5 1
     8    3   33 1
     9    3   34 1
    10    3   35 1
    11    4   36 1
    12    4   37 1
    13    4   38 1
    14    5    6 am
    15    5   39 1
    16    6    7 2
    17    6    8 am
    18    8    9 1
    19    8   40 1
    20    9   18 ar
    21    9   10 ar
    22   10   11 ar
    23   10   20 1
    24   11   12 ar
    25   11   41 1
    26   12   17 ar
    27   12   13 ar
    28   13   14 ar
    29   13   42 1
    30   14   15 ar
    31   15   16 ar
    32   15   19 1
    33   16   17 ar
    34   17   18 ar
    35   19   43 1
    36   19   44 1
    37   20   25 ar
    38   20   21 ar
    39   21   22 ar
    40   21   45 1
    41   22   23 ar
    42   22   28 1
    43   23   24 ar
    44   23   46 1
    45   24   25 ar
    46   24   26 1
    47   25   47 1
    48   26   27 1
    49   27   48 1
    50   27   49 1
    51   27   50 1
    52   28   29 1
    53   29   51 1
    54   29   52 1
    55   29   53 1
@<TRIPOS>MOLECULE
ZINC00396802
   27    29     0     0     0
SMALL
USER_CHARGES
2-oxo-7,8-dihydro-6H-acenaphthylene-1-carboxamide
@<TRIPOS>ATOM
      1 C1         -0.4927   -2.3527   -0.0077 C.ar      1 <0>        -0.1069
      2 C2          0.8521   -2.6857   -0.0079 C.ar      1 <0>        -0.0875
      3 C3          1.7957   -1.6794   -0.0033 C.ar      1 <0>        -0.0434
      4 C4          1.3473   -0.3601   -0.0043 C.ar      1 <0>        -0.0967
      5 C5          0.0021   -0.0041    0.0020 C.ar      1 <0>        -0.1538
      6 C6         -0.9285   -1.0264   -0.0018 C.ar      1 <0>        -0.0499
      7 C7         -0.0181    1.4818    0.0102 C.2       1 <0>         0.4535
      8 O1         -1.0033    2.1910    0.0189 O.2       1 <0>        -0.4171
      9 C8          1.4018    1.9357   -0.0009 C.2       1 <0>        -0.2727
     10 C9          2.2009    0.8522   -0.0150 C.2       1 <0>         0.0927
     11 C10         3.7013    0.6637   -0.0486 C.3       1 <0>        -0.0844
     12 C11         3.9809   -0.6971   -0.7025 C.3       1 <0>        -0.1207
     13 C12         3.2885   -1.8606    0.0073 C.3       1 <0>        -0.0850
     14 C13         1.8537    3.3321    0.0021 C.2       1 <0>         0.5870
     15 O2          3.0436    3.5866   -0.0083 O.2       1 <0>        -0.5402
     16 N1          0.9507    4.3326    0.0164 N.am      1 <0>        -0.8462
     17 H1         -1.2273   -3.1444   -0.0124 H         1 <0>         0.1372
     18 H2          1.1583   -3.7214   -0.0119 H         1 <0>         0.1400
     19 H3         -1.9847   -0.8007    0.0002 H         1 <0>         0.1380
     20 H4          4.1612    1.4582   -0.6362 H         1 <0>         0.1081
     21 H5          4.0989    0.6765    0.9662 H         1 <0>         0.1051
     22 H6          3.6393   -0.6651   -1.7371 H         1 <0>         0.0688
     23 H7          5.0564   -0.8738   -0.6969 H         1 <0>         0.0841
     24 H8          3.5405   -2.7916   -0.5003 H         1 <0>         0.0866
     25 H9          3.6360   -1.9092    1.0392 H         1 <0>         0.0879
     26 H10         0.0022    4.1297    0.0247 H         1 <0>         0.4090
     27 H11         1.2494    5.2555    0.0184 H         1 <0>         0.4063
@<TRIPOS>BOND
     1    1    6 ar
     2    1    2 ar
     3    1   17 1
     4    2    3 ar
     5    2   18 1
     6    3   13 1
     7    3    4 ar
     8    4   10 1
     9    4    5 ar
    10    5    6 ar
    11    5    7 1
    12    6   19 1
    13    7    8 2
    14    7    9 1
    15    9   10 2
    16    9   14 1
    17   10   11 1
    18   11   12 1
    19   11   20 1
    20   11   21 1
    21   12   13 1
    22   12   22 1
    23   12   23 1
    24   13   24 1
    25   13   25 1
    26   14   15 2
    27   14   16 am
    28   16   26 1
    29   16   27 1
@<TRIPOS>MOLECULE
ZINC00017343
   30    32     0     0     0
SMALL
USER_CHARGES
1-oxo-3-phenyl-indene-2-carboxamide
@<TRIPOS>ATOM
      1 C1          1.2084   -0.6842   -0.0136 C.ar      1 <0>        -0.1008
      2 C2          0.0021   -0.0041    0.0020 C.ar      1 <0>        -0.1194
      3 C3         -0.0166    1.3737    0.0096 C.ar      1 <0>        -0.0581
      4 C4          1.1894    2.0866    0.0019 C.ar      1 <0>        -0.0709
      5 C5          2.4051    1.3905   -0.0125 C.ar      1 <0>        -0.0892
      6 C6          2.4053    0.0125   -0.0208 C.ar      1 <0>        -0.1228
      7 C7          1.1793    3.5572    0.0094 C.2       1 <0>         0.1442
      8 C8          0.7044    4.3569    1.0464 C.2       1 <0>        -0.2712
      9 C9          0.8779    5.7658    0.6528 C.2       1 <0>         0.4471
     10 O1          0.5753    6.7421    1.3095 O.2       1 <0>        -0.4159
     11 C10         1.4935    5.7665   -0.7004 C.ar      1 <0>        -0.1615
     12 C11         1.6779    4.4247   -1.0807 C.ar      1 <0>        -0.0726
     13 C12         2.2476    4.1353   -2.3151 C.ar      1 <0>        -0.0700
     14 C13         2.6325    5.1675   -3.1599 C.ar      1 <0>        -0.0937
     15 C14         2.4531    6.4818   -2.7827 C.ar      1 <0>        -0.1049
     16 C15         1.8781    6.7860   -1.5537 C.ar      1 <0>        -0.0485
     17 C16         0.1333    3.8806    2.3070 C.2       1 <0>         0.5835
     18 O2          0.0413    2.6857    2.5206 O.2       1 <0>        -0.5285
     19 N1         -0.2908    4.7650    3.2314 N.am      1 <0>        -0.8468
     20 H1          1.2158   -1.7641   -0.0198 H         1 <0>         0.1257
     21 H2         -0.9267   -0.5552    0.0079 H         1 <0>         0.1277
     22 H3         -0.9582    1.9026    0.0169 H         1 <0>         0.1220
     23 H4          3.3394    1.9322   -0.0175 H         1 <0>         0.1248
     24 H5          3.3416   -0.5257   -0.0327 H         1 <0>         0.1280
     25 H6          2.3909    3.1082   -2.6167 H         1 <0>         0.1377
     26 H7          3.0749    4.9399   -4.1185 H         1 <0>         0.1400
     27 H8          2.7551    7.2780   -3.4470 H         1 <0>         0.1403
     28 H9          1.7410    7.8166   -1.2612 H         1 <0>         0.1389
     29 H10        -0.2175    5.7171    3.0613 H         1 <0>         0.4082
     30 H11        -0.6693    4.4493    4.0669 H         1 <0>         0.4064
@<TRIPOS>BOND
     1    1    6 ar
     2    1    2 ar
     3    1   20 1
     4    2    3 ar
     5    2   21 1
     6    3    4 ar
     7    3   22 1
     8    4    5 ar
     9    4    7 1
    10    5    6 ar
    11    5   23 1
    12    6   24 1
    13    7   12 1
    14    7    8 2
    15    8    9 1
    16    8   17 1
    17    9   10 2
    18    9   11 1
    19   11   16 ar
    20   11   12 ar
    21   12   13 ar
    22   13   14 ar
    23   13   25 1
    24   14   15 ar
    25   14   26 1
    26   15   16 ar
    27   15   27 1
    28   16   28 1
    29   17   18 2
    30   17   19 am
    31   19   29 1
    32   19   30 1
@<TRIPOS>MOLECULE
ZINC03952380
   72    74     0     0     0
SMALL
USER_CHARGES
1-[3-(2,6-dichlorophenyl)-8-(4-diethylaminobutylamino)-5,7,9-triazabicyclo[4.4.0]deca-2,4,7,9,11-pentaen-4-yl]-3-tert-butyl-urea
@<TRIPOS>ATOM
      1 C1         -4.4663    6.7451   -2.1992 C.3       1 <0>        -0.1869
      2 C2         -3.7440    7.5917   -1.1493 C.3       1 <0>        -0.0140
      3 C3         -5.7495    7.7763    0.1948 C.3       1 <0>        -0.0122
      4 C4         -5.8211    9.3045    0.1743 C.3       1 <0>        -0.1886
      5 C5         -4.2126    5.9411    0.5591 C.3       1 <0>        -0.0109
      6 C6         -2.7345    5.6035    0.7639 C.3       1 <0>        -0.1438
      7 C7         -2.5983    4.1344    1.1690 C.3       1 <0>        -0.1329
      8 C8         -1.1201    3.7968    1.3738 C.3       1 <0>         0.1393
      9 N1         -0.9897    2.3901    1.7617 N.pl3     1 <0>        -0.6988
     10 C9          0.2606    1.8528    2.0025 C.ar      1 <0>         0.5908
     11 N2          1.3286    2.6364    1.8690 N.ar      1 <0>        -0.5736
     12 C10         2.5462    2.1791    2.0797 C.ar      1 <0>         0.2660
     13 C11         2.7015    0.8330    2.4529 C.ar      1 <0>        -0.2909
     14 C12         3.9658    0.2710    2.6947 C.ar      1 <0>         0.0475
     15 C13         4.0241   -1.0651    3.0577 C.ar      1 <0>        -0.1607
     16 C14         2.8285   -1.8061    3.1708 C.ar      1 <0>         0.4876
     17 N3          1.6541   -1.2563    2.9386 N.ar      1 <0>        -0.4748
     18 C15         1.5415    0.0257    2.5863 C.ar      1 <0>         0.4312
     19 N4          0.3471    0.5830    2.3502 N.ar      1 <0>        -0.5595
     20 N5          2.8912   -3.1435    3.5349 N.am      1 <0>        -0.6592
     21 C16         1.7585   -3.8651    3.6472 C.2       1 <0>         0.6931
     22 O1          0.6818   -3.3443    3.4295 O.2       1 <0>        -0.5048
     23 N6          1.8195   -5.1642    4.0010 N.am      1 <0>        -0.7340
     24 C17         0.5883   -5.9487    4.1231 C.3       1 <0>         0.1879
     25 C18        -0.1412   -5.9656    2.7783 C.3       1 <0>        -0.1657
     26 C19         0.9349   -7.3813    4.5333 C.3       1 <0>        -0.1564
     27 C20        -0.3148   -5.3184    5.1852 C.3       1 <0>        -0.1657
     28 C21         5.3318   -1.7107    3.3246 C.ar      1 <0>        -0.0437
     29 C22         6.0299   -2.3328    2.2896 C.ar      1 <0>        -0.0133
     30 C23         7.2503   -2.9280    2.5437 C.ar      1 <0>        -0.1036
     31 C24         7.7753   -2.9171    3.8233 C.ar      1 <0>        -0.0815
     32 C25         7.0852   -2.3068    4.8551 C.ar      1 <0>        -0.1036
     33 C26         5.8664   -1.7036    4.6130 C.ar      1 <0>        -0.0132
     34 Cl1         5.0016   -0.9387    5.9094 Cl        1 <0>        -0.0433
     35 Cl2         5.3693   -2.3538    0.6844 Cl        1 <0>        -0.0434
     36 H1         -4.0065    6.9055   -3.1744 H         1 <0>         0.1057
     37 H2         -4.3908    5.6913   -1.9309 H         1 <0>         0.0804
     38 H3         -5.5162    7.0352   -2.2404 H         1 <0>         0.0800
     39 H4         -3.8394    8.6470   -1.4052 H         1 <0>         0.1289
     40 H5         -2.6893    7.3178   -1.1245 H         1 <0>         0.1296
     41 H6         -6.2651    7.3767   -0.6785 H         1 <0>         0.1321
     42 H7         -6.2262    7.4024    1.1009 H         1 <0>         0.1285
     43 H8         -6.8645    9.6196    0.1898 H         1 <0>         0.1058
     44 H9         -5.3079    9.7041    1.0489 H         1 <0>         0.0802
     45 H10        -5.3421    9.6786   -0.7305 H         1 <0>         0.0792
     46 H11        -4.6244    5.3079   -0.2268 H         1 <0>         0.1339
     47 H12        -4.7569    5.7683    1.4875 H         1 <0>         0.1302
     48 H13        -2.3227    6.2368    1.5498 H         1 <0>         0.0912
     49 H14        -2.1902    5.7764   -0.1645 H         1 <0>         0.0908
     50 H15        -3.0100    3.5012    0.3831 H         1 <0>         0.0823
     51 H16        -3.1425    3.9616    2.0974 H         1 <0>         0.0829
     52 H17        -0.7083    4.4301    2.1597 H         1 <0>         0.0712
     53 H18        -0.5759    3.9697    0.4454 H         1 <0>         0.0709
     54 H19        -1.7808    1.8359    1.8494 H         1 <0>         0.4172
     55 H20         3.4054    2.8240    1.9687 H         1 <0>         0.1807
     56 H21         4.8648    0.8621    2.6010 H         1 <0>         0.1525
     57 H22         3.7503   -3.5590    3.7086 H         1 <0>         0.4130
     58 H23         2.6786   -5.5798    4.1747 H         1 <0>         0.3948
     59 H24         0.5022   -6.4147    2.0216 H         1 <0>         0.0532
     60 H25        -1.0573   -6.5493    2.8692 H         1 <0>         0.0646
     61 H26        -0.3882   -4.9450    2.4860 H         1 <0>         0.0802
     62 H27         1.4546   -7.3693    5.4914 H         1 <0>         0.0630
     63 H28         0.0188   -7.9650    4.6242 H         1 <0>         0.0775
     64 H29         1.5783   -7.8304    3.7766 H         1 <0>         0.0630
     65 H30        -0.5618   -4.2978    4.8930 H         1 <0>         0.0802
     66 H31        -1.2309   -5.9021    5.2761 H         1 <0>         0.0646
     67 H32         0.2049   -5.3063    6.1433 H         1 <0>         0.0532
     68 H33         7.7940   -3.4061    1.7423 H         1 <0>         0.1465
     69 H34         8.7278   -3.3874    4.0178 H         1 <0>         0.1484
     70 H35         7.5004   -2.3017    5.8521 H         1 <0>         0.1466
     71 N7         -4.3291    7.3675    0.1894 N.4       1 <0>        -0.3960
     72 H36        -3.8167    7.9330    0.8763 H         1 <0>         0.4282
@<TRIPOS>BOND
     1    1    2 1
     2    1   36 1
     3    1   37 1
     4    1   38 1
     5    2   39 1
     6    2   40 1
     7    2   71 1
     8    3    4 1
     9    3   41 1
    10    3   42 1
    11    3   71 1
    12    4   43 1
    13    4   44 1
    14    4   45 1
    15    5    6 1
    16    5   46 1
    17    5   47 1
    18    5   71 1
    19    6    7 1
    20    6   48 1
    21    6   49 1
    22    7    8 1
    23    7   50 1
    24    7   51 1
    25    8    9 1
    26    8   52 1
    27    8   53 1
    28    9   10 1
    29    9   54 1
    30   10   19 ar
    31   10   11 ar
    32   11   12 ar
    33   12   13 ar
    34   12   55 1
    35   13   18 ar
    36   13   14 ar
    37   14   15 ar
    38   14   56 1
    39   15   16 ar
    40   15   28 1
    41   16   17 ar
    42   16   20 1
    43   17   18 ar
    44   18   19 ar
    45   20   21 am
    46   20   57 1
    47   21   22 2
    48   21   23 am
    49   23   24 1
    50   23   58 1
    51   24   25 1
    52   24   26 1
    53   24   27 1
    54   25   59 1
    55   25   60 1
    56   25   61 1
    57   26   62 1
    58   26   63 1
    59   26   64 1
    60   27   65 1
    61   27   66 1
    62   27   67 1
    63   28   33 ar
    64   28   29 ar
    65   29   30 ar
    66   29   35 1
    67   30   31 ar
    68   30   68 1
    69   31   32 ar
    70   31   69 1
    71   32   33 ar
    72   32   70 1
    73   33   34 1
    74   71   72 1
@<TRIPOS>MOLECULE
ZINC11617039
   55    58     0     0     0
SMALL
USER_CHARGES

@<TRIPOS>ATOM
      1 H1          0.2120    6.2074    3.3921 H         1 <0>         0.1353
      2 C1         -0.6814    5.6062    3.3098 C.ar      1 <0>         0.0196
      3 C2         -1.0741    5.1311    2.1031 C.ar      1 <0>        -0.1998
      4 C3         -2.2288    4.3474    1.9606 C.ar      1 <0>         0.2426
      5 C4         -3.0111    4.0257    3.0293 C.ar      1 <0>        -0.1858
      6 C5         -2.6578    4.4884    4.3143 C.ar      1 <0>         0.1374
      7 C6         -1.4433    5.3059    4.4600 C.ar      1 <0>        -0.2352
      8 C7         -1.3367    5.6110    5.8041 C.2       1 <0>         0.1330
      9 N1         -2.3705    5.0424    6.4391 N.pl3     1 <0>        -0.3190
     10 N2         -3.1795    4.3626    5.5213 N.2       1 <0>        -0.3200
     11 C8         -2.6225    5.1281    7.8797 C.3       1 <0>         0.0831
     12 H2         -3.2434    5.9992    8.0888 H         1 <0>         0.0888
     13 H3         -3.1369    4.2268    8.2129 H         1 <0>         0.0992
     14 H4         -1.6744    5.2222    8.4094 H         1 <0>         0.0983
     15 C9         -0.2495    6.4365    6.4425 C.3       1 <0>        -0.1025
     16 H5         -0.5455    7.4855    6.4477 H         1 <0>         0.0927
     17 H6         -0.0907    6.0987    7.4666 H         1 <0>         0.0807
     18 H7          0.6740    6.3223    5.8749 H         1 <0>         0.0943
     19 H8         -3.8955    3.4210    2.8932 H         1 <0>         0.1075
     20 N3         -2.5862    3.8853    0.6908 N.pl3     1 <0>        -0.5925
     21 C10        -3.6562    3.0160    0.5454 C.ar      1 <0>         0.5430
     22 C11        -3.4766    1.6392    0.6984 C.ar      1 <0>        -0.2193
     23 C12        -4.5711    0.8111    0.5450 C.ar      1 <0>         0.2156
     24 N4         -5.7510    1.3422    0.2594 N.ar      1 <0>        -0.5411
     25 C13        -5.8925    2.6520    0.1199 C.ar      1 <0>         0.6254
     26 N5         -4.8692    3.4808    0.2639 N.ar      1 <0>        -0.5160
     27 N6         -7.1427    3.1682   -0.1788 N.pl3     1 <0>        -0.6061
     28 C14        -7.2911    4.5338   -0.4396 C.ar      1 <0>         0.0902
     29 C15        -6.2697    5.2382   -1.0645 C.ar      1 <0>        -0.0370
     30 C16        -6.4197    6.5867   -1.3210 C.ar      1 <0>        -0.1186
     31 C17        -7.5850    7.2362   -0.9562 C.ar      1 <0>         0.0334
     32 C18        -8.6034    6.5381   -0.3338 C.ar      1 <0>        -0.6606
     33 C19        -8.4623    5.1877   -0.0798 C.ar      1 <0>        -0.0140
     34 S1        -10.0857    7.3705    0.1294 S.o2      1 <0>         2.7024
     35 O1        -10.5091    8.1093   -1.0082 O.2       1 <0>        -0.9461
     36 O2        -10.9137    6.4040    0.7615 O.2       1 <0>        -0.9598
     37 N7         -9.6818    8.4799    1.2907 N.pl3     1 <0>        -1.2481
     38 C20        -7.7450    8.7080   -1.2374 C.3       1 <0>        -0.1567
     39 H9         -8.1929    8.8433   -2.2218 H         1 <0>         0.1090
     40 H10        -8.3897    9.1545   -0.4804 H         1 <0>         0.0769
     41 H11        -6.7680    9.1908   -1.2132 H         1 <0>         0.0924
     42 H12        -4.4665   -0.2581    0.6563 H         1 <0>         0.2280
     43 H13        -2.5039    1.2316    0.9310 H         1 <0>         0.1988
     44 C21        -1.8301    4.3196   -0.4864 C.3       1 <0>         0.0917
     45 H14        -1.0078    3.6271   -0.6659 H         1 <0>         0.0746
     46 H15        -2.4881    4.3354   -1.3553 H         1 <0>         0.0729
     47 H16        -1.4320    5.3196   -0.3140 H         1 <0>         0.0953
     48 H17        -0.4834    5.3620    1.2289 H         1 <0>         0.1346
     49 H18        -7.9152    2.5823   -0.2071 H         1 <0>         0.4391
     50 H19        -5.3592    4.7318   -1.3490 H         1 <0>         0.1427
     51 H20        -5.6260    7.1349   -1.8068 H         1 <0>         0.1482
     52 H21        -9.2599    4.6421    0.4024 H         1 <0>         0.1564
     53 H22        -8.7604    8.5635    1.5820 H         1 <0>         0.4174
     54 H23       -10.3667    9.0460    1.6797 H         1 <0>         0.4270
     55 H24        -6.5221    0.7638    0.1506 H         1 <0>         0.4504
@<TRIPOS>BOND
     1    1    2 1
     2    2    7 ar
     3    2    3 ar
     4    3    4 ar
     5    3   48 1
     6    4    5 ar
     7    4   20 1
     8    5    6 ar
     9    5   19 1
    10    6   10 2
    11    6    7 ar
    12    7    8 2
    13    8    9 1
    14    8   15 1
    15    9   10 1
    16    9   11 1
    17   11   12 1
    18   11   13 1
    19   11   14 1
    20   15   16 1
    21   15   17 1
    22   15   18 1
    23   20   21 1
    24   20   44 1
    25   21   26 ar
    26   21   22 ar
    27   22   23 ar
    28   22   43 1
    29   23   24 ar
    30   23   42 1
    31   24   25 ar
    32   24   55 1
    33   25   26 ar
    34   25   27 1
    35   27   28 1
    36   27   49 1
    37   28   33 ar
    38   28   29 ar
    39   29   30 ar
    40   29   50 1
    41   30   31 ar
    42   30   51 1
    43   31   32 ar
    44   31   38 1
    45   32   33 ar
    46   32   34 1
    47   33   52 1
    48   34   35 2
    49   34   36 2
    50   34   37 1
    51   37   53 1
    52   37   54 1
    53   38   39 1
    54   38   40 1
    55   38   41 1
    56   44   45 1
    57   44   46 1
    58   44   47 1
@<TRIPOS>MOLECULE
ZINC01486219
   63    66     0     0     0
SMALL
USER_CHARGES
3-(2,6-dichlorophenyl)-8-[4-(2-diethylaminoethoxy)phenyl]amino-5-methyl-5,7,9-triazabicyclo[4.4.0]deca-2,7,9,11-tetraen-4-one
@<TRIPOS>ATOM
      1 C1          4.3966   -4.7837   -2.5468 C.3       1 <0>        -0.1870
      2 C2          2.8964   -4.6021   -2.7861 C.3       1 <0>        -0.0162
      3 C3          2.4461   -6.8910   -2.1372 C.3       1 <0>        -0.0118
      4 C4          1.8425   -7.2999   -3.4823 C.3       1 <0>        -0.1890
      5 C5          2.4154   -5.1324   -0.4731 C.3       1 <0>        -0.0017
      6 C6          1.8626   -3.7372   -0.1755 C.3       1 <0>         0.0258
      7 O1          0.4386   -3.7538   -0.2937 O.3       1 <0>        -0.3284
      8 C7         -0.2140   -2.5840   -0.0593 C.ar      1 <0>         0.0962
      9 C8         -1.5967   -2.5300   -0.1569 C.ar      1 <0>        -0.1190
     10 C9         -2.2601   -1.3423    0.0800 C.ar      1 <0>        -0.0693
     11 C10        -1.5427   -0.2019    0.4166 C.ar      1 <0>         0.1456
     12 C11        -0.1586   -0.2569    0.5145 C.ar      1 <0>        -0.1051
     13 C12         0.5033   -1.4453    0.2768 C.ar      1 <0>        -0.1797
     14 N1         -2.2146    1.0029    0.6565 N.pl3     1 <0>        -0.6299
     15 C13        -3.4618    0.9918    1.2505 C.ar      1 <0>         0.6044
     16 N2         -3.9572   -0.1650    1.6772 N.ar      1 <0>        -0.5742
     17 C14        -5.1437   -0.2299    2.2512 C.ar      1 <0>         0.2632
     18 C15        -5.8809    0.9543    2.4052 C.ar      1 <0>        -0.2686
     19 C16        -7.1573    0.9487    3.0126 C.2       1 <0>         0.0223
     20 C17        -7.8369    2.1304    3.1401 C.2       1 <0>        -0.1517
     21 C18        -7.2276    3.3671    2.6461 C.2       1 <0>         0.5544
     22 O2         -7.8250    4.4230    2.7559 O.2       1 <0>        -0.4939
     23 N3         -6.0096    3.3430    2.0714 N.am      1 <0>        -0.5055
     24 C19        -5.3213    2.1634    1.9394 C.ar      1 <0>         0.4667
     25 N4         -4.1173    2.1350    1.3785 N.ar      1 <0>        -0.5922
     26 C20        -5.4137    4.5888    1.5828 C.3       1 <0>         0.0688
     27 C21        -9.1768    2.1577    3.7717 C.ar      1 <0>        -0.0161
     28 C22       -10.3226    1.9980    2.9915 C.ar      1 <0>        -0.0058
     29 C23       -11.5685    2.0201    3.5872 C.ar      1 <0>        -0.1054
     30 C24       -11.6824    2.2097    4.9527 C.ar      1 <0>        -0.0846
     31 C25       -10.5507    2.3740    5.7310 C.ar      1 <0>        -0.1053
     32 C26        -9.2987    2.3491    5.1486 C.ar      1 <0>        -0.0060
     33 Cl1        -7.8797    2.5560    6.1271 Cl        1 <0>        -0.0505
     34 Cl2       -10.1822    1.7665    1.2768 Cl        1 <0>        -0.0510
     35 H1          4.9531   -4.1230   -3.2115 H         1 <0>         0.1068
     36 H2          4.6315   -4.5389   -1.5110 H         1 <0>         0.0793
     37 H3          4.6739   -5.8185   -2.7475 H         1 <0>         0.0822
     38 H4          2.6589   -4.8621   -3.8177 H         1 <0>         0.1316
     39 H5          2.6219   -3.5637   -2.6008 H         1 <0>         0.1265
     40 H6          3.5263   -7.0339   -2.1651 H         1 <0>         0.1326
     41 H7          2.0186   -7.5058   -1.3452 H         1 <0>         0.1298
     42 H8          2.0860   -8.3423   -3.6879 H         1 <0>         0.1065
     43 H9          0.7598   -7.1800   -3.4463 H         1 <0>         0.0812
     44 H10         2.2519   -6.6689   -4.2712 H         1 <0>         0.0791
     45 H11         3.4910   -5.1423   -0.2968 H         1 <0>         0.1506
     46 H12         1.9336   -5.8608    0.1791 H         1 <0>         0.1410
     47 H13         2.2779   -3.0226   -0.8861 H         1 <0>         0.0853
     48 H14         2.1397   -3.4450    0.8374 H         1 <0>         0.1080
     49 H15        -2.1544   -3.4170   -0.4187 H         1 <0>         0.1368
     50 H16        -3.3362   -1.2993   -0.0007 H         1 <0>         0.1474
     51 H17         0.4000    0.6295    0.7766 H         1 <0>         0.1342
     52 H18         1.5798   -1.4882    0.3529 H         1 <0>         0.1308
     53 H19        -1.8044    1.8453    0.4058 H         1 <0>         0.4284
     54 H20        -5.5388   -1.1742    2.5955 H         1 <0>         0.1893
     55 H21        -7.5900    0.0261    3.3703 H         1 <0>         0.1521
     56 H22        -5.7018    4.7463    0.5434 H         1 <0>         0.0759
     57 H23        -5.7679    5.4230    2.1883 H         1 <0>         0.0941
     58 H24        -4.3278    4.5242    1.6530 H         1 <0>         0.0949
     59 H25       -12.4560    1.8924    2.9851 H         1 <0>         0.1450
     60 H26       -12.6591    2.2300    5.4131 H         1 <0>         0.1471
     61 H27       -10.6465    2.5224    6.7965 H         1 <0>         0.1451
     62 N5          2.1179   -5.4728   -1.8803 N.4       1 <0>        -0.3969
     63 H28         1.1169   -5.3253   -2.0547 H         1 <0>         0.4358
@<TRIPOS>BOND
     1    1    2 1
     2    1   35 1
     3    1   36 1
     4    1   37 1
     5    2   38 1
     6    2   39 1
     7    2   62 1
     8    3    4 1
     9    3   40 1
    10    3   41 1
    11    3   62 1
    12    4   42 1
    13    4   43 1
    14    4   44 1
    15    5    6 1
    16    5   45 1
    17    5   46 1
    18    5   62 1
    19    6    7 1
    20    6   47 1
    21    6   48 1
    22    7    8 1
    23    8   13 ar
    24    8    9 ar
    25    9   10 ar
    26    9   49 1
    27   10   11 ar
    28   10   50 1
    29   11   12 ar
    30   11   14 1
    31   12   13 ar
    32   12   51 1
    33   13   52 1
    34   14   15 1
    35   14   53 1
    36   15   25 ar
    37   15   16 ar
    38   16   17 ar
    39   17   18 ar
    40   17   54 1
    41   18   24 ar
    42   18   19 1
    43   19   20 2
    44   19   55 1
    45   20   21 1
    46   20   27 1
    47   21   22 2
    48   21   23 am
    49   23   24 1
    50   23   26 1
    51   24   25 ar
    52   26   56 1
    53   26   57 1
    54   26   58 1
    55   27   32 ar
    56   27   28 ar
    57   28   29 ar
    58   28   34 1
    59   29   30 ar
    60   29   59 1
    61   30   31 ar
    62   30   60 1
    63   31   32 ar
    64   31   61 1
    65   32   33 1
    66   62   63 1
@<TRIPOS>MOLECULE
ZINC22449469
   74    78     0     0     0
SMALL
USER_CHARGES

@<TRIPOS>ATOM
      1 C1          1.6200   -1.5857   -4.2133 C.3       1 <0>        -0.0457
      2 N1          1.1042   -2.2979   -3.0366 N.4       1 <0>        -0.3891
      3 C2          0.6210   -3.6248   -3.4407 C.3       1 <0>        -0.0013
      4 C3          0.0663   -4.3599   -2.2185 C.3       1 <0>         0.0260
      5 N2          1.1250   -4.4920   -1.2077 N.3       1 <0>        -0.5236
      6 C4          1.6361   -3.1722   -0.8115 C.3       1 <0>         0.0190
      7 C5          2.1778   -2.4469   -2.0453 C.3       1 <0>         0.0004
      8 C6          0.6468   -5.2437   -0.0397 C.3       1 <0>         0.0382
      9 C7          1.8119   -5.5712    0.8583 C.2       1 <0>         0.5151
     10 O1          2.9305   -5.2135    0.5552 O.2       1 <0>        -0.5111
     11 N3          1.6108   -6.2614    1.9984 N.am      1 <0>        -0.5638
     12 C8          0.2491   -6.6000    2.4192 C.3       1 <0>         0.0714
     13 C9          2.7039   -6.6550    2.7807 C.ar      1 <0>         0.0880
     14 C10         3.4772   -5.6979    3.4248 C.ar      1 <0>        -0.0594
     15 C11         4.5546   -6.0855    4.1955 C.ar      1 <0>        -0.1576
     16 C12         4.8653   -7.4333    4.3273 C.ar      1 <0>         0.2055
     17 C13         4.0913   -8.3905    3.6832 C.ar      1 <0>        -0.1610
     18 C14         3.0108   -8.0027    2.9168 C.ar      1 <0>        -0.0724
     19 N4          5.9572   -7.8262    5.1077 N.pl3     1 <0>        -0.6661
     20 C15         6.3653   -9.1334    5.1054 C.2       1 <0>         0.3219
     21 C16         6.3952   -9.8552    6.2951 C.2       1 <0>        -0.2136
     22 C17         6.9454  -11.2087    6.5011 C.ar      1 <0>        -0.0552
     23 C18         7.5608  -12.1327    5.6578 C.ar      1 <0>        -0.0866
     24 C19         7.9740  -13.3370    6.1503 C.ar      1 <0>        -0.0786
     25 C20         7.7818  -13.6478    7.5020 C.ar      1 <0>        -0.0930
     26 C21         7.1664  -12.7290    8.3549 C.ar      1 <0>        -0.0681
     27 C22         6.7458  -11.5064    7.8599 C.ar      1 <0>         0.1311
     28 N5          6.1180  -10.4193    8.4558 N.am      1 <0>        -0.6517
     29 C23         5.9079   -9.4383    7.5621 C.2       1 <0>         0.5643
     30 O2          5.3815   -8.3650    7.7999 O.2       1 <0>        -0.5077
     31 C24         8.2305  -14.9501    8.0268 C.2       1 <0>         0.5078
     32 O3          8.0650  -15.2223    9.1995 O.2       1 <0>        -0.4988
     33 O4          8.8243  -15.8390    7.2060 O.3       1 <0>        -0.3474
     34 C25         9.2338  -17.0810    7.7821 C.3       1 <0>         0.0336
     35 C26         6.7731   -9.7761    3.8428 C.ar      1 <0>        -0.0960
     36 C27         6.1914  -10.9850    3.4502 C.ar      1 <0>        -0.0837
     37 C28         6.5780  -11.5802    2.2679 C.ar      1 <0>        -0.1219
     38 C29         7.5393  -10.9837    1.4707 C.ar      1 <0>        -0.0938
     39 C30         8.1197   -9.7868    1.8528 C.ar      1 <0>        -0.1198
     40 C31         7.7392   -9.1768    3.0296 C.ar      1 <0>        -0.0769
     41 H1          2.4418   -2.1530   -4.6501 H         1 <0>         0.1233
     42 H2          0.8234   -1.4750   -4.9491 H         1 <0>         0.1241
     43 H3          1.9775   -0.6004   -3.9138 H         1 <0>         0.1242
     44 H4         -0.1666   -3.5132   -4.1859 H         1 <0>         0.1374
     45 H5          1.4451   -4.1976   -3.8661 H         1 <0>         0.1387
     46 H6         -0.7667   -3.7942   -1.8010 H         1 <0>         0.0624
     47 H7         -0.2787   -5.3503   -2.5154 H         1 <0>         0.1251
     48 H8          0.8290   -2.5869   -0.3708 H         1 <0>         0.0569
     49 H9          2.4363   -3.2960   -0.0819 H         1 <0>         0.1392
     50 H10         2.9939   -3.0257   -2.4778 H         1 <0>         0.1396
     51 H11         2.5444   -1.4620   -1.7560 H         1 <0>         0.1359
     52 H12        -0.0767   -4.6408    0.5091 H         1 <0>         0.0780
     53 H13         0.1728   -6.1675   -0.3713 H         1 <0>         0.1196
     54 H14        -0.0313   -7.5661    1.9996 H         1 <0>         0.0664
     55 H15         0.2070   -6.6504    3.5072 H         1 <0>         0.0835
     56 H16        -0.4417   -5.8353    2.0639 H         1 <0>         0.0741
     57 H17         3.2356   -4.6503    3.3224 H         1 <0>         0.1234
     58 H18         5.1564   -5.3412    4.6958 H         1 <0>         0.1317
     59 H19         4.3328   -9.4382    3.7852 H         1 <0>         0.1304
     60 H20         2.4064   -8.7470    2.4197 H         1 <0>         0.1270
     61 H21         6.4255   -7.1729    5.6506 H         1 <0>         0.4225
     62 H22         7.7103  -11.8958    4.6148 H         1 <0>         0.1426
     63 H23         8.4499  -14.0521    5.4956 H         1 <0>         0.1460
     64 H24         7.0188  -12.9715    9.3969 H         1 <0>         0.1450
     65 H25         5.8689  -10.3731    9.3921 H         1 <0>         0.4213
     66 H26         9.6960  -17.7023    7.0150 H         1 <0>         0.1062
     67 H27         9.9531  -16.8923    8.5790 H         1 <0>         0.0634
     68 H28         8.3646  -17.5957    8.1915 H         1 <0>         0.0633
     69 H29         5.4414  -11.4518    4.0714 H         1 <0>         0.1312
     70 H30         6.1297  -12.5145    1.9634 H         1 <0>         0.1329
     71 H31         7.8383  -11.4548    0.5460 H         1 <0>         0.1291
     72 H32         8.8692   -9.3272    1.2256 H         1 <0>         0.1298
     73 H33         8.1894   -8.2403    3.3241 H         1 <0>         0.1256
     74 H34         0.3438   -1.7723   -2.6321 H         1 <0>         0.4216
@<TRIPOS>BOND
     1    1    2 1
     2    1   41 1
     3    1   42 1
     4    1   43 1
     5    2    7 1
     6    2    3 1
     7    2   74 1
     8    3    4 1
     9    3   44 1
    10    3   45 1
    11    4    5 1
    12    4   46 1
    13    4   47 1
    14    5    6 1
    15    5    8 1
    16    6    7 1
    17    6   48 1
    18    6   49 1
    19    7   50 1
    20    7   51 1
    21    8    9 1
    22    8   52 1
    23    8   53 1
    24    9   10 2
    25    9   11 am
    26   11   12 1
    27   11   13 1
    28   12   54 1
    29   12   55 1
    30   12   56 1
    31   13   18 ar
    32   13   14 ar
    33   14   15 ar
    34   14   57 1
    35   15   16 ar
    36   15   58 1
    37   16   17 ar
    38   16   19 1
    39   17   18 ar
    40   17   59 1
    41   18   60 1
    42   19   20 1
    43   19   61 1
    44   20   21 2
    45   20   35 1
    46   21   29 1
    47   21   22 1
    48   22   27 ar
    49   22   23 ar
    50   23   24 ar
    51   23   62 1
    52   24   25 ar
    53   24   63 1
    54   25   26 ar
    55   25   31 1
    56   26   27 ar
    57   26   64 1
    58   27   28 1
    59   28   29 am
    60   28   65 1
    61   29   30 2
    62   31   32 2
    63   31   33 1
    64   33   34 1
    65   34   66 1
    66   34   67 1
    67   34   68 1
    68   35   40 ar
    69   35   36 ar
    70   36   37 ar
    71   36   69 1
    72   37   38 ar
    73   37   70 1
    74   38   39 ar
    75   38   71 1
    76   39   40 ar
    77   39   72 1
    78   40   73 1
@<TRIPOS>MOLECULE
ZINC22449469
   74    78     0     0     0
SMALL
USER_CHARGES

@<TRIPOS>ATOM
      1 C1          1.8905   -1.2340   -4.0590 C.3       1 <0>        -0.0458
      2 N1          1.3432   -1.9811   -2.9188 N.4       1 <0>        -0.3890
      3 C2          0.8615   -3.2907   -3.3776 C.3       1 <0>        -0.0014
      4 C3          0.2741   -4.0618   -2.1935 C.3       1 <0>         0.0262
      5 N2          1.3081   -4.2342   -1.1633 N.3       1 <0>        -0.5238
      6 C4          1.8177   -2.9316   -0.7121 C.3       1 <0>         0.0192
      7 C5          2.3924   -2.1698   -1.9084 C.3       1 <0>         0.0003
      8 C6          0.7983   -5.0207   -0.0322 C.3       1 <0>         0.0382
      9 C7          1.9402   -5.3854    0.8812 C.2       1 <0>         0.5153
     10 O1          3.0677   -5.0255    0.6160 O.2       1 <0>        -0.5102
     11 N3          1.7084   -6.1114    1.9929 N.am      1 <0>        -0.5650
     12 C8          0.3349   -6.4504    2.3732 C.3       1 <0>         0.0715
     13 C9          2.7808   -6.5416    2.7845 C.ar      1 <0>         0.0916
     14 C10         3.5480   -5.6144    3.4777 C.ar      1 <0>        -0.0599
     15 C11         4.6051   -6.0381    4.2575 C.ar      1 <0>        -0.1595
     16 C12         4.9014   -7.3924    4.3493 C.ar      1 <0>         0.1982
     17 C13         4.1335   -8.3198    3.6561 C.ar      1 <0>        -0.1559
     18 C14         3.0733   -7.8959    2.8806 C.ar      1 <0>        -0.0721
     19 N4          5.9727   -7.8219    5.1389 N.pl3     1 <0>        -0.6763
     20 C15         6.3653   -9.1334    5.1054 C.2       1 <0>         0.3268
     21 C16         6.3747   -9.8871    6.2755 C.2       1 <0>        -0.2173
     22 C17         5.8714   -9.4788    7.6010 C.ar      1 <0>        -0.0582
     23 C18         5.2751   -8.3148    8.0839 C.ar      1 <0>        -0.0826
     24 C19         4.9077   -8.2295    9.3960 C.ar      1 <0>        -0.0794
     25 C20         5.1278   -9.3094   10.2598 C.ar      1 <0>        -0.0935
     26 C21         5.7244  -10.4797    9.7858 C.ar      1 <0>        -0.0677
     27 C22         6.0986  -10.5706    8.4560 C.ar      1 <0>         0.1336
     28 N5          6.6987  -11.5836    7.7179 N.am      1 <0>        -0.6522
     29 C23         6.8650  -11.2099    6.4381 C.2       1 <0>         0.5658
     30 O2          7.3595  -11.8945    5.5593 O.2       1 <0>        -0.4960
     31 C24         4.7285   -9.2103   11.6753 C.2       1 <0>         0.5076
     32 O3          4.9184  -10.1459   12.4271 O.2       1 <0>        -0.4977
     33 O4          4.1530   -8.0820   12.1357 O.3       1 <0>        -0.3483
     34 C25         3.7917   -8.0554   13.5180 C.3       1 <0>         0.0336
     35 C26         6.7781   -9.7469    3.8300 C.ar      1 <0>        -0.0992
     36 C27         7.7088   -9.1031    3.0096 C.ar      1 <0>        -0.0767
     37 C28         8.0901   -9.6831    1.8180 C.ar      1 <0>        -0.1285
     38 C29         7.5536  -10.8996    1.4337 C.ar      1 <0>        -0.0915
     39 C30         6.6315  -11.5430    2.2407 C.ar      1 <0>        -0.1238
     40 C31         6.2450  -10.9781    3.4378 C.ar      1 <0>        -0.0444
     41 H1          2.7189   -1.7923   -4.4952 H         1 <0>         0.1234
     42 H2          1.1121   -1.0939   -4.8090 H         1 <0>         0.1241
     43 H3          2.2468   -0.2616   -3.7190 H         1 <0>         0.1243
     44 H4          0.0922   -3.1493   -4.1367 H         1 <0>         0.1375
     45 H5          1.6919   -3.8547   -3.8024 H         1 <0>         0.1388
     46 H6         -0.5649   -3.5046   -1.7769 H         1 <0>         0.0625
     47 H7         -0.0698   -5.0395   -2.5308 H         1 <0>         0.1252
     48 H8          1.0041   -2.3558   -0.2710 H         1 <0>         0.0569
     49 H9          2.6000   -3.0849    0.0314 H         1 <0>         0.1391
     50 H10         3.2149   -2.7396   -2.3408 H         1 <0>         0.1397
     51 H11         2.7581   -1.1975   -1.5783 H         1 <0>         0.1360
     52 H12         0.0659   -4.4313    0.5194 H         1 <0>         0.0781
     53 H13         0.3267   -5.9299   -0.4050 H         1 <0>         0.1197
     54 H14         0.0548   -7.3992    1.9155 H         1 <0>         0.0665
     55 H15         0.2690   -6.5368    3.4578 H         1 <0>         0.0836
     56 H16        -0.3411   -5.6676    2.0294 H         1 <0>         0.0743
     57 H17         3.3176   -4.5617    3.4063 H         1 <0>         0.1240
     58 H18         5.2021   -5.3170    4.7959 H         1 <0>         0.1324
     59 H19         4.3638   -9.3725    3.7270 H         1 <0>         0.1315
     60 H20         2.4736   -8.6172    2.3452 H         1 <0>         0.1276
     61 H21         6.4376   -7.1909    5.7103 H         1 <0>         0.4197
     62 H22         5.1041   -7.4803    7.4200 H         1 <0>         0.1318
     63 H23         4.4466   -7.3269    9.7687 H         1 <0>         0.1453
     64 H24         5.8937  -11.3109   10.4544 H         1 <0>         0.1456
     65 H25         6.9586  -12.4463    8.0773 H         1 <0>         0.4220
     66 H26         3.3396   -7.0928   13.7569 H         1 <0>         0.1059
     67 H27         3.0773   -8.8530   13.7222 H         1 <0>         0.0634
     68 H28         4.6825   -8.2002   14.1292 H         1 <0>         0.0637
     69 H29         8.1281   -8.1536    3.3081 H         1 <0>         0.1218
     70 H30         8.8088   -9.1866    1.1829 H         1 <0>         0.1266
     71 H31         7.8557  -11.3489    0.4992 H         1 <0>         0.1258
     72 H32         6.2171  -12.4921    1.9342 H         1 <0>         0.1277
     73 H33         5.5290  -11.4837    4.0688 H         1 <0>         0.1222
     74 H34         0.5767   -1.4639   -2.5148 H         1 <0>         0.4215
@<TRIPOS>BOND
     1    1    2 1
     2    1   41 1
     3    1   42 1
     4    1   43 1
     5    2    7 1
     6    2    3 1
     7    2   74 1
     8    3    4 1
     9    3   44 1
    10    3   45 1
    11    4    5 1
    12    4   46 1
    13    4   47 1
    14    5    6 1
    15    5    8 1
    16    6    7 1
    17    6   48 1
    18    6   49 1
    19    7   50 1
    20    7   51 1
    21    8    9 1
    22    8   52 1
    23    8   53 1
    24    9   10 2
    25    9   11 am
    26   11   12 1
    27   11   13 1
    28   12   54 1
    29   12   55 1
    30   12   56 1
    31   13   18 ar
    32   13   14 ar
    33   14   15 ar
    34   14   57 1
    35   15   16 ar
    36   15   58 1
    37   16   17 ar
    38   16   19 1
    39   17   18 ar
    40   17   59 1
    41   18   60 1
    42   19   20 1
    43   19   61 1
    44   20   21 2
    45   20   35 1
    46   21   29 1
    47   21   22 1
    48   22   27 ar
    49   22   23 ar
    50   23   24 ar
    51   23   62 1
    52   24   25 ar
    53   24   63 1
    54   25   26 ar
    55   25   31 1
    56   26   27 ar
    57   26   64 1
    58   27   28 1
    59   28   29 am
    60   28   65 1
    61   29   30 2
    62   31   32 2
    63   31   33 1
    64   33   34 1
    65   34   66 1
    66   34   67 1
    67   34   68 1
    68   35   40 ar
    69   35   36 ar
    70   36   37 ar
    71   36   69 1
    72   37   38 ar
    73   37   70 1
    74   38   39 ar
    75   38   71 1
    76   39   40 ar
    77   39   72 1
    78   40   73 1
@<TRIPOS>MOLECULE
ZINC22449469
   74    78     0     0     0
SMALL
USER_CHARGES
methyl (3Z)-3-[[[4-[methyl-[2-(4-methylpiperazin-1-yl)acetyl]amino]phenyl]amino]-phenyl-methylene]-2-oxo-indoline-6-carboxylate
@<TRIPOS>ATOM
      1 C1          0.1652    5.0587   11.0404 C.3       1 <0>         0.0170
      2 N1         -0.6347    3.9333   10.5391 N.3       1 <0>        -0.5443
      3 C2         -2.0308    4.3361   10.3193 C.3       1 <0>         0.0236
      4 C3         -2.8461    3.1196    9.8748 C.3       1 <0>         0.0014
      5 N2         -2.2617    2.5640    8.6461 N.4       1 <0>        -0.3901
      6 C4         -0.8656    2.1612    8.8658 C.3       1 <0>        -0.0065
      7 C5         -0.0503    3.3777    9.3105 C.3       1 <0>         0.0276
      8 C6         -3.0617    1.4385    8.1448 C.3       1 <0>        -0.0258
      9 C7         -2.5819    1.0548    6.7688 C.2       1 <0>         0.5001
     10 O1         -1.6638    1.6593    6.2560 O.2       1 <0>        -0.5159
     11 N3         -3.1730    0.0397    6.1077 N.am      1 <0>        -0.5369
     12 C8         -4.3571   -0.6115    6.6732 C.3       1 <0>         0.0561
     13 C9         -2.6550   -0.3923    4.8802 C.ar      1 <0>         0.0686
     14 C10        -2.1981   -1.6963    4.7398 C.ar      1 <0>        -0.0707
     15 C11        -1.6877   -2.1223    3.5303 C.ar      1 <0>        -0.1615
     16 C12        -1.6311   -1.2466    2.4531 C.ar      1 <0>         0.2147
     17 C13        -2.0829    0.0594    2.5955 C.ar      1 <0>        -0.1620
     18 C14        -2.5981    0.4835    3.8037 C.ar      1 <0>        -0.0511
     19 N4         -1.1140   -1.6781    1.2275 N.pl3     1 <0>        -0.6878
     20 C15        -1.1902   -0.8653    0.1280 C.2       1 <0>         0.3236
     21 C16        -0.0287   -0.4841   -0.5375 C.2       1 <0>        -0.2114
     22 C17         1.3623   -0.7433   -0.1192 C.ar      1 <0>        -0.0646
     23 C18         1.9295   -1.3932    0.9760 C.ar      1 <0>        -0.0818
     24 C19         3.2872   -1.4754    1.0932 C.ar      1 <0>        -0.0834
     25 C20         4.1134   -0.9070    0.1160 C.ar      1 <0>        -0.0924
     26 C21         3.5550   -0.2533   -0.9845 C.ar      1 <0>        -0.0705
     27 C22         2.1787   -0.1681   -1.1078 C.ar      1 <0>         0.1323
     28 N5          1.3573    0.4066   -2.0702 N.am      1 <0>        -0.6654
     29 C23         0.0617    0.2348   -1.7588 C.2       1 <0>         0.5711
     30 O2         -0.8834    0.6280   -2.4204 O.2       1 <0>        -0.4973
     31 C24         5.5786   -0.9986    0.2497 C.2       1 <0>         0.5077
     32 O3          6.2979   -0.5058   -0.5967 O.2       1 <0>        -0.4988
     33 O4          6.1203   -1.6288    1.3107 O.3       1 <0>        -0.3540
     34 C25         7.5699   -1.6805    1.3771 C.3       1 <0>         0.0322
     35 C26        -2.5026   -0.3941   -0.3509 C.ar      1 <0>        -0.0949
     36 C27        -2.7281    0.9706   -0.5522 C.ar      1 <0>        -0.0530
     37 C28        -3.9568    1.4035   -1.0044 C.ar      1 <0>        -0.1214
     38 C29        -4.9686    0.4914   -1.2491 C.ar      1 <0>        -0.0933
     39 C30        -4.7543   -0.8609   -1.0475 C.ar      1 <0>        -0.1255
     40 C31        -3.5293   -1.3092   -0.6001 C.ar      1 <0>        -0.0791
     41 H1         -0.2936    5.4546   11.9584 H         1 <0>         0.0842
     42 H2          0.2021    5.8507   10.2779 H         1 <0>         0.0400
     43 H3          1.1863    4.7136   11.2602 H         1 <0>         0.0849
     44 H4         -2.4485    4.7366   11.2548 H         1 <0>         0.1258
     45 H5         -2.0706    5.1104    9.5390 H         1 <0>         0.0617
     46 H6         -2.8290    2.3572   10.6675 H         1 <0>         0.1380
     47 H7         -3.8852    3.4250    9.6822 H         1 <0>         0.1378
     48 H8         -0.8259    1.3868    9.6460 H         1 <0>         0.1317
     49 H9         -0.4479    1.7608    7.9303 H         1 <0>         0.1492
     50 H10        -0.0673    4.1411    8.5187 H         1 <0>         0.0627
     51 H11         0.9888    3.0732    9.5039 H         1 <0>         0.1239
     52 H12        -2.9527    0.5800    8.8238 H         1 <0>         0.1598
     53 H13        -4.1200    1.7345    8.0949 H         1 <0>         0.1615
     54 H14        -4.6947   -1.4102    5.9963 H         1 <0>         0.0999
     55 H15        -5.1605    0.1300    6.7948 H         1 <0>         0.0772
     56 H16        -4.1053   -1.0434    7.6530 H         1 <0>         0.0761
     57 H17        -2.2418   -2.3769    5.5772 H         1 <0>         0.1304
     58 H18        -1.3321   -3.1362    3.4211 H         1 <0>         0.1365
     59 H19        -2.0349    0.7416    1.7597 H         1 <0>         0.1323
     60 H20        -2.9528    1.4976    3.9134 H         1 <0>         0.1242
     61 H21        -0.6461   -2.6703    1.1467 H         1 <0>         0.4459
     62 H22         1.2948   -1.8325    1.7313 H         1 <0>         0.1305
     63 H23         3.7250   -1.9799    1.9418 H         1 <0>         0.1438
     64 H24         4.1946    0.1846   -1.7366 H         1 <0>         0.1452
     65 H25         1.8006    0.9148   -2.9392 H         1 <0>         0.4486
     66 H26         7.8763   -2.2190    2.2860 H         1 <0>         0.1072
     67 H27         7.9724   -0.6571    1.4039 H         1 <0>         0.0669
     68 H28         7.9590   -2.2045    0.4917 H         1 <0>         0.0678
     69 H29        -1.9408    1.6840   -0.3578 H         1 <0>         0.1196
     70 H30        -4.1315    2.4573   -1.1637 H         1 <0>         0.1271
     71 H31        -5.9301    0.8367   -1.5995 H         1 <0>         0.1266
     72 H32        -5.5485   -1.5668   -1.2404 H         1 <0>         0.1279
     73 H33        -3.3634   -2.3649   -0.4432 H         1 <0>         0.1225
     74 H34        -2.2711    3.3521    7.8788 H         1 <0>         0.4460
@<TRIPOS>BOND
     1    1    2 1
     2    1   41 1
     3    1   42 1
     4    1   43 1
     5    2    7 1
     6    2    3 1
     7    3    4 1
     8    3   44 1
     9    3   45 1
    10    4    5 1
    11    4   46 1
    12    4   47 1
    13    5    6 1
    14    5    8 1
    15    5   74 1
    16    6    7 1
    17    6   48 1
    18    6   49 1
    19    7   50 1
    20    7   51 1
    21    8    9 1
    22    8   52 1
    23    8   53 1
    24    9   10 2
    25    9   11 am
    26   11   12 1
    27   11   13 1
    28   12   54 1
    29   12   55 1
    30   12   56 1
    31   13   18 ar
    32   13   14 ar
    33   14   15 ar
    34   14   57 1
    35   15   16 ar
    36   15   58 1
    37   16   17 ar
    38   16   19 1
    39   17   18 ar
    40   17   59 1
    41   18   60 1
    42   19   20 1
    43   19   61 1
    44   20   21 2
    45   20   35 1
    46   21   29 1
    47   21   22 1
    48   22   27 ar
    49   22   23 ar
    50   23   24 ar
    51   23   62 1
    52   24   25 ar
    53   24   63 1
    54   25   26 ar
    55   25   31 1
    56   26   27 ar
    57   26   64 1
    58   27   28 1
    59   28   29 am
    60   28   65 1
    61   29   30 2
    62   31   32 2
    63   31   33 1
    64   33   34 1
    65   34   66 1
    66   34   67 1
    67   34   68 1
    68   35   40 ar
    69   35   36 ar
    70   36   37 ar
    71   36   69 1
    72   37   38 ar
    73   37   70 1
    74   38   39 ar
    75   38   71 1
    76   39   40 ar
    77   39   72 1
    78   40   73 1
@<TRIPOS>MOLECULE
ZINC03816310
   51    55     0     0     0
SMALL
USER_CHARGES
4-amino-5-fluoro-3-[5-(4-methylpiperazin-1-yl)-3H-benzoimidazol-2-yl]-1H-quinolin-2-one
@<TRIPOS>ATOM
      1 C1         -4.4670    0.8494    3.0633 C.3       1 <0>        -0.0407
      2 C2         -3.3790    0.9463    0.9019 C.3       1 <0>         0.0019
      3 C3         -3.5151    1.4789   -0.5264 C.3       1 <0>         0.0203
      4 N1         -3.5799    2.9467   -0.4951 N.pl3     1 <0>        -0.4822
      5 C4         -4.7239    3.4034    0.3063 C.3       1 <0>         0.0231
      6 C5         -4.5878    2.8708    1.7347 C.3       1 <0>         0.0021
      7 C6         -3.6324    3.4738   -1.7895 C.ar      1 <0>         0.0898
      8 C7         -3.6187    2.6172   -2.8884 C.ar      1 <0>        -0.1658
      9 C8         -3.6694    3.1157   -4.1588 C.ar      1 <0>        -0.0428
     10 C9         -3.7362    4.4973   -4.3655 C.ar      1 <0>         0.0571
     11 C10        -3.7506    5.3641   -3.2589 C.ar      1 <0>         0.0655
     12 C11        -3.7036    4.8454   -1.9734 C.ar      1 <0>        -0.1134
     13 N2         -3.8198    6.6467   -3.7722 N.pl3     1 <0>        -0.5851
     14 H1         -3.8464    7.4962   -3.2453 H         1 <0>         0.4436
     15 C12        -3.8451    6.5353   -5.1390 C.2       1 <0>         0.4046
     16 N3         -3.7957    5.2687   -5.4809 N.2       1 <0>        -0.5294
     17 C13        -3.9164    7.6652   -6.0804 C.2       1 <0>        -0.3025
     18 C14        -4.0559    7.4305   -7.4504 C.2       1 <0>         0.3760
     19 C15        -4.1228    8.5898   -8.3476 C.ar      1 <0>        -0.1878
     20 C16        -4.0447    9.8830   -7.7997 C.ar      1 <0>         0.2450
     21 C17        -4.1078   10.9864   -8.6429 C.ar      1 <0>        -0.1734
     22 C18        -4.2458   10.8081  -10.0035 C.ar      1 <0>        -0.0185
     23 C19        -4.3231    9.5350  -10.5468 C.ar      1 <0>        -0.1801
     24 C20        -4.2628    8.4239   -9.7304 C.ar      1 <0>         0.1680
     25 F1         -4.3388    7.1843  -10.2623 F         1 <0>        -0.1206
     26 N4         -3.9076   10.0470   -6.4354 N.am      1 <0>        -0.6368
     27 H2         -3.8498   10.9715   -6.0585 H         1 <0>         0.4300
     28 C21        -3.8500    8.9949   -5.6023 C.2       1 <0>         0.5826
     29 O1         -3.7334    9.1908   -4.4050 O.2       1 <0>        -0.5600
     30 N5         -4.1288    6.1500   -7.9440 N.pl3     1 <0>        -0.8025
     31 H3         -3.5472    1.1734    3.5502 H         1 <0>         0.1241
     32 H4         -5.3249    1.2032    3.6351 H         1 <0>         0.1225
     33 H5         -4.4877   -0.2393    3.0134 H         1 <0>         0.1228
     34 H6         -3.3598   -0.1434    0.8835 H         1 <0>         0.1376
     35 H7         -2.4541    1.3189    1.3424 H         1 <0>         0.1399
     36 H8         -2.6529    1.1655   -1.1151 H         1 <0>         0.1307
     37 H9         -4.4260    1.0841   -0.9765 H         1 <0>         0.0717
     38 H10        -4.7431    4.4931    0.3248 H         1 <0>         0.1261
     39 H11        -5.6486    3.0309   -0.1345 H         1 <0>         0.0691
     40 H12        -3.6769    3.2656    2.1847 H         1 <0>         0.1400
     41 H13        -5.4498    3.1846    2.3235 H         1 <0>         0.1367
     42 H14        -3.5672    1.5496   -2.7341 H         1 <0>         0.1314
     43 H15        -3.6582    2.4431   -5.0037 H         1 <0>         0.1346
     44 H16        -3.7183    5.5073   -1.1202 H         1 <0>         0.1268
     45 H17        -4.0491   11.9836   -8.2323 H         1 <0>         0.1496
     46 H18        -4.2944   11.6697  -10.6529 H         1 <0>         0.1516
     47 H19        -4.4307    9.4121  -11.6144 H         1 <0>         0.1515
     48 H20        -4.3218    5.4103   -7.3468 H         1 <0>         0.4285
     49 H21        -3.9874    5.9859   -8.8895 H         1 <0>         0.4092
     50 N6         -4.5458    1.3938    1.6909 N.4       1 <0>        -0.3998
     51 H22        -5.4033    1.0486    1.2438 H         1 <0>         0.4274
@<TRIPOS>BOND
     1    1   31 1
     2    1   32 1
     3    1   33 1
     4    1   50 1
     5    2    3 1
     6    2   34 1
     7    2   35 1
     8    2   50 1
     9    3    4 1
    10    3   36 1
    11    3   37 1
    12    4    5 1
    13    4    7 1
    14    5    6 1
    15    5   38 1
    16    5   39 1
    17    6   40 1
    18    6   41 1
    19    6   50 1
    20    7   12 ar
    21    7    8 ar
    22    8    9 ar
    23    8   42 1
    24    9   10 ar
    25    9   43 1
    26   10   16 1
    27   10   11 ar
    28   11   12 ar
    29   11   13 1
    30   12   44 1
    31   13   14 1
    32   13   15 1
    33   15   16 2
    34   15   17 1
    35   17   28 1
    36   17   18 2
    37   18   19 1
    38   18   30 1
    39   19   24 ar
    40   19   20 ar
    41   20   21 ar
    42   20   26 1
    43   21   22 ar
    44   21   45 1
    45   22   23 ar
    46   22   46 1
    47   23   24 ar
    48   23   47 1
    49   24   25 1
    50   26   27 1
    51   26   28 am
    52   28   29 2
    53   30   48 1
    54   30   49 1
    55   50   51 1
@<TRIPOS>MOLECULE
ZINC03820040
   62    66     0     0     0
SMALL
USER_CHARGES
N-[4-[4-(4-methylpiperazin-1-yl)-6-[(5-methyl-2H-pyrazol-3-yl)amino]pyrimidin-2-yl]sulfanylphenyl]cyclopropanecarboxamide
@<TRIPOS>ATOM
      1 C1          1.8035   -7.6837    0.5070 C.3       1 <0>        -0.0779
      2 C2          2.3685   -6.3674    0.0389 C.2       1 <0>         0.0949
      3 C3          1.9325   -5.1020    0.4407 C.2       1 <0>        -0.2905
      4 C4          2.6904   -4.1743   -0.2066 C.2       1 <0>         0.3252
      5 N1          3.5799   -4.8447   -0.9836 N.pl3     1 <0>        -0.4853
      6 H1          4.2729   -4.4328   -1.5753 H         1 <0>         0.4473
      7 N2          3.3537   -6.2159   -0.8085 N.2       1 <0>        -0.2711
      8 N3          2.5778   -2.7905   -0.0888 N.pl3     1 <0>        -0.6296
      9 C5          1.3376   -2.2123    0.1391 C.ar      1 <0>         0.4706
     10 C6          0.1755   -2.9717    0.0343 C.ar      1 <0>        -0.2983
     11 C7         -1.0466   -2.3490    0.2714 C.ar      1 <0>         0.3791
     12 N4         -1.0643   -1.0564    0.5886 N.ar      1 <0>        -0.5664
     13 C8          0.0620   -0.3646    0.6795 C.ar      1 <0>         0.3511
     14 N5          1.2425   -0.9231    0.4557 N.ar      1 <0>        -0.5606
     15 S1         -0.0125    1.3444    1.1018 S.3       1 <0>         0.1303
     16 C9          1.7078    1.7032    1.2298 C.ar      1 <0>        -0.1638
     17 C10         2.3806    1.4637    2.4214 C.ar      1 <0>        -0.0284
     18 C11         3.7293    1.7409    2.5200 C.ar      1 <0>        -0.1315
     19 C12         4.4114    2.2681    1.4313 C.ar      1 <0>         0.1902
     20 C13         3.7379    2.5125    0.2417 C.ar      1 <0>        -0.1573
     21 C14         2.3903    2.2311    0.1410 C.ar      1 <0>        -0.0288
     22 N6          5.7793    2.5539    1.5333 N.am      1 <0>        -0.6744
     23 C15         6.5739    1.7808    2.2997 C.2       1 <0>         0.5466
     24 O1          6.1269    0.7811    2.8213 O.2       1 <0>        -0.5140
     25 C16         8.0178    2.1584    2.5086 C.3       1 <0>        -0.2022
     26 C17         9.0818    1.2604    1.8742 C.3       1 <0>        -0.1494
     27 C18         8.8679    1.2402    3.3890 C.3       1 <0>        -0.1425
     28 N7         -2.2296   -3.0657    0.1789 N.pl3     1 <0>        -0.4710
     29 C19        -2.3617   -3.6957   -1.1422 C.3       1 <0>         0.0277
     30 C20        -3.6379   -4.5399   -1.1765 C.3       1 <0>         0.0040
     31 C21        -4.6643   -3.0537    0.4349 C.3       1 <0>        -0.0004
     32 C22        -3.3881   -2.2095    0.4692 C.3       1 <0>         0.0347
     33 C23        -6.0501   -4.4431   -0.9842 C.3       1 <0>        -0.0407
     34 H2          2.3381   -8.0122    1.3982 H         1 <0>         0.0831
     35 H3          0.7460   -7.5623    0.7417 H         1 <0>         0.0784
     36 H4          1.9177   -8.4287   -0.2805 H         1 <0>         0.0774
     37 H5          1.1347   -4.8964    1.1389 H         1 <0>         0.1550
     38 H6          3.3667   -2.2314   -0.1662 H         1 <0>         0.4241
     39 H7          0.2211   -4.0192   -0.2246 H         1 <0>         0.1631
     40 H8          1.8494    1.0573    3.2693 H         1 <0>         0.1319
     41 H9          4.2533    1.5509    3.4451 H         1 <0>         0.1405
     42 H10         4.2686    2.9225   -0.6049 H         1 <0>         0.1339
     43 H11         1.8666    2.4209   -0.7843 H         1 <0>         0.1341
     44 H12         6.1543    3.3081    1.0523 H         1 <0>         0.4168
     45 H13         8.2224    3.2282    2.5520 H         1 <0>         0.1306
     46 H14         8.7374    0.3965    1.3057 H         1 <0>         0.0995
     47 H15         9.9866    1.7393    1.5000 H         1 <0>         0.1100
     48 H16         9.6320    1.7059    4.0114 H         1 <0>         0.1092
     49 H17         8.3827    0.3633    3.8175 H         1 <0>         0.1093
     50 H18        -2.4158   -2.9234   -1.9095 H         1 <0>         0.0737
     51 H19        -1.4982   -4.3342   -1.3286 H         1 <0>         0.1318
     52 H20        -3.5722   -5.3290   -0.4274 H         1 <0>         0.1439
     53 H21        -3.7533   -4.9852   -2.1646 H         1 <0>         0.1412
     54 H22        -4.6102   -3.8259    1.2022 H         1 <0>         0.1407
     55 H23        -5.5278   -2.4152    0.6217 H         1 <0>         0.1407
     56 H24        -3.2729   -1.7645    1.4575 H         1 <0>         0.1357
     57 H25        -3.4537   -1.4201   -0.2796 H         1 <0>         0.0793
     58 H26        -6.8948   -3.7714   -0.8313 H         1 <0>         0.1238
     59 H27        -6.1225   -4.8989   -1.9717 H         1 <0>         0.1230
     60 H28        -6.0632   -5.2226   -0.2224 H         1 <0>         0.1251
     61 N8         -4.7966   -3.6630   -0.9051 N.4       1 <0>        -0.4014
     62 H29        -4.8229   -2.9169   -1.6099 H         1 <0>         0.4281
@<TRIPOS>BOND
     1    1    2 1
     2    1   34 1
     3    1   35 1
     4    1   36 1
     5    2    7 2
     6    2    3 1
     7    3    4 2
     8    3   37 1
     9    4    5 1
    10    4    8 1
    11    5    6 1
    12    5    7 1
    13    8    9 1
    14    8   38 1
    15    9   14 ar
    16    9   10 ar
    17   10   11 ar
    18   10   39 1
    19   11   12 ar
    20   11   28 1
    21   12   13 ar
    22   13   14 ar
    23   13   15 1
    24   15   16 1
    25   16   21 ar
    26   16   17 ar
    27   17   18 ar
    28   17   40 1
    29   18   19 ar
    30   18   41 1
    31   19   20 ar
    32   19   22 1
    33   20   21 ar
    34   20   42 1
    35   21   43 1
    36   22   23 am
    37   22   44 1
    38   23   24 2
    39   23   25 1
    40   25   27 1
    41   25   26 1
    42   25   45 1
    43   26   27 1
    44   26   46 1
    45   26   47 1
    46   27   48 1
    47   27   49 1
    48   28   32 1
    49   28   29 1
    50   29   30 1
    51   29   50 1
    52   29   51 1
    53   30   52 1
    54   30   53 1
    55   30   61 1
    56   31   32 1
    57   31   54 1
    58   31   55 1
    59   31   61 1
    60   32   56 1
    61   32   57 1
    62   33   58 1
    63   33   59 1
    64   33   60 1
    65   33   61 1
    66   61   62 1
@<TRIPOS>MOLECULE
ZINC18710082
   51    54     0     0     0
SMALL
USER_CHARGES
N-(3,3-dimethylindolin-6-yl)-2-(4-pyridylmethylamino)pyridine-3-carboxamide
@<TRIPOS>ATOM
      1 C1         -0.1736   12.3280    1.7993 C.3       1 <0>        -0.1353
      2 C2          0.1708   11.8132    0.4003 C.3       1 <0>        -0.0256
      3 C3         -1.0658   11.8695   -0.5114 C.3       1 <0>         0.1234
      4 N1         -1.3159   10.4807   -0.9061 N.pl3     1 <0>        -0.7429
      5 C4         -0.3660    9.6387   -0.3256 C.ar      1 <0>         0.2160
      6 C5          0.5375   10.3468    0.4531 C.ar      1 <0>        -0.1735
      7 C6          1.5592    9.6928    1.1152 C.ar      1 <0>        -0.0387
      8 C7          1.6921    8.3220    1.0083 C.ar      1 <0>        -0.1957
      9 C8          0.7942    7.6005    0.2318 C.ar      1 <0>         0.1856
     10 C9         -0.2273    8.2550   -0.4368 C.ar      1 <0>        -0.1821
     11 N2          0.9251    6.2127    0.1203 N.am      1 <0>        -0.6647
     12 C10        -0.1735    5.4372    0.0302 C.2       1 <0>         0.5789
     13 O1         -1.2750    5.9485   -0.0352 O.2       1 <0>        -0.5287
     14 C11        -0.0401    3.9694    0.0111 C.ar      1 <0>        -0.2727
     15 C12         1.2239    3.3691   -0.0284 C.ar      1 <0>         0.0067
     16 C13         1.2952    1.9877   -0.0446 C.ar      1 <0>        -0.2460
     17 C14         0.1281    1.2446   -0.0215 C.ar      1 <0>         0.1889
     18 N3         -1.0535    1.8288    0.0102 N.ar      1 <0>        -0.5475
     19 C15        -1.1794    3.1469    0.0326 C.ar      1 <0>         0.4585
     20 N4         -2.4385    3.7170    0.0712 N.pl3     1 <0>        -0.6966
     21 C16        -3.6235    2.8669    0.2103 C.3       1 <0>         0.1646
     22 C17        -4.8603    3.7278    0.2259 C.ar      1 <0>        -0.0635
     23 C18        -5.3699    4.2164    1.4192 C.ar      1 <0>        -0.1527
     24 C19        -6.5037    5.0063    1.3940 C.ar      1 <0>         0.0990
     25 N5         -7.1042    5.2881    0.2543 N.ar      1 <0>        -0.4796
     26 C20        -6.6504    4.8370   -0.8988 C.ar      1 <0>         0.0984
     27 C21        -5.5189    4.0453   -0.9522 C.ar      1 <0>        -0.1533
     28 C22         1.3163   12.6286   -0.2029 C.3       1 <0>        -0.1347
     29 H1          0.6875   12.2011    2.4554 H         1 <0>         0.0611
     30 H2         -0.4352   13.3847    1.7435 H         1 <0>         0.0600
     31 H3         -1.0186   11.7650    2.1958 H         1 <0>         0.0571
     32 H4         -0.8602   12.4810   -1.3900 H         1 <0>         0.0683
     33 H5         -1.9215   12.2676    0.0338 H         1 <0>         0.0682
     34 H6         -2.0366   10.1891   -1.4861 H         1 <0>         0.4122
     35 H7          2.2565   10.2556    1.7181 H         1 <0>         0.1233
     36 H8          2.4915    7.8130    1.5263 H         1 <0>         0.1249
     37 H9         -0.9211    7.6916   -1.0433 H         1 <0>         0.1338
     38 H10         1.8066    5.8081    0.1078 H         1 <0>         0.4114
     39 H11         2.1214    3.9696   -0.0455 H         1 <0>         0.1354
     40 H12         2.2547    1.4928   -0.0753 H         1 <0>         0.1405
     41 H13         0.1860    0.1663   -0.0342 H         1 <0>         0.1633
     42 H14        -2.5372    4.6797    0.0061 H         1 <0>         0.4269
     43 H15        -3.6739    2.1736   -0.6293 H         1 <0>         0.0815
     44 H16        -3.5601    2.3050    1.1421 H         1 <0>         0.0787
     45 H17        -4.8851    3.9853    2.3562 H         1 <0>         0.1361
     46 H18        -6.9051    5.3935    2.3188 H         1 <0>         0.1583
     47 H19        -7.1692    5.0889   -1.8119 H         1 <0>         0.1582
     48 H20        -5.1525    3.6783   -1.8995 H         1 <0>         0.1363
     49 H21         1.5192   12.2770   -1.2145 H         1 <0>         0.0571
     50 H22         1.0360   13.6815   -0.2335 H         1 <0>         0.0599
     51 H23         2.2099   12.5082    0.4097 H         1 <0>         0.0612
@<TRIPOS>BOND
     1    1    2 1
     2    1   29 1
     3    1   30 1
     4    1   31 1
     5    2    6 1
     6    2    3 1
     7    2   28 1
     8    3    4 1
     9    3   32 1
    10    3   33 1
    11    4    5 1
    12    4   34 1
    13    5   10 ar
    14    5    6 ar
    15    6    7 ar
    16    7    8 ar
    17    7   35 1
    18    8    9 ar
    19    8   36 1
    20    9   10 ar
    21    9   11 1
    22   10   37 1
    23   11   12 am
    24   11   38 1
    25   12   13 2
    26   12   14 1
    27   14   19 ar
    28   14   15 ar
    29   15   16 ar
    30   15   39 1
    31   16   17 ar
    32   16   40 1
    33   17   18 ar
    34   17   41 1
    35   18   19 ar
    36   19   20 1
    37   20   21 1
    38   20   42 1
    39   21   22 1
    40   21   43 1
    41   21   44 1
    42   22   27 ar
    43   22   23 ar
    44   23   24 ar
    45   23   45 1
    46   24   25 ar
    47   24   46 1
    48   25   26 ar
    49   26   27 ar
    50   26   47 1
    51   27   48 1
    52   28   49 1
    53   28   50 1
    54   28   51 1
@<TRIPOS>MOLECULE
ZINC23247639
   69    72     0     0     0
SMALL
USER_CHARGES
1-[4-[(4-ethylpiperazin-1-yl)methyl]-3-(trifluoromethyl)phenyl]-3-[4-(6-methylaminopyrimidin-4-yl)oxyphenyl]urea
@<TRIPOS>ATOM
      1 C1          8.9417    3.3719    8.2172 C.3       1 <0>        -0.1901
      2 C2         10.1498    2.9102    7.3997 C.3       1 <0>        -0.0070
      3 N1          9.9972    3.3533    6.0075 N.4       1 <0>        -0.4011
      4 C3         11.2367    3.1387    5.2477 C.3       1 <0>         0.0016
      5 C4         11.0629    3.6845    3.8284 C.3       1 <0>         0.0271
      6 N2          9.9288    3.0094    3.1822 N.3       1 <0>        -0.5300
      7 C5          8.6893    3.2240    3.9420 C.3       1 <0>         0.0232
      8 C6          8.8631    2.6781    5.3612 C.3       1 <0>        -0.0016
      9 C7          9.7762    3.4524    1.7899 C.3       1 <0>         0.0786
     10 C8          8.7879    2.5601    1.0842 C.ar      1 <0>        -0.0666
     11 C9          7.5022    3.0092    0.8434 C.ar      1 <0>        -0.0932
     12 C10         6.5958    2.1959    0.1923 C.ar      1 <0>        -0.0888
     13 C11         6.9731    0.9214   -0.2106 C.ar      1 <0>         0.1880
     14 C12         8.2646    0.4735    0.0326 C.ar      1 <0>        -0.1043
     15 C13         9.1683    1.2940    0.6793 C.ar      1 <0>        -0.1369
     16 C14        10.5702    0.8086    0.9441 C.3       1 <0>         0.5111
     17 F1         10.7250   -0.4786    0.4184 F         1 <0>        -0.1776
     18 F2         11.4860    1.6739    0.3362 F         1 <0>        -0.1774
     19 F3         10.8008    0.7797    2.3237 F         1 <0>        -0.1628
     20 N3          6.0552    0.0926   -0.8655 N.am      1 <0>        -0.6979
     21 C15         4.7513    0.1311   -0.5266 C.2       1 <0>         0.7117
     22 O1          4.3858    0.8194    0.4067 O.2       1 <0>        -0.5623
     23 N4          3.8526   -0.5934   -1.2222 N.am      1 <0>        -0.6900
     24 C16         2.4863   -0.4790   -0.9335 C.ar      1 <0>         0.1635
     25 C17         1.5516   -0.5518   -1.9576 C.ar      1 <0>        -0.1265
     26 C18         0.2052   -0.4394   -1.6724 C.ar      1 <0>        -0.0923
     27 C19        -0.2137   -0.2543   -0.3628 C.ar      1 <0>         0.0841
     28 C20         0.7198   -0.1815    0.6609 C.ar      1 <0>        -0.0957
     29 C21         2.0665   -0.2932    0.3769 C.ar      1 <0>        -0.1058
     30 O2         -1.5393   -0.1385   -0.0833 O.3       1 <0>        -0.2424
     31 C22        -2.3129   -1.2454   -0.1983 C.ar      1 <0>         0.3836
     32 C23        -3.6894   -1.1637   -0.0277 C.ar      1 <0>        -0.3134
     33 C24        -4.4409   -2.3284   -0.1601 C.ar      1 <0>         0.4631
     34 N5         -3.8165   -3.4721   -0.4341 N.ar      1 <0>        -0.5936
     35 C25        -2.5082   -3.5081   -0.5840 C.ar      1 <0>         0.3760
     36 N6         -1.7644   -2.4263   -0.4707 N.ar      1 <0>        -0.6039
     37 N7         -5.8178   -2.2988   -0.0034 N.pl3     1 <0>        -0.7218
     38 C26        -6.4937   -1.0344    0.2979 C.3       1 <0>         0.0891
     39 H1          9.0560    3.0401    9.2597 H         1 <0>         0.1066
     40 H2          8.0243    2.9380    7.7928 H         1 <0>         0.0798
     41 H3          8.8763    4.4695    8.1868 H         1 <0>         0.0803
     42 H4         11.0672    3.3441    7.8241 H         1 <0>         0.1306
     43 H5         10.2153    1.8126    7.4301 H         1 <0>         0.1269
     44 H6         12.0665    3.6630    5.7442 H         1 <0>         0.1361
     45 H7         11.4577    2.0621    5.2031 H         1 <0>         0.1357
     46 H8         10.8699    4.7665    3.8728 H         1 <0>         0.0625
     47 H9         11.9796    3.4990    3.2494 H         1 <0>         0.1239
     48 H10         8.4684    4.3007    3.9867 H         1 <0>         0.0621
     49 H11         7.8594    2.6998    3.4455 H         1 <0>         0.1239
     50 H12         9.0569    1.5962    5.3178 H         1 <0>         0.1351
     51 H13         7.9470    2.8635    5.9412 H         1 <0>         0.1359
     52 H14         9.4106    4.4897    1.7732 H         1 <0>         0.0663
     53 H15        10.7489    3.3982    1.2791 H         1 <0>         0.1073
     54 H16         7.2082    3.9988    1.1607 H         1 <0>         0.1358
     55 H17         5.5933    2.5489    0.0003 H         1 <0>         0.1466
     56 H18         8.5625   -0.5152   -0.2838 H         1 <0>         0.1447
     57 H19         6.3979   -0.5903   -1.6569 H         1 <0>         0.4387
     58 H20         4.1917   -1.2745   -2.0166 H         1 <0>         0.4355
     59 H21         1.8775   -0.6959   -2.9771 H         1 <0>         0.1334
     60 H22        -0.5220   -0.4960   -2.4689 H         1 <0>         0.1303
     61 H23         0.3932   -0.0371    1.6801 H         1 <0>         0.1327
     62 H24         2.7931   -0.2369    1.1740 H         1 <0>         0.1442
     63 H25        -4.1646   -0.2205    0.1982 H         1 <0>         0.1466
     64 H26        -2.0315   -4.4515   -0.8058 H         1 <0>         0.2000
     65 H27        -6.4030   -3.2246   -0.1053 H         1 <0>         0.4376
     66 H28        -7.5762   -1.2091    0.3856 H         1 <0>         0.0864
     67 H29        -6.3028   -0.3146   -0.5117 H         1 <0>         0.0603
     68 H30        -6.1096   -0.6302    1.2461 H         1 <0>         0.0599
     69 H31         9.7882    4.4332    6.0188 H         1 <0>         0.4364
@<TRIPOS>BOND
     1    1    2 1
     2    1   39 1
     3    1   40 1
     4    1   41 1
     5    2    3 1
     6    2   42 1
     7    2   43 1
     8    3    8 1
     9    3    4 1
    10    3   69 1
    11    4    5 1
    12    4   44 1
    13    4   45 1
    14    5    6 1
    15    5   46 1
    16    5   47 1
    17    6    7 1
    18    6    9 1
    19    7    8 1
    20    7   48 1
    21    7   49 1
    22    8   50 1
    23    8   51 1
    24    9   10 1
    25    9   52 1
    26    9   53 1
    27   10   15 ar
    28   10   11 ar
    29   11   12 ar
    30   11   54 1
    31   12   13 ar
    32   12   55 1
    33   13   14 ar
    34   13   20 1
    35   14   15 ar
    36   14   56 1
    37   15   16 1
    38   16   17 1
    39   16   18 1
    40   16   19 1
    41   20   21 am
    42   20   57 1
    43   21   22 2
    44   21   23 am
    45   23   24 1
    46   23   58 1
    47   24   29 ar
    48   24   25 ar
    49   25   26 ar
    50   25   59 1
    51   26   27 ar
    52   26   60 1
    53   27   28 ar
    54   27   30 1
    55   28   29 ar
    56   28   61 1
    57   29   62 1
    58   30   31 1
    59   31   36 ar
    60   31   32 ar
    61   32   33 ar
    62   32   63 1
    63   33   34 ar
    64   33   37 1
    65   34   35 ar
    66   35   36 ar
    67   35   64 1
    68   37   38 1
    69   37   65 1
    70   38   66 1
    71   38   67 1
    72   38   68 1
@<TRIPOS>MOLECULE
ZINC23247639
   69    72     0     0     0
SMALL
USER_CHARGES
1-[4-[(4-ethylpiperazin-1-yl)methyl]-3-(trifluoromethyl)phenyl]-3-[4-(6-methylaminopyrimidin-4-yl)oxyphenyl]urea
@<TRIPOS>ATOM
      1 C1          8.9417    3.3719    8.2172 C.3       1 <0>        -0.1569
      2 C2         10.1498    2.9102    7.3997 C.3       1 <0>         0.0486
      3 N1          9.9972    3.3533    6.0075 N.3       1 <0>        -0.5379
      4 C3         11.2367    3.1387    5.2477 C.3       1 <0>         0.0250
      5 C4         11.0629    3.6845    3.8284 C.3       1 <0>         0.0004
      6 N2          9.9288    3.0094    3.1822 N.4       1 <0>        -0.4202
      7 C5          8.6893    3.2240    3.9420 C.3       1 <0>        -0.0009
      8 C6          8.8631    2.6781    5.3612 C.3       1 <0>         0.0222
      9 C7          9.7762    3.4524    1.7899 C.3       1 <0>         0.0266
     10 C8          8.7879    2.5601    1.0842 C.ar      1 <0>        -0.1272
     11 C9          7.5022    3.0092    0.8434 C.ar      1 <0>        -0.0630
     12 C10         6.5958    2.1959    0.1923 C.ar      1 <0>        -0.0846
     13 C11         6.9731    0.9214   -0.2106 C.ar      1 <0>         0.2154
     14 C12         8.2646    0.4735    0.0326 C.ar      1 <0>        -0.0955
     15 C13         9.1683    1.2940    0.6793 C.ar      1 <0>        -0.1507
     16 C14        10.5702    0.8086    0.9441 C.3       1 <0>         0.5109
     17 F1         10.7250   -0.4786    0.4184 F         1 <0>        -0.1491
     18 F2         11.4860    1.6739    0.3362 F         1 <0>        -0.1584
     19 F3         10.8008    0.7797    2.3237 F         1 <0>        -0.1724
     20 N3          6.0552    0.0926   -0.8655 N.am      1 <0>        -0.6988
     21 C15         4.7513    0.1311   -0.5266 C.2       1 <0>         0.7114
     22 O1          4.3858    0.8194    0.4067 O.2       1 <0>        -0.5584
     23 N4          3.8526   -0.5934   -1.2222 N.am      1 <0>        -0.6858
     24 C16         2.4863   -0.4790   -0.9335 C.ar      1 <0>         0.1577
     25 C17         1.5516   -0.5518   -1.9576 C.ar      1 <0>        -0.1240
     26 C18         0.2052   -0.4394   -1.6724 C.ar      1 <0>        -0.0926
     27 C19        -0.2137   -0.2543   -0.3628 C.ar      1 <0>         0.0883
     28 C20         0.7198   -0.1815    0.6609 C.ar      1 <0>        -0.0957
     29 C21         2.0665   -0.2932    0.3769 C.ar      1 <0>        -0.1046
     30 O2         -1.5393   -0.1385   -0.0833 O.3       1 <0>        -0.2426
     31 C22        -2.3129   -1.2454   -0.1983 C.ar      1 <0>         0.3832
     32 C23        -3.6894   -1.1637   -0.0277 C.ar      1 <0>        -0.3126
     33 C24        -4.4409   -2.3284   -0.1601 C.ar      1 <0>         0.4635
     34 N5         -3.8165   -3.4721   -0.4341 N.ar      1 <0>        -0.5931
     35 C25        -2.5082   -3.5081   -0.5840 C.ar      1 <0>         0.3762
     36 N6         -1.7644   -2.4263   -0.4707 N.ar      1 <0>        -0.6049
     37 N7         -5.8178   -2.2988   -0.0034 N.pl3     1 <0>        -0.7212
     38 C26        -6.4937   -1.0344    0.2979 C.3       1 <0>         0.0887
     39 H1          9.0560    3.0401    9.2597 H         1 <0>         0.0714
     40 H2          8.0243    2.9380    7.7928 H         1 <0>         0.0562
     41 H3          8.8763    4.4695    8.1868 H         1 <0>         0.0696
     42 H4         11.0672    3.3441    7.8241 H         1 <0>         0.0895
     43 H5         10.2153    1.8126    7.4301 H         1 <0>         0.0455
     44 H6         12.0665    3.6630    5.7442 H         1 <0>         0.1253
     45 H7         11.4577    2.0621    5.2031 H         1 <0>         0.0582
     46 H8         10.8699    4.7665    3.8728 H         1 <0>         0.1369
     47 H9         11.9796    3.4990    3.2494 H         1 <0>         0.1329
     48 H10         8.4684    4.3007    3.9867 H         1 <0>         0.1355
     49 H11         7.8594    2.6998    3.4455 H         1 <0>         0.1312
     50 H12         9.0569    1.5962    5.3178 H         1 <0>         0.0572
     51 H13         7.9470    2.8635    5.9412 H         1 <0>         0.1266
     52 H14         9.4106    4.4897    1.7732 H         1 <0>         0.1472
     53 H15        10.7489    3.3982    1.2791 H         1 <0>         0.1420
     54 H16         7.2082    3.9988    1.1607 H         1 <0>         0.1512
     55 H17         5.5933    2.5489    0.0003 H         1 <0>         0.1583
     56 H18         8.5625   -0.5152   -0.2838 H         1 <0>         0.1556
     57 H19         6.3979   -0.5903   -1.6569 H         1 <0>         0.4440
     58 H20         4.1917   -1.2745   -2.0166 H         1 <0>         0.4371
     59 H21         1.8775   -0.6959   -2.9771 H         1 <0>         0.1338
     60 H22        -0.5220   -0.4960   -2.4689 H         1 <0>         0.1313
     61 H23         0.3932   -0.0371    1.6801 H         1 <0>         0.1341
     62 H24         2.7931   -0.2369    1.1740 H         1 <0>         0.1440
     63 H25        -4.1646   -0.2205    0.1982 H         1 <0>         0.1470
     64 H26        -2.0315   -4.4515   -0.8058 H         1 <0>         0.2001
     65 H27        -6.4030   -3.2246   -0.1053 H         1 <0>         0.4380
     66 H28        -7.5762   -1.2091    0.3856 H         1 <0>         0.0868
     67 H29        -6.3028   -0.3146   -0.5117 H         1 <0>         0.0604
     68 H30        -6.1096   -0.6302    1.2461 H         1 <0>         0.0603
     69 H31        10.1379    1.9295    3.1711 H         1 <0>         0.4253
@<TRIPOS>BOND
     1    1    2 1
     2    1   39 1
     3    1   40 1
     4    1   41 1
     5    2    3 1
     6    2   42 1
     7    2   43 1
     8    3    8 1
     9    3    4 1
    10    4    5 1
    11    4   44 1
    12    4   45 1
    13    5    6 1
    14    5   46 1
    15    5   47 1
    16    6    7 1
    17    6    9 1
    18    6   69 1
    19    7    8 1
    20    7   48 1
    21    7   49 1
    22    8   50 1
    23    8   51 1
    24    9   10 1
    25    9   52 1
    26    9   53 1
    27   10   15 ar
    28   10   11 ar
    29   11   12 ar
    30   11   54 1
    31   12   13 ar
    32   12   55 1
    33   13   14 ar
    34   13   20 1
    35   14   15 ar
    36   14   56 1
    37   15   16 1
    38   16   17 1
    39   16   18 1
    40   16   19 1
    41   20   21 am
    42   20   57 1
    43   21   22 2
    44   21   23 am
    45   23   24 1
    46   23   58 1
    47   24   29 ar
    48   24   25 ar
    49   25   26 ar
    50   25   59 1
    51   26   27 ar
    52   26   60 1
    53   27   28 ar
    54   27   30 1
    55   28   29 ar
    56   28   61 1
    57   29   62 1
    58   30   31 1
    59   31   36 ar
    60   31   32 ar
    61   32   33 ar
    62   32   63 1
    63   33   34 ar
    64   33   37 1
    65   34   35 ar
    66   35   36 ar
    67   35   64 1
    68   37   38 1
    69   37   65 1
    70   38   66 1
    71   38   67 1
    72   38   68 1
@<TRIPOS>MOLECULE
ZINC23247639
   68    71     0     0     0
SMALL
USER_CHARGES
1-[4-[(4-ethylpiperazin-1-yl)methyl]-3-(trifluoromethyl)phenyl]-3-[4-(6-methylaminopyrimidin-4-yl)oxyphenyl]urea
@<TRIPOS>ATOM
      1 C1          8.9417    3.3719    8.2172 C.3       1 <0>        -0.1510
      2 C2         10.1498    2.9102    7.3997 C.3       1 <0>         0.0499
      3 N1          9.9972    3.3533    6.0075 N.3       1 <0>        -0.5402
      4 C3         11.2367    3.1387    5.2477 C.3       1 <0>         0.0569
      5 C4         11.0629    3.6845    3.8284 C.3       1 <0>         0.0590
      6 N2          9.9288    3.0094    3.1822 N.3       1 <0>        -0.5268
      7 C5          8.6893    3.2240    3.9420 C.3       1 <0>         0.0561
      8 C6          8.8631    2.6781    5.3612 C.3       1 <0>         0.0550
      9 C7          9.7762    3.4524    1.7899 C.3       1 <0>         0.0729
     10 C8          8.7879    2.5601    1.0842 C.ar      1 <0>        -0.0447
     11 C9          7.5022    3.0092    0.8434 C.ar      1 <0>        -0.0942
     12 C10         6.5958    2.1959    0.1923 C.ar      1 <0>        -0.0884
     13 C11         6.9731    0.9214   -0.2106 C.ar      1 <0>         0.1720
     14 C12         8.2646    0.4735    0.0326 C.ar      1 <0>        -0.1038
     15 C13         9.1683    1.2940    0.6793 C.ar      1 <0>        -0.1404
     16 C14        10.5702    0.8086    0.9441 C.3       1 <0>         0.5095
     17 F1         10.7250   -0.4786    0.4184 F         1 <0>        -0.1841
     18 F2         11.4860    1.6739    0.3362 F         1 <0>        -0.1795
     19 F3         10.8008    0.7797    2.3237 F         1 <0>        -0.1519
     20 N3          6.0552    0.0926   -0.8655 N.am      1 <0>        -0.6948
     21 C15         4.7513    0.1311   -0.5266 C.2       1 <0>         0.7096
     22 O1          4.3858    0.8194    0.4067 O.2       1 <0>        -0.5587
     23 N4          3.8526   -0.5934   -1.2222 N.am      1 <0>        -0.6930
     24 C16         2.4863   -0.4790   -0.9335 C.ar      1 <0>         0.1697
     25 C17         1.5516   -0.5518   -1.9576 C.ar      1 <0>        -0.1297
     26 C18         0.2052   -0.4394   -1.6724 C.ar      1 <0>        -0.0930
     27 C19        -0.2137   -0.2543   -0.3628 C.ar      1 <0>         0.0783
     28 C20         0.7198   -0.1815    0.6609 C.ar      1 <0>        -0.0936
     29 C21         2.0665   -0.2932    0.3769 C.ar      1 <0>        -0.1059
     30 O2         -1.5393   -0.1385   -0.0833 O.3       1 <0>        -0.2412
     31 C22        -2.3129   -1.2454   -0.1983 C.ar      1 <0>         0.3851
     32 C23        -3.6894   -1.1637   -0.0277 C.ar      1 <0>        -0.3141
     33 C24        -4.4409   -2.3284   -0.1601 C.ar      1 <0>         0.4620
     34 N5         -3.8165   -3.4721   -0.4341 N.ar      1 <0>        -0.5954
     35 C25        -2.5082   -3.5081   -0.5840 C.ar      1 <0>         0.3753
     36 N6         -1.7644   -2.4263   -0.4707 N.ar      1 <0>        -0.6017
     37 N7         -5.8178   -2.2988   -0.0034 N.pl3     1 <0>        -0.7231
     38 C26        -6.4937   -1.0344    0.2979 C.3       1 <0>         0.0898
     39 H1          9.0560    3.0401    9.2597 H         1 <0>         0.0595
     40 H2          8.0243    2.9380    7.7928 H         1 <0>         0.0547
     41 H3          8.8763    4.4695    8.1868 H         1 <0>         0.0631
     42 H4         11.0672    3.3441    7.8241 H         1 <0>         0.0746
     43 H5         10.2153    1.8126    7.4301 H         1 <0>         0.0335
     44 H6         12.0665    3.6630    5.7442 H         1 <0>         0.0800
     45 H7         11.4577    2.0621    5.2031 H         1 <0>         0.0441
     46 H8         10.8699    4.7665    3.8728 H         1 <0>         0.0445
     47 H9         11.9796    3.4990    3.2494 H         1 <0>         0.0809
     48 H10         8.4684    4.3007    3.9867 H         1 <0>         0.0435
     49 H11         7.8594    2.6998    3.4455 H         1 <0>         0.0808
     50 H12         9.0569    1.5962    5.3178 H         1 <0>         0.0425
     51 H13         7.9470    2.8635    5.9412 H         1 <0>         0.0819
     52 H14         9.4106    4.4897    1.7732 H         1 <0>         0.0550
     53 H15        10.7489    3.3982    1.2791 H         1 <0>         0.0962
     54 H16         7.2082    3.9988    1.1607 H         1 <0>         0.1355
     55 H17         5.5933    2.5489    0.0003 H         1 <0>         0.1427
     56 H18         8.5625   -0.5152   -0.2838 H         1 <0>         0.1409
     57 H19         6.3979   -0.5903   -1.6569 H         1 <0>         0.4343
     58 H20         4.1917   -1.2745   -2.0166 H         1 <0>         0.4332
     59 H21         1.8775   -0.6959   -2.9771 H         1 <0>         0.1323
     60 H22        -0.5220   -0.4960   -2.4689 H         1 <0>         0.1282
     61 H23         0.3932   -0.0371    1.6801 H         1 <0>         0.1328
     62 H24         2.7931   -0.2369    1.1740 H         1 <0>         0.1466
     63 H25        -4.1646   -0.2205    0.1982 H         1 <0>         0.1463
     64 H26        -2.0315   -4.4515   -0.8058 H         1 <0>         0.1996
     65 H27        -6.4030   -3.2246   -0.1053 H         1 <0>         0.4362
     66 H28        -7.5762   -1.2091    0.3856 H         1 <0>         0.0851
     67 H29        -6.3028   -0.3146   -0.5117 H         1 <0>         0.0598
     68 H30        -6.1096   -0.6302    1.2461 H         1 <0>         0.0599
@<TRIPOS>BOND
     1    1    2 1
     2    1   39 1
     3    1   40 1
     4    1   41 1
     5    2    3 1
     6    2   42 1
     7    2   43 1
     8    3    8 1
     9    3    4 1
    10    4    5 1
    11    4   44 1
    12    4   45 1
    13    5    6 1
    14    5   46 1
    15    5   47 1
    16    6    7 1
    17    6    9 1
    18    7    8 1
    19    7   48 1
    20    7   49 1
    21    8   50 1
    22    8   51 1
    23    9   10 1
    24    9   52 1
    25    9   53 1
    26   10   15 ar
    27   10   11 ar
    28   11   12 ar
    29   11   54 1
    30   12   13 ar
    31   12   55 1
    32   13   14 ar
    33   13   20 1
    34   14   15 ar
    35   14   56 1
    36   15   16 1
    37   16   17 1
    38   16   18 1
    39   16   19 1
    40   20   21 am
    41   20   57 1
    42   21   22 2
    43   21   23 am
    44   23   24 1
    45   23   58 1
    46   24   29 ar
    47   24   25 ar
    48   25   26 ar
    49   25   59 1
    50   26   27 ar
    51   26   60 1
    52   27   28 ar
    53   27   30 1
    54   28   29 ar
    55   28   61 1
    56   29   62 1
    57   30   31 1
    58   31   36 ar
    59   31   32 ar
    60   32   33 ar
    61   32   63 1
    62   33   34 ar
    63   33   37 1
    64   34   35 ar
    65   35   36 ar
    66   35   64 1
    67   37   38 1
    68   37   65 1
    69   38   66 1
    70   38   67 1
    71   38   68 1
@<TRIPOS>MOLECULE
ZINC13763794
   45    47     0     0     0
SMALL
USER_CHARGES
3-(2-amino-6-phenyl-pyrido[6,5-d]pyrimidin-7-yl)-1-tert-butyl-urea
@<TRIPOS>ATOM
      1 C1         -1.0890    7.6771    1.3039 C.3       1 <0>        -0.1665
      2 C2         -0.3114    8.0808    0.0497 C.3       1 <0>         0.1876
      3 C3         -0.0831    9.5937    0.0561 C.3       1 <0>        -0.1554
      4 C4         -1.1123    7.6912   -1.1944 C.3       1 <0>        -0.1662
      5 N1          0.9814    7.3920    0.0338 N.am      1 <0>        -0.7356
      6 C5          1.0272    6.0450    0.0258 C.2       1 <0>         0.6893
      7 O1         -0.0043    5.4017    0.0317 O.2       1 <0>        -0.5040
      8 N2          2.2166    5.4112    0.0112 N.am      1 <0>        -0.6638
      9 C6          2.2638    4.0247    0.0029 C.ar      1 <0>         0.4702
     10 C7          3.5175    3.3772   -0.0124 C.ar      1 <0>        -0.1612
     11 C8          3.5690    1.9924   -0.0207 C.ar      1 <0>         0.0353
     12 C9          2.3538    1.2883   -0.0134 C.ar      1 <0>        -0.2947
     13 C10         2.3093   -0.1165   -0.0206 C.ar      1 <0>         0.2642
     14 N3          1.1320   -0.7081   -0.0126 N.ar      1 <0>        -0.5710
     15 C11         0.0021   -0.0041    0.0020 C.ar      1 <0>         0.5947
     16 N4         -0.0158    1.3153    0.0093 N.ar      1 <0>        -0.5639
     17 C12         1.1301    2.0077    0.0021 C.ar      1 <0>         0.4265
     18 N5          1.1371    3.3420    0.0091 N.ar      1 <0>        -0.4760
     19 N6         -1.2015   -0.6830    0.0094 N.pl3     1 <0>        -0.8109
     20 C13         4.7693    4.1719   -0.0190 C.ar      1 <0>        -0.0405
     21 C14         4.9387    5.2026   -0.9420 C.ar      1 <0>        -0.1268
     22 C15         6.1035    5.9427   -0.9397 C.ar      1 <0>        -0.1105
     23 C16         7.1066    5.6558   -0.0313 C.ar      1 <0>        -0.1154
     24 C17         6.9463    4.6304    0.8832 C.ar      1 <0>        -0.1109
     25 C18         5.7834    3.8873    0.8940 C.ar      1 <0>        -0.1033
     26 H1         -0.5185    7.9547    2.1902 H         1 <0>         0.0527
     27 H2         -2.0510    8.1896    1.3158 H         1 <0>         0.0642
     28 H3         -1.2517    6.5993    1.2994 H         1 <0>         0.0814
     29 H4          0.4709    9.8813   -0.8375 H         1 <0>         0.0624
     30 H5         -1.0450   10.1062    0.0679 H         1 <0>         0.0766
     31 H6          0.4874    9.8713    0.9424 H         1 <0>         0.0623
     32 H7         -1.2749    6.6134   -1.1990 H         1 <0>         0.0815
     33 H8         -2.0742    8.2037   -1.1826 H         1 <0>         0.0642
     34 H9         -0.5582    7.9788   -2.0880 H         1 <0>         0.0527
     35 H10         1.8045    7.9053    0.0290 H         1 <0>         0.3941
     36 H11         3.0396    5.9245    0.0064 H         1 <0>         0.4155
     37 H12         4.5146    1.4707   -0.0321 H         1 <0>         0.1527
     38 H13         3.2195   -0.6978   -0.0328 H         1 <0>         0.1809
     39 H14        -2.0366   -0.1897    0.0197 H         1 <0>         0.4185
     40 H15        -1.2112   -1.6530    0.0043 H         1 <0>         0.4170
     41 H16         4.1583    5.4243   -1.6548 H         1 <0>         0.1241
     42 H17         6.2343    6.7442   -1.6516 H         1 <0>         0.1276
     43 H18         8.0182    6.2349   -0.0359 H         1 <0>         0.1257
     44 H19         7.7329    4.4106    1.5899 H         1 <0>         0.1275
     45 H20         5.6592    3.0872    1.6087 H         1 <0>         0.1271
@<TRIPOS>BOND
     1    1    2 1
     2    1   26 1
     3    1   27 1
     4    1   28 1
     5    2    3 1
     6    2    4 1
     7    2    5 1
     8    3   29 1
     9    3   30 1
    10    3   31 1
    11    4   32 1
    12    4   33 1
    13    4   34 1
    14    5    6 am
    15    5   35 1
    16    6    7 2
    17    6    8 am
    18    8    9 1
    19    8   36 1
    20    9   18 ar
    21    9   10 ar
    22   10   11 ar
    23   10   20 1
    24   11   12 ar
    25   11   37 1
    26   12   17 ar
    27   12   13 ar
    28   13   14 ar
    29   13   38 1
    30   14   15 ar
    31   15   16 ar
    32   15   19 1
    33   16   17 ar
    34   17   18 ar
    35   19   39 1
    36   19   40 1
    37   20   25 ar
    38   20   21 ar
    39   21   22 ar
    40   21   41 1
    41   22   23 ar
    42   22   42 1
    43   23   24 ar
    44   23   43 1
    45   24   25 ar
    46   24   44 1
    47   25   45 1
