@<TRIPOS>MOLECULE
ZINC24044436
   76    80     0     0     0
SMALL
USER_CHARGES
1-[5-tert-butyl-2-(p-tolyl)pyrazol-3-yl]-3-[4-(2-morpholinoethoxy)-1-naphthyl]urea
@<TRIPOS>ATOM
      1 C1          3.3307    9.5387   -0.3298 C.3       1 <0>        -0.1193
      2 C2          2.0898    8.6848   -0.2813 C.ar      1 <0>        -0.0892
      3 C3          0.9612    9.0673   -0.9828 C.ar      1 <0>        -0.0934
      4 C4         -0.1775    8.2868   -0.9403 C.ar      1 <0>        -0.1062
      5 C5         -0.1884    7.1174   -0.1919 C.ar      1 <0>         0.1564
      6 C6          0.9444    6.7392    0.5163 C.ar      1 <0>        -0.1500
      7 C7          2.0821    7.5207    0.4649 C.ar      1 <0>        -0.0924
      8 N1         -1.3424    6.3233   -0.1469 N.pl3     1 <0>        -0.3448
      9 C8         -1.3788    4.9645   -0.0790 C.2       1 <0>         0.3309
     10 C9         -2.6878    4.5925   -0.0483 C.2       1 <0>        -0.2629
     11 C10        -3.4651    5.7529   -0.1047 C.2       1 <0>         0.1115
     12 N2         -2.6643    6.7861   -0.1672 N.2       1 <0>        -0.2779
     13 C11        -4.9712    5.8052   -0.0954 C.3       1 <0>         0.0134
     14 C12        -5.4824    5.5257    1.3193 C.3       1 <0>        -0.1388
     15 C13        -5.4360    7.1933   -0.5406 C.3       1 <0>        -0.1390
     16 C14        -5.5242    4.7499   -1.0553 C.3       1 <0>        -0.1399
     17 N3         -0.2771    4.1104   -0.0417 N.am      1 <0>        -0.6731
     18 C15        -0.4603    2.7771    0.0314 C.2       1 <0>         0.7165
     19 O1         -1.5862    2.3190    0.0649 O.2       1 <0>        -0.5445
     20 N4          0.6045    1.9516    0.0675 N.am      1 <0>        -0.6819
     21 C16         0.4162    0.5655    0.0407 C.ar      1 <0>         0.1254
     22 C17        -0.6813    0.0024    0.6542 C.ar      1 <0>        -0.0743
     23 C18        -0.8835   -1.3742    0.6299 C.ar      1 <0>        -0.2061
     24 C19         0.0048   -2.2051    0.0082 C.ar      1 <0>         0.1395
     25 C20         1.1426   -1.6672   -0.6254 C.ar      1 <0>        -0.0565
     26 C21         1.3517   -0.2661   -0.6096 C.ar      1 <0>        -0.0251
     27 C22         2.4862    0.2686   -1.2409 C.ar      1 <0>        -0.1232
     28 C23         3.3687   -0.5639   -1.8588 C.ar      1 <0>        -0.0971
     29 C24         3.1636   -1.9422   -1.8742 C.ar      1 <0>        -0.1313
     30 C25         2.0750   -2.4951   -1.2724 C.ar      1 <0>        -0.0739
     31 O2         -0.2080   -3.5475    0.0012 O.3       1 <0>        -0.2916
     32 C26        -1.3823   -4.0216    0.6634 C.3       1 <0>         0.0605
     33 C27        -1.4510   -5.5459    0.5508 C.3       1 <0>         0.0539
     34 N5         -0.3065   -6.1409    1.2538 N.3       1 <0>        -0.5287
     35 C28        -0.1978   -7.5776    0.9617 C.3       1 <0>         0.0167
     36 C29         1.0390   -8.1436    1.6645 C.3       1 <0>         0.0615
     37 O3          0.9456   -7.8818    3.0674 O.3       1 <0>        -0.3849
     38 C30         0.8389   -6.4921    3.3879 C.3       1 <0>         0.0625
     39 C31        -0.3999   -5.9094    2.7026 C.3       1 <0>         0.0120
     40 H1          3.1476   10.4156   -0.9682 H         1 <0>         0.0687
     41 H2          4.1639    8.9515   -0.7434 H         1 <0>         0.0732
     42 H3          3.5863    9.8722    0.6868 H         1 <0>         0.0734
     43 H4          0.9703    9.9770   -1.5648 H         1 <0>         0.1335
     44 H5         -1.0587    8.5861   -1.4884 H         1 <0>         0.1355
     45 H6          0.9374    5.8324    1.1029 H         1 <0>         0.1262
     46 H7          2.9651    7.2245    1.0118 H         1 <0>         0.1343
     47 H8         -3.0598    3.5802    0.0092 H         1 <0>         0.1784
     48 H9         -6.5817    5.5639    1.3261 H         1 <0>         0.0656
     49 H10        -5.0849    6.2845    2.0094 H         1 <0>         0.0565
     50 H11        -5.1481    4.5278    1.6395 H         1 <0>         0.0614
     51 H12        -6.5353    7.2315   -0.5338 H         1 <0>         0.0604
     52 H13        -5.0684    7.3943   -1.5577 H         1 <0>         0.0568
     53 H14        -5.0385    7.9519    0.1496 H         1 <0>         0.0614
     54 H15        -6.6235    4.7882   -1.0484 H         1 <0>         0.0647
     55 H16        -5.1900    3.7520   -0.7351 H         1 <0>         0.0637
     56 H17        -5.1566    4.9509   -2.0724 H         1 <0>         0.0570
     57 H18         0.7414    4.5248   -0.0719 H         1 <0>         0.4294
     58 H19         1.6215    2.3677    0.1180 H         1 <0>         0.4280
     59 H20        -1.3959    0.6376    1.1566 H         1 <0>         0.1450
     60 H21        -1.7537   -1.7925    1.1139 H         1 <0>         0.1296
     61 H22         2.6580    1.3348   -1.2361 H         1 <0>         0.1222
     62 H23         4.2405   -0.1501   -2.3437 H         1 <0>         0.1243
     63 H24         3.8790   -2.5810   -2.3706 H         1 <0>         0.1250
     64 H25         1.9286   -3.5650   -1.2926 H         1 <0>         0.1353
     65 H26        -1.3465   -3.7335    1.7244 H         1 <0>         0.0659
     66 H27        -2.2726   -3.5787    0.1931 H         1 <0>         0.0716
     67 H28        -2.3868   -5.9052    1.0039 H         1 <0>         0.0605
     68 H29        -1.4216   -5.8370   -0.5096 H         1 <0>         0.0912
     69 H30        -1.0977   -8.0949    1.3258 H         1 <0>         0.0437
     70 H31        -0.1044   -7.7249   -0.1244 H         1 <0>         0.0891
     71 H32         1.0925   -9.2291    1.4949 H         1 <0>         0.1001
     72 H33         1.9424   -7.6643    1.2595 H         1 <0>         0.0618
     73 H34         0.7475   -6.3731    4.4776 H         1 <0>         0.0994
     74 H35         1.7375   -5.9645    3.0355 H         1 <0>         0.0616
     75 H36        -0.4553   -4.8284    2.8983 H         1 <0>         0.0869
     76 H37        -1.3031   -6.3997    3.0948 H         1 <0>         0.0443
@<TRIPOS>BOND
     1    1    2 1
     2    1   40 1
     3    1   41 1
     4    1   42 1
     5    2    7 ar
     6    2    3 ar
     7    3    4 ar
     8    3   43 1
     9    4    5 ar
    10    4   44 1
    11    5    6 ar
    12    5    8 1
    13    6    7 ar
    14    6   45 1
    15    7   46 1
    16    8   12 1
    17    8    9 1
    18    9   10 2
    19    9   17 1
    20   10   11 1
    21   10   47 1
    22   11   12 2
    23   11   13 1
    24   13   14 1
    25   13   15 1
    26   13   16 1
    27   14   48 1
    28   14   49 1
    29   14   50 1
    30   15   51 1
    31   15   52 1
    32   15   53 1
    33   16   54 1
    34   16   55 1
    35   16   56 1
    36   17   18 am
    37   17   57 1
    38   18   19 2
    39   18   20 am
    40   20   21 1
    41   20   58 1
    42   21   26 ar
    43   21   22 ar
    44   22   23 ar
    45   22   59 1
    46   23   24 ar
    47   23   60 1
    48   24   25 ar
    49   24   31 1
    50   25   30 ar
    51   25   26 ar
    52   26   27 ar
    53   27   28 ar
    54   27   61 1
    55   28   29 ar
    56   28   62 1
    57   29   30 ar
    58   29   63 1
    59   30   64 1
    60   31   32 1
    61   32   33 1
    62   32   65 1
    63   32   66 1
    64   33   34 1
    65   33   67 1
    66   33   68 1
    67   34   39 1
    68   34   35 1
    69   35   36 1
    70   35   69 1
    71   35   70 1
    72   36   37 1
    73   36   71 1
    74   36   72 1
    75   37   38 1
    76   38   39 1
    77   38   73 1
    78   38   74 1
    79   39   75 1
    80   39   76 1
@<TRIPOS>MOLECULE
ZINC13812765
   54    58     0     0     0
SMALL
USER_CHARGES
6-(2,6-dichlorophenyl)-8-methyl-2-[(4-morpholinophenyl)amino]pyrido[6,5-d]pyrimidin-7-one
@<TRIPOS>ATOM
      1 C1          0.0687    1.0901    0.1116 C.3       1 <0>         0.0701
      2 N1         -0.4256    1.5832    1.3995 N.am      1 <0>        -0.5063
      3 C2         -0.5381    2.9341    1.6116 C.ar      1 <0>         0.4672
      4 C3         -1.0181    3.4257    2.8449 C.ar      1 <0>        -0.2783
      5 C4         -1.3766    2.5289    3.8770 C.2       1 <0>         0.0316
      6 C5         -1.2558    1.1827    3.6582 C.2       1 <0>        -0.1650
      7 C6         -0.7600    0.7060    2.3653 C.2       1 <0>         0.5578
      8 O1         -0.6498   -0.4900    2.1622 O.2       1 <0>        -0.5029
      9 C7         -1.6228    0.2170    4.7202 C.ar      1 <0>        -0.0099
     10 C8         -0.6646   -0.2107    5.6401 C.ar      1 <0>        -0.0065
     11 C9         -1.0148   -1.1067    6.6311 C.ar      1 <0>        -0.1065
     12 C10        -2.3092   -1.5888    6.7060 C.ar      1 <0>        -0.0874
     13 C11        -3.2624   -1.1733    5.7937 C.ar      1 <0>        -0.1064
     14 C12        -2.9268   -0.2732    4.8013 C.ar      1 <0>        -0.0065
     15 Cl1        -4.1243    0.2466    3.6571 Cl        1 <0>        -0.0502
     16 Cl2         0.9621    0.3876    5.5434 Cl        1 <0>        -0.0503
     17 C13        -1.1231    4.8139    3.0190 C.ar      1 <0>         0.2640
     18 N2         -0.7738    5.6040    2.0212 N.ar      1 <0>        -0.5685
     19 C14        -0.3309    5.1056    0.8720 C.ar      1 <0>         0.6086
     20 N3         -0.2147    3.8034    0.6608 N.ar      1 <0>        -0.5957
     21 N4          0.0216    5.9777   -0.1395 N.pl3     1 <0>        -0.6241
     22 C15        -0.1990    7.3525    0.0126 C.ar      1 <0>         0.1313
     23 C16        -1.3055    7.8041    0.7199 C.ar      1 <0>        -0.0798
     24 C17        -1.5204    9.1593    0.8740 C.ar      1 <0>        -0.1488
     25 C18        -0.6355   10.0708    0.3129 C.ar      1 <0>         0.0971
     26 C19         0.4681    9.6192   -0.3990 C.ar      1 <0>        -0.1172
     27 C20         0.6855    8.2640   -0.5489 C.ar      1 <0>        -0.1155
     28 N5         -0.8562   11.4443    0.4644 N.pl3     1 <0>        -0.4872
     29 C21         0.3065   12.0999    1.0805 C.3       1 <0>         0.0198
     30 C22         0.0470   13.6060    1.1727 C.3       1 <0>         0.0611
     31 O2         -1.1567   13.8329    1.9108 O.3       1 <0>        -0.3827
     32 C23        -2.3093   13.2091    1.3385 C.3       1 <0>         0.0615
     33 C24        -2.0737   11.6990    1.2481 C.3       1 <0>         0.0123
     34 H1          0.0953    0.0006    0.1257 H         1 <0>         0.1006
     35 H2          1.0730    1.4758   -0.0638 H         1 <0>         0.0800
     36 H3         -0.5943    1.4272   -0.6852 H         1 <0>         0.0803
     37 H4         -1.7407    2.8999    4.8237 H         1 <0>         0.1502
     38 H5         -0.2753   -1.4351    7.3464 H         1 <0>         0.1437
     39 H6         -2.5767   -2.2930    7.4799 H         1 <0>         0.1454
     40 H7         -4.2711   -1.5537    5.8574 H         1 <0>         0.1437
     41 H8         -1.4818    5.2273    3.9501 H         1 <0>         0.1873
     42 H9          0.4219    5.6381   -0.9552 H         1 <0>         0.4261
     43 H10        -1.9958    7.0952    1.1528 H         1 <0>         0.1359
     44 H11        -2.3786    9.5104    1.4276 H         1 <0>         0.1305
     45 H12         1.1560   10.3280   -0.8357 H         1 <0>         0.1300
     46 H13         1.5438    7.9128   -1.1025 H         1 <0>         0.1287
     47 H14         0.4646   11.6960    2.0805 H         1 <0>         0.0544
     48 H15         1.1916   11.9198    0.4704 H         1 <0>         0.0931
     49 H16        -0.0578   14.0192    0.1695 H         1 <0>         0.0625
     50 H17         0.8818   14.0894    1.6801 H         1 <0>         0.1034
     51 H18        -2.4827   13.6108    0.3402 H         1 <0>         0.0622
     52 H19        -3.1791   13.4048    1.9657 H         1 <0>         0.1035
     53 H20        -2.9261   11.2262    0.7602 H         1 <0>         0.0942
     54 H21        -1.9540   11.2880    2.2505 H         1 <0>         0.0573
@<TRIPOS>BOND
     1    1    2 1
     2    1   34 1
     3    1   35 1
     4    1   36 1
     5    2    7 am
     6    2    3 1
     7    3   20 ar
     8    3    4 ar
     9    4    5 1
    10    4   17 ar
    11    5    6 2
    12    5   37 1
    13    6    7 1
    14    6    9 1
    15    7    8 2
    16    9   14 ar
    17    9   10 ar
    18   10   11 ar
    19   10   16 1
    20   11   12 ar
    21   11   38 1
    22   12   13 ar
    23   12   39 1
    24   13   14 ar
    25   13   40 1
    26   14   15 1
    27   17   18 ar
    28   17   41 1
    29   18   19 ar
    30   19   20 ar
    31   19   21 1
    32   21   22 1
    33   21   42 1
    34   22   27 ar
    35   22   23 ar
    36   23   24 ar
    37   23   43 1
    38   24   25 ar
    39   24   44 1
    40   25   26 ar
    41   25   28 1
    42   26   27 ar
    43   26   45 1
    44   27   46 1
    45   28   33 1
    46   28   29 1
    47   29   30 1
    48   29   47 1
    49   29   48 1
    50   30   31 1
    51   30   49 1
    52   30   50 1
    53   31   32 1
    54   32   33 1
    55   32   51 1
    56   32   52 1
    57   33   53 1
    58   33   54 1
@<TRIPOS>MOLECULE
ZINC43170519
   72    76     0     0     0
SMALL
USER_CHARGES

@<TRIPOS>ATOM
      1 C1          0.2065    1.9793   -0.0342 C.3       1 <0>        -0.1665
      2 C2         -0.0710    0.4975    0.2268 C.3       1 <0>         0.1267
      3 N1          0.6656   -0.3156   -0.7441 N.pl3     1 <0>        -0.3596
      4 C3          1.5251   -1.3103   -0.4474 C.2       1 <0>         0.0834
      5 C4          1.9992   -1.8173   -1.6224 C.2       1 <0>        -0.2084
      6 C5          1.3909   -1.0872   -2.6763 C.2       1 <0>         0.1396
      7 N2          0.5906   -0.1944   -2.1367 N.2       1 <0>        -0.2737
      8 C6          1.6135   -1.2974   -4.1269 C.ar      1 <0>        -0.0306
      9 C7          1.6870   -2.5911   -4.6418 C.ar      1 <0>        -0.0653
     10 C8          1.8936   -2.7840   -5.9912 C.ar      1 <0>        -0.1479
     11 C9          2.0291   -1.6904   -6.8379 C.ar      1 <0>         0.1764
     12 C10         1.9568   -0.4000   -6.3271 C.ar      1 <0>        -0.1210
     13 C11         1.7441   -0.2018   -4.9794 C.ar      1 <0>        -0.0692
     14 N3          2.2392   -1.8888   -8.2064 N.am      1 <0>        -0.6868
     15 C12         1.7319   -1.0162   -9.0995 C.2       1 <0>         0.7025
     16 O1          1.0144   -0.1094   -8.7235 O.2       1 <0>        -0.5649
     17 N4          2.0199   -1.1486  -10.4095 N.am      1 <0>        -0.6331
     18 C13         1.4684   -0.2001  -11.3803 C.3       1 <0>         0.0998
     19 C14         2.8843   -2.2412  -10.8626 C.3       1 <0>         0.0747
     20 C15         2.9696   -2.9253   -1.7705 C.ar      1 <0>         0.1046
     21 C16         2.6505   -4.2210   -1.3636 C.ar      1 <0>        -0.1961
     22 C17         3.5843   -5.2284   -1.5193 C.ar      1 <0>         0.1572
     23 N5          4.7712   -4.9970   -2.0426 N.ar      1 <0>        -0.5068
     24 C18         5.1367   -3.7881   -2.4493 C.ar      1 <0>         0.3000
     25 C19         4.2446   -2.7061   -2.3328 C.ar      1 <0>        -0.1366
     26 C20         4.9036   -1.5649   -2.8480 C.2       1 <0>        -0.1235
     27 C21         6.1360   -1.9531   -3.2596 C.2       1 <0>         0.0868
     28 N6          6.2920   -3.3007   -3.0153 N.pl3     1 <0>        -0.5749
     29 H1          7.0840   -3.8226   -3.2186 H         1 <0>         0.4155
     30 C22         7.1551   -1.0687   -3.8637 C.ar      1 <0>        -0.0002
     31 C23         6.8859    0.2889   -4.0459 C.ar      1 <0>        -0.0681
     32 C24         7.8411    1.1086   -4.6101 C.ar      1 <0>        -0.1012
     33 C25         9.0640    0.5879   -4.9952 C.ar      1 <0>        -0.0993
     34 C26         9.3370   -0.7566   -4.8179 C.ar      1 <0>        -0.1519
     35 C27         8.3926   -1.5862   -4.2490 C.ar      1 <0>        -0.0991
     36 C28        10.6713   -1.3151   -5.2407 C.3       1 <0>         0.0432
     37 N7         11.6166   -1.2266   -4.1197 N.4       1 <0>        -0.3867
     38 C29        12.8795   -1.8784   -4.4916 C.3       1 <0>        -0.0479
     39 C30        11.8691    0.1853   -3.8024 C.3       1 <0>        -0.0538
     40 H2          1.2746    2.1722    0.0663 H         1 <0>         0.0600
     41 H3         -0.1160    2.2372   -1.0429 H         1 <0>         0.0725
     42 H4         -0.3415    2.5843    0.6882 H         1 <0>         0.0790
     43 H5          0.2515    0.2396    1.2356 H         1 <0>         0.1000
     44 H6         -1.1390    0.3046    0.1263 H         1 <0>         0.0906
     45 H7          1.7916   -1.6461    0.5439 H         1 <0>         0.1791
     46 H8          1.5824   -3.4413   -3.9841 H         1 <0>         0.1255
     47 H9          1.9505   -3.7859   -6.3905 H         1 <0>         0.1262
     48 H10         2.0628    0.4482   -6.9871 H         1 <0>         0.1382
     49 H11         1.6832    0.8012   -4.5836 H         1 <0>         0.1279
     50 H12         2.7500   -2.6545   -8.5128 H         1 <0>         0.4060
     51 H13         2.1557    0.6373  -11.5008 H         1 <0>         0.0561
     52 H14         1.3327   -0.6996  -12.3395 H         1 <0>         0.0734
     53 H15         0.5067    0.1678  -11.0228 H         1 <0>         0.0809
     54 H16         2.2747   -3.1143  -11.0953 H         1 <0>         0.0612
     55 H17         3.4271   -1.9289  -11.7548 H         1 <0>         0.0805
     56 H18         3.5944   -2.4933  -10.0750 H         1 <0>         0.0647
     57 H19         1.6842   -4.4347   -0.9313 H         1 <0>         0.1414
     58 H20         3.3348   -6.2306   -1.2035 H         1 <0>         0.1659
     59 H21         4.4984   -0.5653   -2.9034 H         1 <0>         0.1472
     60 H22         5.9318    0.6965   -3.7460 H         1 <0>         0.1417
     61 H23         7.6340    2.1590   -4.7519 H         1 <0>         0.1419
     62 H24         9.8085    1.2340   -5.4365 H         1 <0>         0.1335
     63 H25         8.6088   -2.6347   -4.1062 H         1 <0>         0.1259
     64 H26        10.5522   -2.3580   -5.5341 H         1 <0>         0.1362
     65 H27        11.0541   -0.7416   -6.0849 H         1 <0>         0.1377
     66 H28        13.3025   -1.3801   -5.3638 H         1 <0>         0.1231
     67 H29        13.5809   -1.8128   -3.6598 H         1 <0>         0.1252
     68 H30        12.6920   -2.9261   -4.7270 H         1 <0>         0.1234
     69 H31        10.9321    0.6689   -3.5265 H         1 <0>         0.1242
     70 H32        12.5705    0.2509   -2.9706 H         1 <0>         0.1244
     71 H33        12.2922    0.6837   -4.6746 H         1 <0>         0.1229
     72 H34        11.2250   -1.6880   -3.3123 H         1 <0>         0.4260
@<TRIPOS>BOND
     1    1    2 1
     2    1   40 1
     3    1   41 1
     4    1   42 1
     5    2    3 1
     6    2   43 1
     7    2   44 1
     8    3    7 1
     9    3    4 1
    10    4    5 2
    11    4   45 1
    12    5    6 1
    13    5   20 1
    14    6    7 2
    15    6    8 1
    16    8   13 ar
    17    8    9 ar
    18    9   10 ar
    19    9   46 1
    20   10   11 ar
    21   10   47 1
    22   11   12 ar
    23   11   14 1
    24   12   13 ar
    25   12   48 1
    26   13   49 1
    27   14   15 am
    28   14   50 1
    29   15   16 2
    30   15   17 am
    31   17   18 1
    32   17   19 1
    33   18   51 1
    34   18   52 1
    35   18   53 1
    36   19   54 1
    37   19   55 1
    38   19   56 1
    39   20   25 ar
    40   20   21 ar
    41   21   22 ar
    42   21   57 1
    43   22   23 ar
    44   22   58 1
    45   23   24 ar
    46   24   28 1
    47   24   25 ar
    48   25   26 1
    49   26   27 2
    50   26   59 1
    51   27   28 1
    52   27   30 1
    53   28   29 1
    54   30   35 ar
    55   30   31 ar
    56   31   32 ar
    57   31   60 1
    58   32   33 ar
    59   32   61 1
    60   33   34 ar
    61   33   62 1
    62   34   35 ar
    63   34   36 1
    64   35   63 1
    65   36   37 1
    66   36   64 1
    67   36   65 1
    68   37   38 1
    69   37   39 1
    70   37   72 1
    71   38   66 1
    72   38   67 1
    73   38   68 1
    74   39   69 1
    75   39   70 1
    76   39   71 1
@<TRIPOS>MOLECULE
ZINC13588784
   31    34     0     0     0
SMALL
USER_CHARGES

@<TRIPOS>ATOM
      1 C1         -0.0164    1.3604    0.0095 C.ar      1 <0>        -0.1493
      2 C2          1.1696    2.0826    0.0021 C.ar      1 <0>        -0.0511
      3 C3          2.3856    1.4353   -0.0134 C.ar      1 <0>        -0.1666
      4 C4          2.4314    0.0435   -0.0213 C.ar      1 <0>         0.1925
      5 C5          1.2279   -0.6865   -0.0132 C.ar      1 <0>        -0.1358
      6 C6          0.0021   -0.0041    0.0020 C.ar      1 <0>        -0.0437
      7 C7          1.2577   -2.1030   -0.0206 C.2       1 <0>         0.0471
      8 C8          2.4773   -2.7488   -0.0357 C.2       1 <0>        -0.1447
      9 C9          3.7098   -1.9532   -0.0437 C.2       1 <0>         0.5531
     10 O1          4.7927   -2.5106   -0.0574 O.2       1 <0>        -0.5388
     11 N1          3.6469   -0.6085   -0.0364 N.am      1 <0>        -0.6211
     12 H1          4.4673   -0.0911   -0.0418 H         1 <0>         0.4222
     13 C10         2.5409   -4.2227   -0.0431 C.2       1 <0>         0.3409
     14 N2          3.6941   -4.9619   -0.0525 N.pl3     1 <0>        -0.5811
     15 H2          4.6000   -4.6153   -0.0556 H         1 <0>         0.4339
     16 C11         3.3254   -6.2936   -0.0562 C.ar      1 <0>         0.0503
     17 C12         4.0316   -7.4882   -0.0656 C.ar      1 <0>        -0.1116
     18 C13         3.3485   -8.6863   -0.0675 C.ar      1 <0>        -0.0996
     19 C14         1.9609   -8.7050   -0.0606 C.ar      1 <0>        -0.1271
     20 C15         1.2483   -7.5397   -0.0518 C.ar      1 <0>        -0.0640
     21 C16         1.9193   -6.3123   -0.0488 C.ar      1 <0>         0.0499
     22 N3          1.5013   -5.0233   -0.0361 N.2       1 <0>        -0.4850
     23 H3         -0.9614    1.8829    0.0259 H         1 <0>         0.1352
     24 H4          1.1385    3.1622    0.0081 H         1 <0>         0.1366
     25 H5          3.3021    2.0065   -0.0198 H         1 <0>         0.1374
     26 H6         -0.9252   -0.5577    0.0082 H         1 <0>         0.1419
     27 H7          0.3384   -2.6698   -0.0141 H         1 <0>         0.1618
     28 H8          5.1116   -7.4798   -0.0717 H         1 <0>         0.1241
     29 H9          3.8972   -9.6165   -0.0747 H         1 <0>         0.1315
     30 H10         1.4391   -9.6506   -0.0625 H         1 <0>         0.1309
     31 H11         0.1686   -7.5660   -0.0472 H         1 <0>         0.1305
@<TRIPOS>BOND
     1    1    6 ar
     2    1    2 ar
     3    1   23 1
     4    2    3 ar
     5    2   24 1
     6    3    4 ar
     7    3   25 1
     8    4   11 1
     9    4    5 ar
    10    5    6 ar
    11    5    7 1
    12    6   26 1
    13    7    8 2
    14    7   27 1
    15    8    9 1
    16    8   13 1
    17    9   10 2
    18    9   11 am
    19   11   12 1
    20   13   22 2
    21   13   14 1
    22   14   15 1
    23   14   16 1
    24   16   21 ar
    25   16   17 ar
    26   17   18 ar
    27   17   28 1
    28   18   19 ar
    29   18   29 1
    30   19   20 ar
    31   19   30 1
    32   20   21 ar
    33   20   31 1
    34   21   22 1
@<TRIPOS>MOLECULE
ZINC01493878
   48    50     0     0     0
SMALL
USER_CHARGES

@<TRIPOS>ATOM
      1 C1         -1.0955   -5.0083   -6.9234 C.3       1 <0>         0.0847
      2 N1         -1.5520   -4.3038   -5.7228 N.am      1 <0>        -0.7137
      3 C2         -1.8827   -5.0004   -4.6175 C.2       1 <0>         0.5696
      4 O1         -1.8023   -6.2129   -4.6168 O.2       1 <0>        -0.5284
      5 C3         -2.3445   -4.2878   -3.4031 C.ar      1 <0>         0.1129
      6 C4         -2.6788   -5.0128   -2.2640 C.ar      1 <0>        -0.1883
      7 C5         -3.1110   -4.3279   -1.1310 C.ar      1 <0>         0.1595
      8 C6         -3.1903   -2.9389   -1.1877 C.ar      1 <0>        -0.1766
      9 C7         -2.8404   -2.2885   -2.3571 C.ar      1 <0>         0.1349
     10 N2         -2.4302   -2.9626   -3.4105 N.ar      1 <0>        -0.4815
     11 O2         -3.4471   -4.9979    0.0005 O.3       1 <0>        -0.2437
     12 C8         -3.4462   -6.3570   -0.0383 C.ar      1 <0>         0.0568
     13 C9         -2.2447   -7.0505   -0.0178 C.ar      1 <0>        -0.1074
     14 C10        -2.2431   -8.4307   -0.0577 C.ar      1 <0>        -0.1009
     15 C11        -3.4442   -9.1246   -0.1179 C.ar      1 <0>         0.1671
     16 C12        -4.6464   -8.4301   -0.1379 C.ar      1 <0>        -0.1272
     17 C13        -4.6469   -7.0500   -0.0928 C.ar      1 <0>        -0.0940
     18 N3         -3.4432  -10.5252   -0.1588 N.am      1 <0>        -0.6776
     19 C14        -2.5108  -11.2187    0.5239 C.2       1 <0>         0.7077
     20 O3         -1.6217  -10.6297    1.1080 O.2       1 <0>        -0.5493
     21 N4         -2.5639  -12.5649    0.5593 N.am      1 <0>        -0.6795
     22 C15        -1.6655  -13.2800    1.3600 C.ar      1 <0>         0.1700
     23 C16        -1.2529  -12.7583    2.5792 C.ar      1 <0>        -0.0742
     24 C17        -0.3670  -13.4659    3.3674 C.ar      1 <0>        -0.0871
     25 C18         0.1097  -14.6941    2.9434 C.ar      1 <0>        -0.0077
     26 C19        -0.2993  -15.2159    1.7290 C.ar      1 <0>        -0.1564
     27 C20        -1.1898  -14.5147    0.9394 C.ar      1 <0>        -0.0879
     28 C21         0.2222  -16.5533    1.2702 C.3       1 <0>         0.5112
     29 F1         -0.3299  -16.8663    0.0234 F         1 <0>        -0.1743
     30 F2          1.6160  -16.4983    1.1626 F         1 <0>        -0.1671
     31 F3         -0.1354  -17.5367    2.1987 F         1 <0>        -0.1677
     32 Cl1         1.2234  -15.5812    3.9366 Cl        1 <0>        -0.0394
     33 H1         -0.8760   -4.2843   -7.7081 H         1 <0>         0.0803
     34 H2         -0.1948   -5.5764   -6.6909 H         1 <0>         0.0631
     35 H3         -1.8761   -5.6883   -7.2645 H         1 <0>         0.0629
     36 H4         -1.6162   -3.3359   -5.7233 H         1 <0>         0.4141
     37 H5         -2.6047   -6.0902   -2.2584 H         1 <0>         0.1546
     38 H6         -3.5217   -2.3755   -0.3280 H         1 <0>         0.1523
     39 H7         -2.9005   -1.2112   -2.4052 H         1 <0>         0.1747
     40 H8         -1.3104   -6.5106    0.0290 H         1 <0>         0.1364
     41 H9         -1.3078   -8.9704   -0.0424 H         1 <0>         0.1514
     42 H10        -5.5809   -8.9693   -0.1851 H         1 <0>         0.1386
     43 H11        -5.5820   -6.5098   -0.1039 H         1 <0>         0.1400
     44 H12        -4.1137  -10.9957   -0.6785 H         1 <0>         0.4131
     45 H13        -3.2246  -13.0383    0.0299 H         1 <0>         0.4146
     46 H14        -1.6244  -11.7997    2.9103 H         1 <0>         0.1546
     47 H15        -0.0456  -13.0604    4.3154 H         1 <0>         0.1524
     48 H16        -1.5123  -14.9245   -0.0064 H         1 <0>         0.1525
@<TRIPOS>BOND
     1    1    2 1
     2    1   33 1
     3    1   34 1
     4    1   35 1
     5    2    3 am
     6    2   36 1
     7    3    4 2
     8    3    5 1
     9    5   10 ar
    10    5    6 ar
    11    6    7 ar
    12    6   37 1
    13    7    8 ar
    14    7   11 1
    15    8    9 ar
    16    8   38 1
    17    9   10 ar
    18    9   39 1
    19   11   12 1
    20   12   17 ar
    21   12   13 ar
    22   13   14 ar
    23   13   40 1
    24   14   15 ar
    25   14   41 1
    26   15   16 ar
    27   15   18 1
    28   16   17 ar
    29   16   42 1
    30   17   43 1
    31   18   19 am
    32   18   44 1
    33   19   20 2
    34   19   21 am
    35   21   22 1
    36   21   45 1
    37   22   27 ar
    38   22   23 ar
    39   23   24 ar
    40   23   46 1
    41   24   25 ar
    42   24   47 1
    43   25   26 ar
    44   25   32 1
    45   26   27 ar
    46   26   28 1
    47   27   48 1
    48   28   29 1
    49   28   30 1
    50   28   31 1
@<TRIPOS>MOLECULE
ZINC03989259
   57    59     0     0     0
SMALL
USER_CHARGES

@<TRIPOS>ATOM
      1 C1          4.7940    1.4748   -1.9580 C.3       1 <0>        -0.1866
      2 C2          5.1782    0.4845   -0.8568 C.3       1 <0>        -0.0173
      3 C3          6.5990    2.1351    0.2012 C.3       1 <0>        -0.0111
      4 C4          7.8882    1.3271    0.0399 C.3       1 <0>        -0.1890
      5 C5          4.2763    1.9385    0.8563 C.3       1 <0>        -0.0230
      6 C6          3.2014    0.9315    1.2703 C.3       1 <0>         0.0949
      7 N1          2.0151    1.6500    1.7424 N.am      1 <0>        -0.7291
      8 C7          0.9338    0.9632    2.1616 C.2       1 <0>         0.6111
      9 O1          0.9429   -0.2527    2.1478 O.2       1 <0>        -0.5184
     10 C8         -0.2621    1.6862    2.6309 C.2       1 <0>        -0.2417
     11 C9         -1.3491    2.1107    1.8372 C.2       1 <0>        -0.0585
     12 C10        -2.2403    2.7399    2.6838 C.2       1 <0>        -0.0067
     13 N2         -1.7112    2.7111    3.9576 N.pl3     1 <0>        -0.4914
     14 H1         -2.1295    3.0867    4.7480 H         1 <0>         0.4268
     15 C11        -0.5253    2.0803    3.9303 C.2       1 <0>         0.1152
     16 C12         0.3697    1.8413    5.1189 C.3       1 <0>        -0.0999
     17 C13        -3.4736    3.3170    2.3103 C.2       1 <0>         0.0707
     18 C14        -3.9268    4.4526    2.9516 C.2       1 <0>        -0.1866
     19 C15        -5.2445    5.1082    2.7974 C.ar      1 <0>        -0.0906
     20 C16        -6.3711    4.8169    2.0348 C.ar      1 <0>        -0.0550
     21 C17        -7.4810    5.6350    2.1130 C.ar      1 <0>        -0.0537
     22 C18        -7.4734    6.7373    2.9534 C.ar      1 <0>        -0.0704
     23 C19        -6.3632    7.0298    3.7190 C.ar      1 <0>        -0.1195
     24 C20        -5.2361    6.2179    3.6532 C.ar      1 <0>         0.1435
     25 N3         -4.0089    6.2840    4.3026 N.am      1 <0>        -0.6473
     26 C21        -3.2028    5.2754    3.9301 C.2       1 <0>         0.5595
     27 O2         -2.0702    5.0781    4.3329 O.2       1 <0>        -0.5145
     28 Cl1        -8.8870    5.2828    1.1575 Cl        1 <0>        -0.0549
     29 C22        -1.5083    1.9123    0.3518 C.3       1 <0>        -0.0928
     30 H2          3.9159    2.0409   -1.6474 H         1 <0>         0.0796
     31 H3          5.6233    2.1594   -2.1365 H         1 <0>         0.0812
     32 H4          4.5692    0.9296   -2.8747 H         1 <0>         0.1075
     33 H5          6.0634   -0.0734   -1.1625 H         1 <0>         0.1329
     34 H6          4.3535   -0.2075   -0.6865 H         1 <0>         0.1314
     35 H7          6.4364    2.7416   -0.6898 H         1 <0>         0.1338
     36 H8          6.6840    2.7848    1.0723 H         1 <0>         0.1297
     37 H9          8.0650    0.7412    0.9418 H         1 <0>         0.0813
     38 H10         7.7929    0.6579   -0.8152 H         1 <0>         0.0804
     39 H11         8.7250    2.0065   -0.1219 H         1 <0>         0.1070
     40 H12         3.8925    2.5714    0.0562 H         1 <0>         0.1399
     41 H13         4.5434    2.5576    1.7128 H         1 <0>         0.1368
     42 H14         3.5853    0.2986    2.0704 H         1 <0>         0.0887
     43 H15         2.9343    0.3125    0.4138 H         1 <0>         0.0889
     44 H16         2.0079    2.6199    1.7534 H         1 <0>         0.4098
     45 H17         1.0581    2.6790    5.2297 H         1 <0>         0.0839
     46 H18        -0.2383    1.7492    6.0189 H         1 <0>         0.0780
     47 H19         0.9366    0.9226    4.9679 H         1 <0>         0.0839
     48 H20        -4.0625    2.8701    1.5230 H         1 <0>         0.1587
     49 H21        -6.3755    3.9579    1.3801 H         1 <0>         0.1412
     50 H22        -8.3447    7.3730    3.0099 H         1 <0>         0.1461
     51 H23        -6.3695    7.8913    4.3703 H         1 <0>         0.1406
     52 H24        -3.7653    6.9709    4.9427 H         1 <0>         0.4218
     53 H25        -2.0209    0.9688    0.1641 H         1 <0>         0.0783
     54 H26        -2.0935    2.7326   -0.0637 H         1 <0>         0.0725
     55 H27        -0.5256    1.8919   -0.1194 H         1 <0>         0.0632
     56 N4          5.4731    1.1989    0.4030 N.4       1 <0>        -0.3919
     57 H28         5.7338    0.5137    1.1218 H         1 <0>         0.4310
@<TRIPOS>BOND
     1    1    2 1
     2    1   30 1
     3    1   31 1
     4    1   32 1
     5    2   33 1
     6    2   34 1
     7    2   56 1
     8    3    4 1
     9    3   35 1
    10    3   36 1
    11    3   56 1
    12    4   37 1
    13    4   38 1
    14    4   39 1
    15    5    6 1
    16    5   40 1
    17    5   41 1
    18    5   56 1
    19    6    7 1
    20    6   42 1
    21    6   43 1
    22    7    8 am
    23    7   44 1
    24    8    9 2
    25    8   10 1
    26   10   15 2
    27   10   11 1
    28   11   12 2
    29   11   29 1
    30   12   13 1
    31   12   17 1
    32   13   14 1
    33   13   15 1
    34   15   16 1
    35   16   45 1
    36   16   46 1
    37   16   47 1
    38   17   18 2
    39   17   48 1
    40   18   26 1
    41   18   19 1
    42   19   24 ar
    43   19   20 ar
    44   20   21 ar
    45   20   49 1
    46   21   22 ar
    47   21   28 1
    48   22   23 ar
    49   22   50 1
    50   23   24 ar
    51   23   51 1
    52   24   25 1
    53   25   26 am
    54   25   52 1
    55   26   27 2
    56   29   53 1
    57   29   54 1
    58   29   55 1
    59   56   57 1
@<TRIPOS>MOLECULE
ZINC03989258
   55    58     0     0     0
SMALL
USER_CHARGES

@<TRIPOS>ATOM
      1 C1         -0.3067    1.0920    0.1581 C.3       1 <0>        -0.0934
      2 C2         -0.8831    1.4012    1.5157 C.2       1 <0>        -0.0571
      3 C3         -0.1735    1.6789    2.6674 C.2       1 <0>        -0.0079
      4 N1         -1.0799    1.9046    3.6827 N.pl3     1 <0>        -0.4909
      5 H1         -0.8527    2.1216    4.6004 H         1 <0>         0.4272
      6 C4         -2.3269    1.7762    3.1996 C.2       1 <0>         0.1158
      7 C5         -2.2518    1.4687    1.8531 C.2       1 <0>        -0.2424
      8 C6         -3.3892    1.2494    0.9413 C.2       1 <0>         0.6114
      9 O1         -3.8505    0.1329    0.8022 O.2       1 <0>        -0.5184
     10 N2         -3.9178    2.2864    0.2618 N.am      1 <0>        -0.7297
     11 C7         -5.0481    2.0685   -0.6443 C.3       1 <0>         0.0951
     12 C8         -5.4523    3.3981   -1.2844 C.3       1 <0>        -0.0120
     13 C9         -7.6910    2.4660   -1.5034 C.3       1 <0>        -0.0137
     14 C10        -8.9249    2.7895   -2.3827 C.3       1 <0>        -0.1471
     15 C11        -8.6747    4.2559   -2.8035 C.3       1 <0>        -0.1471
     16 C12        -7.1573    4.4661   -2.6464 C.3       1 <0>        -0.0091
     17 C13        -3.5975    1.9461    3.9920 C.3       1 <0>        -0.0997
     18 C14         1.2328    1.7236    2.7853 C.2       1 <0>         0.0735
     19 C15         1.8245    2.6161    3.6568 C.2       1 <0>        -0.1898
     20 C16         3.2552    2.6996    4.0258 C.ar      1 <0>        -0.0734
     21 C17         4.3824    1.9800    3.6416 C.ar      1 <0>        -0.1002
     22 C18         5.6168    2.3074    4.1699 C.ar      1 <0>         0.0862
     23 C19         5.7298    3.3529    5.0743 C.ar      1 <0>        -0.1140
     24 C20         4.6177    4.0755    5.4555 C.ar      1 <0>        -0.1020
     25 C21         3.3675    3.7601    4.9347 C.ar      1 <0>         0.1280
     26 N3          2.1101    4.3150    5.1462 N.am      1 <0>        -0.6464
     27 C22         1.1689    3.6844    4.4233 C.2       1 <0>         0.5597
     28 O2         -0.0194    3.9517    4.4065 O.2       1 <0>        -0.5162
     29 F1          6.7139    1.6084    3.8055 F         1 <0>        -0.1317
     30 H2         -0.1553    0.0167    0.0639 H         1 <0>         0.0787
     31 H3          0.6483    1.6048    0.0434 H         1 <0>         0.0727
     32 H4         -0.9962    1.4309   -0.6151 H         1 <0>         0.0637
     33 H5         -3.5499    3.1770    0.3728 H         1 <0>         0.4097
     34 H6         -4.7585    1.3634   -1.4234 H         1 <0>         0.0889
     35 H7         -5.8908    1.6642   -0.0834 H         1 <0>         0.0894
     36 H8         -5.7420    4.1032   -0.5053 H         1 <0>         0.1343
     37 H9         -4.6097    3.8023   -1.8453 H         1 <0>         0.1385
     38 H10        -7.5030    1.3925   -1.4842 H         1 <0>         0.1407
     39 H11        -7.8267    2.8520   -0.4931 H         1 <0>         0.1352
     40 H12        -9.8442    2.7061   -1.8030 H         1 <0>         0.1167
     41 H13        -8.9578    2.1379   -3.2559 H         1 <0>         0.0994
     42 H14        -9.2206    4.9356   -2.1493 H         1 <0>         0.1035
     43 H15        -8.9722    4.4078   -3.8411 H         1 <0>         0.1056
     44 H16        -6.9647    5.2403   -1.9037 H         1 <0>         0.1315
     45 H17        -6.7206    4.7496   -3.6040 H         1 <0>         0.1349
     46 H18        -3.9158    2.9877    3.9492 H         1 <0>         0.0838
     47 H19        -4.3763    1.3106    3.5705 H         1 <0>         0.0838
     48 H20        -3.4193    1.6629    5.0294 H         1 <0>         0.0782
     49 H21         1.8457    1.0596    2.1938 H         1 <0>         0.1590
     50 H22         4.2923    1.1660    2.9375 H         1 <0>         0.1437
     51 H23         6.6971    3.6040    5.4837 H         1 <0>         0.1485
     52 H24         4.7184    4.8877    6.1602 H         1 <0>         0.1415
     53 H25         1.9347    5.0620    5.7397 H         1 <0>         0.4217
     54 N4         -6.6121    3.1829   -2.2012 N.4       1 <0>        -0.3913
     55 H26        -6.3020    2.6373   -3.0138 H         1 <0>         0.4332
@<TRIPOS>BOND
     1    1    2 1
     2    1   30 1
     3    1   31 1
     4    1   32 1
     5    2    7 1
     6    2    3 2
     7    3    4 1
     8    3   18 1
     9    4    5 1
    10    4    6 1
    11    6    7 2
    12    6   17 1
    13    7    8 1
    14    8    9 2
    15    8   10 am
    16   10   11 1
    17   10   33 1
    18   11   12 1
    19   11   34 1
    20   11   35 1
    21   12   36 1
    22   12   37 1
    23   12   54 1
    24   13   14 1
    25   13   38 1
    26   13   39 1
    27   13   54 1
    28   14   15 1
    29   14   40 1
    30   14   41 1
    31   15   16 1
    32   15   42 1
    33   15   43 1
    34   16   44 1
    35   16   45 1
    36   16   54 1
    37   17   46 1
    38   17   47 1
    39   17   48 1
    40   18   19 2
    41   18   49 1
    42   19   27 1
    43   19   20 1
    44   20   25 ar
    45   20   21 ar
    46   21   22 ar
    47   21   50 1
    48   22   23 ar
    49   22   29 1
    50   23   24 ar
    51   23   51 1
    52   24   25 ar
    53   24   52 1
    54   25   26 1
    55   26   27 am
    56   26   53 1
    57   27   28 2
    58   54   55 1
@<TRIPOS>MOLECULE
ZINC13493833
   51    53     0     0     0
SMALL
USER_CHARGES
N-(2-dimethylaminoethyl)-5-[(Z)-(5-fluoro-2-oxo-indolin-3-ylidene)methyl]-2,4-dimethyl-1H-pyrrole-3-carboxamide
@<TRIPOS>ATOM
      1 C1         -1.4553    2.4940   -2.4659 C.3       1 <0>        -0.0932
      2 C2         -1.9834    2.4657   -1.0547 C.2       1 <0>        -0.0579
      3 C3         -3.2047    2.9443   -0.6230 C.2       1 <0>        -0.0071
      4 N1         -3.2905    2.7289    0.7369 N.pl3     1 <0>        -0.4911
      5 H1         -4.0437    2.9723    1.2976 H         1 <0>         0.4270
      6 C4         -2.1665    2.1282    1.1619 C.2       1 <0>         0.1155
      7 C5         -1.3262    1.9420    0.0792 C.2       1 <0>        -0.2422
      8 C6          0.0094    1.3186    0.1057 C.2       1 <0>         0.6113
      9 O1          0.1241    0.1194   -0.0604 O.2       1 <0>        -0.5183
     10 N2          1.1039    2.0786    0.3085 N.am      1 <0>        -0.7296
     11 C7          2.4317    1.4599    0.3288 C.3       1 <0>         0.0929
     12 C8          3.4917    2.5354    0.5749 C.3       1 <0>        -0.0185
     13 C9          5.8796    2.9358    0.5916 C.3       1 <0>        -0.0418
     14 C10         4.9663    1.0135    1.7462 C.3       1 <0>        -0.0499
     15 C11        -1.8705    1.7234    2.5830 C.3       1 <0>        -0.0998
     16 C12        -4.1899    3.5533   -1.4306 C.2       1 <0>         0.0727
     17 C13        -4.9714    4.5694   -0.9180 C.2       1 <0>        -0.1886
     18 C14        -6.1373    5.2184   -1.5579 C.ar      1 <0>        -0.0738
     19 C15        -6.7856    5.0283   -2.7742 C.ar      1 <0>        -0.1000
     20 C16        -7.8825    5.8056   -3.0945 C.ar      1 <0>         0.0862
     21 C17        -8.3367    6.7664   -2.2032 C.ar      1 <0>        -0.1138
     22 C18        -7.7031    6.9568   -0.9922 C.ar      1 <0>        -0.1021
     23 C19        -6.5980    6.1839   -0.6529 C.ar      1 <0>         0.1282
     24 N3         -5.7903    6.1706    0.4791 N.am      1 <0>        -0.6466
     25 C20        -4.8216    5.2447    0.3783 C.2       1 <0>         0.5595
     26 O2         -3.9685    5.0073    1.2147 O.2       1 <0>        -0.5156
     27 F1         -8.5124    5.6299   -4.2767 F         1 <0>        -0.1317
     28 H2         -1.7536    1.5823   -2.9837 H         1 <0>         0.0785
     29 H3         -1.8630    3.3589   -2.9891 H         1 <0>         0.0727
     30 H4         -0.3676    2.5610   -2.4455 H         1 <0>         0.0635
     31 H5          1.0124    3.0351    0.4409 H         1 <0>         0.4101
     32 H6          2.4748    0.7181    1.1263 H         1 <0>         0.0892
     33 H7          2.6214    0.9752   -0.6289 H         1 <0>         0.0889
     34 H8          3.4487    3.2772   -0.2226 H         1 <0>         0.1369
     35 H9          3.3020    3.0201    1.5326 H         1 <0>         0.1386
     36 H10         5.7757    3.5694    1.4724 H         1 <0>         0.1243
     37 H11         6.8549    2.4493    0.6070 H         1 <0>         0.1259
     38 H12         5.7921    3.5460   -0.3073 H         1 <0>         0.1230
     39 H13         4.2148    0.2262    1.6867 H         1 <0>         0.1243
     40 H14         5.9610    0.5677    1.7371 H         1 <0>         0.1264
     41 H15         4.8293    1.5775    2.6688 H         1 <0>         0.1253
     42 H16        -1.3727    2.5447    3.0986 H         1 <0>         0.0839
     43 H17        -2.8030    1.4852    3.0947 H         1 <0>         0.0782
     44 H18        -1.2217    0.8476    2.5837 H         1 <0>         0.0838
     45 H19        -4.3321    3.2242   -2.4494 H         1 <0>         0.1589
     46 H20        -6.4300    4.2802   -3.4673 H         1 <0>         0.1437
     47 H21        -9.1944    7.3708   -2.4591 H         1 <0>         0.1485
     48 H22        -8.0661    7.7080   -0.3064 H         1 <0>         0.1415
     49 H23        -5.9107    6.7552    1.2437 H         1 <0>         0.4217
     50 N4          4.8260    1.8994    0.5714 N.4       1 <0>        -0.3942
     51 H24         4.9260    1.3387   -0.2829 H         1 <0>         0.4344
@<TRIPOS>BOND
     1    1    2 1
     2    1   28 1
     3    1   29 1
     4    1   30 1
     5    2    7 1
     6    2    3 2
     7    3    4 1
     8    3   16 1
     9    4    5 1
    10    4    6 1
    11    6    7 2
    12    6   15 1
    13    7    8 1
    14    8    9 2
    15    8   10 am
    16   10   11 1
    17   10   31 1
    18   11   12 1
    19   11   32 1
    20   11   33 1
    21   12   34 1
    22   12   35 1
    23   12   50 1
    24   13   36 1
    25   13   37 1
    26   13   38 1
    27   13   50 1
    28   14   39 1
    29   14   40 1
    30   14   41 1
    31   14   50 1
    32   15   42 1
    33   15   43 1
    34   15   44 1
    35   16   17 2
    36   16   45 1
    37   17   25 1
    38   17   18 1
    39   18   23 ar
    40   18   19 ar
    41   19   20 ar
    42   19   46 1
    43   20   21 ar
    44   20   27 1
    45   21   22 ar
    46   21   47 1
    47   22   23 ar
    48   22   48 1
    49   23   24 1
    50   24   25 am
    51   24   49 1
    52   25   26 2
    53   50   51 1
@<TRIPOS>MOLECULE
ZINC21982951
   60    63     0     0     0
SMALL
USER_CHARGES

@<TRIPOS>ATOM
      1 C1         -2.0700    1.6928    0.2333 C.3       1 <0>        -0.1170
      2 C2         -1.6482    0.2604    0.0301 C.ar      1 <0>        -0.0813
      3 C3         -1.8479   -0.3525   -1.1919 C.ar      1 <0>        -0.1034
      4 C4         -1.4615   -1.6665   -1.3798 C.ar      1 <0>        -0.0990
      5 C5         -0.8738   -2.3725   -0.3459 C.ar      1 <0>        -0.1046
      6 C6         -0.6714   -1.7660    0.8791 C.ar      1 <0>        -0.0220
      7 C7         -1.0534   -0.4428    1.0688 C.ar      1 <0>         0.1347
      8 N1         -0.8441    0.1769    2.3055 N.am      1 <0>        -0.6659
      9 C8         -1.2819   -0.4110    3.4365 C.2       1 <0>         0.6018
     10 O1         -1.7689   -1.5261    3.3939 O.2       1 <0>        -0.4722
     11 C9         -1.1720    0.2905    4.7149 C.2       1 <0>        -0.2635
     12 C10        -1.5472   -0.1201    5.9866 C.2       1 <0>         0.1512
     13 N2         -1.3262    0.7270    6.9599 N.2       1 <0>        -0.5510
     14 C11        -0.7756    1.9070    6.7361 C.2       1 <0>         0.2513
     15 S1         -0.5107    1.9100    5.0742 S.3       1 <0>         0.2445
     16 N3         -0.4817    2.8997    7.6498 N.pl3     1 <0>        -0.5870
     17 C12        -0.6908    2.6801    9.0050 C.ar      1 <0>         0.4543
     18 C13        -1.0534    1.4192    9.4679 C.ar      1 <0>        -0.2926
     19 C14        -1.2512    1.2508   10.8352 C.ar      1 <0>         0.4935
     20 N4         -1.0875    2.2952   11.6453 N.ar      1 <0>        -0.5328
     21 C15        -0.7435    3.4737   11.1677 C.ar      1 <0>         0.4541
     22 N5         -0.5417    3.6719    9.8809 N.ar      1 <0>        -0.5672
     23 C16        -0.5694    4.6273   12.1217 C.3       1 <0>        -0.1251
     24 N6         -1.6138    0.0143   11.3464 N.pl3     1 <0>        -0.5370
     25 C17        -2.0559   -0.1253   12.7422 C.3       1 <0>         0.1090
     26 C18        -3.3866   -0.8852   12.7576 C.3       1 <0>         0.0383
     27 N7         -3.2335   -2.1493   12.0251 N.3       1 <0>        -0.5289
     28 C19        -2.9165   -1.9105   10.6107 C.3       1 <0>         0.0343
     29 C20        -1.5725   -1.1917   10.5056 C.3       1 <0>         0.1057
     30 C21        -4.4334   -2.9856   12.1619 C.3       1 <0>         0.0545
     31 C22        -4.1483   -4.3816   11.6043 C.3       1 <0>         0.0776
     32 O2         -3.1500   -5.0191   12.4038 O.3       1 <0>        -0.5606
     33 Cl1         0.0658   -2.6526    2.1768 Cl        1 <0>        -0.0453
     34 H1         -1.2464    2.3553   -0.0328 H         1 <0>         0.0773
     35 H2         -2.9308    1.9112   -0.3987 H         1 <0>         0.0785
     36 H3         -2.3379    1.8478    1.2784 H         1 <0>         0.0640
     37 H4         -2.3069    0.1956   -2.0014 H         1 <0>         0.1372
     38 H5         -1.6193   -2.1430   -2.3361 H         1 <0>         0.1391
     39 H6         -0.5731   -3.3989   -0.4959 H         1 <0>         0.1403
     40 H7         -0.3838    1.0296    2.3489 H         1 <0>         0.4083
     41 H8         -1.9972   -1.0858    6.1634 H         1 <0>         0.2027
     42 H9         -0.1293    3.7505    7.3451 H         1 <0>         0.4460
     43 H10        -1.1784    0.5927    8.7841 H         1 <0>         0.2218
     44 H11         0.4644    4.6619   12.4652 H         1 <0>         0.1245
     45 H12        -0.8146    5.5596   11.6130 H         1 <0>         0.1071
     46 H13        -1.2322    4.4948   12.9768 H         1 <0>         0.1273
     47 H14        -1.3096   -0.6823   13.3087 H         1 <0>         0.0989
     48 H15        -2.1929    0.8619   13.1834 H         1 <0>         0.1094
     49 H16        -3.6740   -1.0944   13.7880 H         1 <0>         0.1036
     50 H17        -4.1569   -0.2794   12.2806 H         1 <0>         0.0428
     51 H18        -2.8631   -2.8634   10.0841 H         1 <0>         0.1043
     52 H19        -3.6935   -1.2904   10.1636 H         1 <0>         0.0450
     53 H20        -1.3900   -0.9091    9.4688 H         1 <0>         0.1029
     54 H21        -0.7788   -1.8532   10.8529 H         1 <0>         0.1042
     55 H22        -4.7041   -3.0633   13.2149 H         1 <0>         0.0912
     56 H23        -5.2561   -2.5340   11.6075 H         1 <0>         0.0533
     57 H24        -5.0627   -4.9745   11.6240 H         1 <0>         0.0547
     58 H25        -3.7921   -4.2970   10.5776 H         1 <0>         0.0454
     59 H26        -2.9188   -5.9101   12.1076 H         1 <0>         0.3805
     60 H27        -0.2852    4.5531    9.5669 H         1 <0>         0.4414
@<TRIPOS>BOND
     1    1    2 1
     2    1   34 1
     3    1   35 1
     4    1   36 1
     5    2    7 ar
     6    2    3 ar
     7    3    4 ar
     8    3   37 1
     9    4    5 ar
    10    4   38 1
    11    5    6 ar
    12    5   39 1
    13    6    7 ar
    14    6   33 1
    15    7    8 1
    16    8    9 am
    17    8   40 1
    18    9   10 2
    19    9   11 1
    20   11   15 1
    21   11   12 2
    22   12   13 1
    23   12   41 1
    24   13   14 2
    25   14   15 1
    26   14   16 1
    27   16   17 1
    28   16   42 1
    29   17   22 ar
    30   17   18 ar
    31   18   19 ar
    32   18   43 1
    33   19   20 ar
    34   19   24 1
    35   20   21 ar
    36   21   22 ar
    37   21   23 1
    38   22   60 1
    39   23   44 1
    40   23   45 1
    41   23   46 1
    42   24   29 1
    43   24   25 1
    44   25   26 1
    45   25   47 1
    46   25   48 1
    47   26   27 1
    48   26   49 1
    49   26   50 1
    50   27   28 1
    51   27   30 1
    52   28   29 1
    53   28   51 1
    54   28   52 1
    55   29   53 1
    56   29   54 1
    57   30   31 1
    58   30   55 1
    59   30   56 1
    60   31   32 1
    61   31   57 1
    62   31   58 1
    63   32   59 1
@<TRIPOS>MOLECULE
ZINC21982951
   60    63     0     0     0
SMALL
USER_CHARGES

@<TRIPOS>ATOM
      1 C1          3.2739    6.6585    1.8418 C.3       1 <0>        -0.1168
      2 C2          2.5810    7.9910    1.9663 C.ar      1 <0>        -0.0823
      3 C3          2.8983    9.0189    1.0995 C.ar      1 <0>        -0.1038
      4 C4          2.2635   10.2419    1.2126 C.ar      1 <0>        -0.1008
      5 C5          1.3088   10.4411    2.1933 C.ar      1 <0>        -0.1049
      6 C6          0.9869    9.4175    3.0639 C.ar      1 <0>        -0.0226
      7 C7          1.6192    8.1849    2.9486 C.ar      1 <0>         0.1373
      8 N1          1.2913    7.1440    3.8238 N.am      1 <0>        -0.6678
      9 C8          1.3128    7.3511    5.1554 C.2       1 <0>         0.6036
     10 O1          1.5184    8.4680    5.5945 O.2       1 <0>        -0.4759
     11 C9          1.0891    6.2346    6.0728 C.2       1 <0>        -0.2694
     12 C10         1.0619    6.2190    7.4604 C.2       1 <0>         0.1522
     13 N2          0.8357    5.0596    8.0247 N.2       1 <0>        -0.5060
     14 C11         0.6446    3.9678    7.3056 C.2       1 <0>         0.2464
     15 S1          0.7674    4.5141    5.7185 S.3       1 <0>         0.2029
     16 N3          0.3973    2.6842    7.7505 N.pl3     1 <0>        -0.5650
     17 C12         0.2197    2.4414    9.1063 C.ar      1 <0>         0.4999
     18 C13        -0.1342    1.1736    9.5555 C.ar      1 <0>        -0.3181
     19 C14        -0.3003    0.9817   10.9244 C.ar      1 <0>         0.4940
     20 N4         -0.1157    2.0114   11.7481 N.ar      1 <0>        -0.5712
     21 C15         0.2193    3.1978   11.2829 C.ar      1 <0>         0.4509
     22 N5          0.3911    3.4178    9.9956 N.ar      1 <0>        -0.4879
     23 C16         0.4179    4.3344   12.2523 C.3       1 <0>        -0.1253
     24 N6         -0.6531   -0.2629   11.4224 N.pl3     1 <0>        -0.5744
     25 C17        -0.9639   -0.4449   12.8484 C.3       1 <0>         0.1013
     26 C18        -2.3114   -1.1652   12.9649 C.3       1 <0>         0.0387
     27 N7         -2.2712   -2.4031   12.1749 N.3       1 <0>        -0.5277
     28 C19        -2.0835   -2.1176   10.7462 C.3       1 <0>         0.0305
     29 C20        -0.7325   -1.4351   10.5377 C.3       1 <0>         0.1149
     30 C21        -3.4796   -3.2085   12.3965 C.3       1 <0>         0.0543
     31 C22        -3.2958   -4.5889   11.7629 C.3       1 <0>         0.0774
     32 O2         -2.2472   -5.2869   12.4378 O.3       1 <0>        -0.5615
     33 Cl1        -0.2110    9.6681    4.2952 Cl        1 <0>        -0.0453
     34 H1          2.7121    6.0191    1.1609 H         1 <0>         0.0767
     35 H2          4.2810    6.8077    1.4524 H         1 <0>         0.0779
     36 H3          3.3298    6.1850    2.8220 H         1 <0>         0.0648
     37 H4          3.6435    8.8670    0.3327 H         1 <0>         0.1365
     38 H5          2.5139   11.0437    0.5337 H         1 <0>         0.1383
     39 H6          0.8148   11.3976    2.2790 H         1 <0>         0.1396
     40 H7          1.0484    6.2731    3.4723 H         1 <0>         0.4083
     41 H8          1.2191    7.1147    8.0430 H         1 <0>         0.1979
     42 H9          0.3477    1.9521    7.1161 H         1 <0>         0.4525
     43 H10        -0.2767    0.3593    8.8606 H         1 <0>         0.1835
     44 H11         1.4596    4.3615   12.5720 H         1 <0>         0.1250
     45 H12         0.1626    5.2758   11.7656 H         1 <0>         0.1301
     46 H13        -0.2249    4.1881   13.1203 H         1 <0>         0.1049
     47 H14        -0.1857   -1.0458   13.3190 H         1 <0>         0.1119
     48 H15        -1.0251    0.5276   13.3369 H         1 <0>         0.0843
     49 H16        -2.5057   -1.4068   14.0099 H         1 <0>         0.1076
     50 H17        -3.1034   -0.5184   12.5874 H         1 <0>         0.0465
     51 H18        -2.1124   -3.0499   10.1822 H         1 <0>         0.1076
     52 H19        -2.8786   -1.4576   10.3996 H         1 <0>         0.0467
     53 H20        -0.6409   -1.1170    9.4992 H         1 <0>         0.1034
     54 H21         0.0684   -2.1330   10.7819 H         1 <0>         0.1075
     55 H22        -3.6507   -3.3200   13.4672 H         1 <0>         0.0925
     56 H23        -4.3362   -2.7111   11.9416 H         1 <0>         0.0553
     57 H24        -4.2233   -5.1548   11.8494 H         1 <0>         0.0565
     58 H25        -3.0370   -4.4741   10.7103 H         1 <0>         0.0456
     59 H26        -2.0752   -6.1719   12.0881 H         1 <0>         0.3821
     60 H27        -0.2297    1.8867   12.7033 H         1 <0>         0.4392
@<TRIPOS>BOND
     1    1    2 1
     2    1   34 1
     3    1   35 1
     4    1   36 1
     5    2    7 ar
     6    2    3 ar
     7    3    4 ar
     8    3   37 1
     9    4    5 ar
    10    4   38 1
    11    5    6 ar
    12    5   39 1
    13    6    7 ar
    14    6   33 1
    15    7    8 1
    16    8    9 am
    17    8   40 1
    18    9   10 2
    19    9   11 1
    20   11   15 1
    21   11   12 2
    22   12   13 1
    23   12   41 1
    24   13   14 2
    25   14   15 1
    26   14   16 1
    27   16   17 1
    28   16   42 1
    29   17   18 ar
    30   17   22 ar
    31   18   43 1
    32   18   19 ar
    33   19   24 1
    34   19   20 ar
    35   20   60 1
    36   20   21 ar
    37   21   23 1
    38   21   22 ar
    39   23   44 1
    40   23   45 1
    41   23   46 1
    42   24   29 1
    43   24   25 1
    44   25   26 1
    45   25   47 1
    46   25   48 1
    47   26   27 1
    48   26   49 1
    49   26   50 1
    50   27   28 1
    51   27   30 1
    52   28   29 1
    53   28   51 1
    54   28   52 1
    55   29   53 1
    56   29   54 1
    57   30   31 1
    58   30   55 1
    59   30   56 1
    60   31   32 1
    61   31   57 1
    62   31   58 1
    63   32   59 1
@<TRIPOS>MOLECULE
ZINC21982951
   59    62     0     0     0
SMALL
USER_CHARGES

@<TRIPOS>ATOM
      1 C1          3.4106    6.6420    1.8847 C.3       1 <0>        -0.1165
      2 C2          2.6976    7.9659    1.9845 C.ar      1 <0>        -0.0852
      3 C3          3.0204    8.9921    1.1176 C.ar      1 <0>        -0.1055
      4 C4          2.3672   10.2073    1.2080 C.ar      1 <0>        -0.1070
      5 C5          1.3885   10.4004    2.1660 C.ar      1 <0>        -0.1064
      6 C6          1.0609    9.3785    3.0365 C.ar      1 <0>        -0.0243
      7 C7          1.7118    8.1536    2.9438 C.ar      1 <0>         0.1460
      8 N1          1.3783    7.1144    3.8189 N.am      1 <0>        -0.6734
      9 C8          1.3676    7.3308    5.1492 C.2       1 <0>         0.6131
     10 O1          1.5489    8.4533    5.5848 O.2       1 <0>        -0.4899
     11 C9          1.1384    6.2176    6.0693 C.2       1 <0>        -0.3092
     12 C10         1.0807    6.2111    7.4561 C.2       1 <0>         0.1722
     13 N2          0.8573    5.0526    8.0233 N.2       1 <0>        -0.5180
     14 C11         0.6966    3.9535    7.3079 C.2       1 <0>         0.3121
     15 S1          0.8472    4.4907    5.7202 S.3       1 <0>         0.1340
     16 N3          0.4564    2.6698    7.7563 N.pl3     1 <0>        -0.5904
     17 C12         0.2490    2.4343    9.1091 C.ar      1 <0>         0.4412
     18 C13        -0.1036    1.1661    9.5586 C.ar      1 <0>        -0.3412
     19 C14        -0.3003    0.9817   10.9244 C.ar      1 <0>         0.4686
     20 N4         -0.1450    2.0186   11.7452 N.ar      1 <0>        -0.5923
     21 C15         0.1898    3.2050   11.2799 C.ar      1 <0>         0.3946
     22 N5          0.3901    3.4182    9.9956 N.ar      1 <0>        -0.5459
     23 C16         0.3546    4.3498   12.2460 C.3       1 <0>        -0.0834
     24 N6         -0.6531   -0.2629   11.4224 N.pl3     1 <0>        -0.5966
     25 C17        -1.0693   -0.4249   12.8237 C.3       1 <0>         0.1300
     26 C18        -2.3993   -1.1856   12.8517 C.3       1 <0>         0.0401
     27 N7         -2.2595   -2.4378   12.0965 N.3       1 <0>        -0.5276
     28 C19        -1.9688   -2.1765   10.6804 C.3       1 <0>         0.0363
     29 C20        -0.6270   -1.4554   10.5619 C.3       1 <0>         0.1269
     30 C21        -3.4565   -3.2768   12.2420 C.3       1 <0>         0.0537
     31 C22        -3.1814   -4.6636   11.6572 C.3       1 <0>         0.0792
     32 O2         -2.1684   -5.3132   12.4279 O.3       1 <0>        -0.5589
     33 Cl1        -0.1672    9.6214    4.2392 Cl        1 <0>        -0.0433
     34 H1          2.8725    5.9906    1.1961 H         1 <0>         0.0754
     35 H2          4.4240    6.8020    1.5166 H         1 <0>         0.0754
     36 H3          3.4510    6.1760    2.8692 H         1 <0>         0.0676
     37 H4          3.7844    8.8450    0.3685 H         1 <0>         0.1337
     38 H5          2.6220   11.0077    0.5292 H         1 <0>         0.1350
     39 H6          0.8801   11.3508    2.2339 H         1 <0>         0.1371
     40 H7          1.1547    6.2381    3.4683 H         1 <0>         0.4085
     41 H8          1.2132    7.1127    8.0357 H         1 <0>         0.1884
     42 H9          0.4325    1.9325    7.1264 H         1 <0>         0.4387
     43 H10        -0.2220    0.3459    8.8660 H         1 <0>         0.1413
     44 H11         1.3882    4.3890   12.5900 H         1 <0>         0.0870
     45 H12         0.1021    5.2855   11.7470 H         1 <0>         0.0890
     46 H13        -0.3072    4.2031   13.0995 H         1 <0>         0.0846
     47 H14        -0.3126   -0.9904   13.3674 H         1 <0>         0.0744
     48 H15        -1.1984    0.5551   13.2831 H         1 <0>         0.1008
     49 H16        -2.6676   -1.4113   13.8837 H         1 <0>         0.0903
     50 H17        -3.1785   -0.5727   12.3986 H         1 <0>         0.0372
     51 H18        -1.9249   -3.1208   10.1378 H         1 <0>         0.0905
     52 H19        -2.7540   -1.5497   10.2576 H         1 <0>         0.0380
     53 H20        -0.4638   -1.1563    9.5265 H         1 <0>         0.0877
     54 H21         0.1731   -2.1219   10.8840 H         1 <0>         0.0802
     55 H22        -3.7077   -3.3713   13.2985 H         1 <0>         0.0861
     56 H23        -4.2894   -2.8169   11.7102 H         1 <0>         0.0487
     57 H24        -4.0952   -5.2572   11.6843 H         1 <0>         0.0498
     58 H25        -2.8443   -4.5626   10.6256 H         1 <0>         0.0451
     59 H26        -1.9426   -6.1994   12.1134 H         1 <0>         0.3762
@<TRIPOS>BOND
     1    1    2 1
     2    1   34 1
     3    1   35 1
     4    1   36 1
     5    2    7 ar
     6    2    3 ar
     7    3    4 ar
     8    3   37 1
     9    4    5 ar
    10    4   38 1
    11    5    6 ar
    12    5   39 1
    13    6    7 ar
    14    6   33 1
    15    7    8 1
    16    8    9 am
    17    8   40 1
    18    9   10 2
    19    9   11 1
    20   11   15 1
    21   11   12 2
    22   12   13 1
    23   12   41 1
    24   13   14 2
    25   14   15 1
    26   14   16 1
    27   16   17 1
    28   16   42 1
    29   17   18 ar
    30   17   22 ar
    31   18   43 1
    32   18   19 ar
    33   19   24 1
    34   19   20 ar
    35   20   21 ar
    36   21   23 1
    37   21   22 ar
    38   23   44 1
    39   23   45 1
    40   23   46 1
    41   24   29 1
    42   24   25 1
    43   25   26 1
    44   25   47 1
    45   25   48 1
    46   26   27 1
    47   26   49 1
    48   26   50 1
    49   27   28 1
    50   27   30 1
    51   28   29 1
    52   28   51 1
    53   28   52 1
    54   29   53 1
    55   29   54 1
    56   30   31 1
    57   30   55 1
    58   30   56 1
    59   31   32 1
    60   31   57 1
    61   31   58 1
    62   32   59 1
@<TRIPOS>MOLECULE
ZINC21982951
   61    64     0     0     0
SMALL
USER_CHARGES

@<TRIPOS>ATOM
      1 C1          3.2770    6.6581    1.8427 C.3       1 <0>        -0.1166
      2 C2          2.5837    7.9904    1.9667 C.ar      1 <0>        -0.0814
      3 C3          2.9012    9.0183    1.0999 C.ar      1 <0>        -0.1028
      4 C4          2.2660   10.2411    1.2125 C.ar      1 <0>        -0.0975
      5 C5          1.3108   10.4402    2.1928 C.ar      1 <0>        -0.1039
      6 C6          0.9888    9.4167    3.0634 C.ar      1 <0>        -0.0218
      7 C7          1.6215    8.1842    2.9485 C.ar      1 <0>         0.1327
      8 N1          1.2933    7.1433    3.8237 N.am      1 <0>        -0.6648
      9 C8          1.3141    7.3507    5.1552 C.2       1 <0>         0.5983
     10 O1          1.5193    8.4677    5.5943 O.2       1 <0>        -0.4690
     11 C9          1.0903    6.2342    6.0727 C.2       1 <0>        -0.2500
     12 C10         1.0624    6.2188    7.4604 C.2       1 <0>         0.1439
     13 N2          0.8362    5.0594    8.0246 N.2       1 <0>        -0.4984
     14 C11         0.6458    3.9675    7.3056 C.2       1 <0>         0.2172
     15 S1          0.7692    4.5136    5.7185 S.3       1 <0>         0.2242
     16 N3          0.3986    2.6839    7.7506 N.pl3     1 <0>        -0.5513
     17 C12         0.2203    2.4413    9.1063 C.ar      1 <0>         0.5098
     18 C13        -0.1335    1.1734    9.5556 C.ar      1 <0>        -0.3097
     19 C14        -0.3003    0.9817   10.9244 C.ar      1 <0>         0.4927
     20 N4         -0.1163    2.0116   11.7481 N.ar      1 <0>        -0.5695
     21 C15         0.2187    3.1980   11.2828 C.ar      1 <0>         0.4589
     22 N5          0.3911    3.4178    9.9956 N.ar      1 <0>        -0.4762
     23 C16         0.4165    4.3348   12.2521 C.3       1 <0>        -0.1303
     24 N6         -0.6531   -0.2629   11.4224 N.pl3     1 <0>        -0.6123
     25 C17        -0.9643   -0.4465   12.8484 C.3       1 <0>         0.0782
     26 C18        -2.3027   -1.1838   12.9625 C.3       1 <0>        -0.0204
     27 N7         -2.2406   -2.4311   12.1903 N.4       1 <0>        -0.3852
     28 C19        -2.0770   -2.1279   10.7629 C.3       1 <0>        -0.0304
     29 C20        -0.7330   -1.4363   10.5388 C.3       1 <0>         0.0932
     30 C21        -3.4827   -3.1900   12.3886 C.3       1 <0>        -0.0061
     31 C22        -3.3702   -4.5448   11.6865 C.3       1 <0>         0.0434
     32 O2         -2.3479   -5.3224   12.3128 O.3       1 <0>        -0.5819
     33 Cl1        -0.2098    9.6671    4.2940 Cl        1 <0>        -0.0466
     34 H1          2.7157    6.0184    1.1617 H         1 <0>         0.0770
     35 H2          4.2843    6.8074    1.4538 H         1 <0>         0.0791
     36 H3          3.3325    6.1847    2.8230 H         1 <0>         0.0631
     37 H4          3.6468    8.8665    0.3335 H         1 <0>         0.1380
     38 H5          2.5166   11.0428    0.5336 H         1 <0>         0.1401
     39 H6          0.8165   11.3966    2.2780 H         1 <0>         0.1410
     40 H7          1.0508    6.2723    3.4722 H         1 <0>         0.4077
     41 H8          1.2191    7.1146    8.0429 H         1 <0>         0.2016
     42 H9          0.3494    1.9517    7.1163 H         1 <0>         0.4545
     43 H10        -0.2756    0.3590    8.8607 H         1 <0>         0.1860
     44 H11         1.4581    4.3621   12.5724 H         1 <0>         0.1309
     45 H12         0.1613    5.2760   11.7653 H         1 <0>         0.1358
     46 H13        -0.2267    4.1885   13.1199 H         1 <0>         0.1083
     47 H14        -0.1795   -1.0367   13.3215 H         1 <0>         0.1249
     48 H15        -1.0392    0.5259   13.3352 H         1 <0>         0.1232
     49 H16        -2.5028   -1.4138   14.0090 H         1 <0>         0.1602
     50 H17        -3.0999   -0.5526   12.5701 H         1 <0>         0.1410
     51 H18        -2.1110   -3.0537   10.1885 H         1 <0>         0.1585
     52 H19        -2.8811   -1.4682   10.4370 H         1 <0>         0.1418
     53 H20        -0.6550   -1.1179    9.4992 H         1 <0>         0.1416
     54 H21         0.0756   -2.1281   10.7747 H         1 <0>         0.1211
     55 H22        -3.6469   -3.3459   13.4548 H         1 <0>         0.1465
     56 H23        -4.3202   -2.6321   11.9697 H         1 <0>         0.1464
     57 H24        -4.3221   -5.0710   11.7578 H         1 <0>         0.1026
     58 H25        -3.1180   -4.3904   10.6374 H         1 <0>         0.0719
     59 H26        -2.2211   -6.1961   11.9183 H         1 <0>         0.4154
     60 H27        -0.2308    1.8869   12.7032 H         1 <0>         0.4393
     61 H28        -1.4578   -2.9831   12.5075 H         1 <0>         0.4359
@<TRIPOS>BOND
     1    1    2 1
     2    1   34 1
     3    1   35 1
     4    1   36 1
     5    2    7 ar
     6    2    3 ar
     7    3    4 ar
     8    3   37 1
     9    4    5 ar
    10    4   38 1
    11    5    6 ar
    12    5   39 1
    13    6    7 ar
    14    6   33 1
    15    7    8 1
    16    8    9 am
    17    8   40 1
    18    9   10 2
    19    9   11 1
    20   11   15 1
    21   11   12 2
    22   12   13 1
    23   12   41 1
    24   13   14 2
    25   14   15 1
    26   14   16 1
    27   16   17 1
    28   16   42 1
    29   17   18 ar
    30   17   22 ar
    31   18   43 1
    32   18   19 ar
    33   19   24 1
    34   19   20 ar
    35   20   60 1
    36   20   21 ar
    37   21   23 1
    38   21   22 ar
    39   23   44 1
    40   23   45 1
    41   23   46 1
    42   24   29 1
    43   24   25 1
    44   25   26 1
    45   25   47 1
    46   25   48 1
    47   26   27 1
    48   26   49 1
    49   26   50 1
    50   27   28 1
    51   27   30 1
    52   27   61 1
    53   28   29 1
    54   28   51 1
    55   28   52 1
    56   29   53 1
    57   29   54 1
    58   30   31 1
    59   30   55 1
    60   30   56 1
    61   31   32 1
    62   31   57 1
    63   31   58 1
    64   32   59 1
@<TRIPOS>MOLECULE
ZINC03834020
   50    53     0     0     0
SMALL
USER_CHARGES
3-[2,4-dimethyl-5-[(2-oxo-6-phenyl-indolin-3-ylidene)methyl]-1H-pyrrol-3-yl]propanoic acid
@<TRIPOS>ATOM
      1 C1         -0.1786    2.2930    0.0723 C.3       1 <0>        -0.0906
      2 C2         -0.8085    1.8462    1.3664 C.2       1 <0>        -0.0803
      3 C3         -2.1654    1.6057    1.5893 C.2       1 <0>        -0.1581
      4 C4         -2.3151    1.2186    2.8806 C.2       1 <0>         0.0733
      5 N1         -1.0998    1.2158    3.4840 N.pl3     1 <0>        -0.5117
      6 H1         -0.9278    0.9810    4.4093 H         1 <0>         0.4157
      7 C5         -0.1505    1.6022    2.5623 C.2       1 <0>        -0.0369
      8 C6          1.2350    1.7257    2.7929 C.2       1 <0>         0.1061
      9 C7          1.6959    2.1355    4.0300 C.2       1 <0>        -0.2339
     10 C8          3.0978    2.1726    4.5003 C.ar      1 <0>        -0.0779
     11 C9          4.3122    1.8484    3.9001 C.ar      1 <0>        -0.0700
     12 C10         5.4866    1.9976    4.6035 C.ar      1 <0>        -0.1266
     13 C11         5.4588    2.4791    5.9139 C.ar      1 <0>        -0.0227
     14 C12         4.2489    2.8100    6.5162 C.ar      1 <0>        -0.1268
     15 C13         3.0605    2.6627    5.8142 C.ar      1 <0>         0.1385
     16 N2          1.7403    2.9129    6.1700 N.am      1 <0>        -0.6539
     17 C14         0.8988    2.6221    5.1636 C.2       1 <0>         0.5558
     18 O1         -0.3133    2.7408    5.1875 O.2       1 <0>        -0.5113
     19 C15         6.7258    2.6383    6.6681 C.ar      1 <0>        -0.0412
     20 C16         6.7060    3.1233    7.9747 C.ar      1 <0>        -0.1117
     21 C17         7.8876    3.2639    8.6736 C.ar      1 <0>        -0.1182
     22 C18         9.0911    2.9353    8.0760 C.ar      1 <0>        -0.1205
     23 C19         9.1174    2.4588    6.7776 C.ar      1 <0>        -0.1177
     24 C20         7.9415    2.3087    6.0710 C.ar      1 <0>        -0.1090
     25 C21        -3.6209    0.8568    3.5403 C.3       1 <0>        -0.0921
     26 C22        -3.2692    1.7479    0.5731 C.3       1 <0>        -0.0295
     27 C23        -3.4624    0.4186   -0.1594 C.3       1 <0>        -0.1468
     28 C24        -4.5662    0.5609   -1.1755 C.2       1 <0>         0.4580
     29 O2         -5.1395    1.6170   -1.3010 O.co2     1 <0>        -0.6422
     30 H2          0.1065    1.4192   -0.5137 H         1 <0>         0.0709
     31 H3          0.7069    2.8913    0.2867 H         1 <0>         0.0584
     32 H4         -0.8936    2.8915   -0.4922 H         1 <0>         0.0735
     33 H5          1.9361    1.5002    2.0030 H         1 <0>         0.1502
     34 H6          4.3323    1.4761    2.8865 H         1 <0>         0.1316
     35 H7          6.4289    1.7418    4.1419 H         1 <0>         0.1313
     36 H8          4.2344    3.1813    7.5303 H         1 <0>         0.1275
     37 H9          1.4621    3.2537    7.0345 H         1 <0>         0.4144
     38 H10         5.7674    3.3845    8.4407 H         1 <0>         0.1245
     39 H11         7.8731    3.6355    9.6876 H         1 <0>         0.1233
     40 H12        10.0138    3.0508    8.6253 H         1 <0>         0.1218
     41 H13        10.0599    2.2041    6.3159 H         1 <0>         0.1243
     42 H14         7.9631    1.9363    5.0575 H         1 <0>         0.1278
     43 H15        -4.0691    1.7510    3.9735 H         1 <0>         0.0762
     44 H16        -4.2980    0.4341    2.7981 H         1 <0>         0.0892
     45 H17        -3.4399    0.1237    4.3264 H         1 <0>         0.0619
     46 H18        -4.1952    2.0222    1.0785 H         1 <0>         0.0655
     47 H19        -3.0039    2.5235   -0.1453 H         1 <0>         0.0682
     48 H20        -2.5364    0.1444   -0.6648 H         1 <0>         0.0619
     49 H21        -3.7277   -0.3569    0.5591 H         1 <0>         0.0597
     50 O3         -4.9124   -0.4858   -1.9413 O.co2     1 <0>        -0.7796
@<TRIPOS>BOND
     1    1    2 1
     2    1   30 1
     3    1   31 1
     4    1   32 1
     5    2    7 2
     6    2    3 1
     7    3    4 2
     8    3   26 1
     9    4    5 1
    10    4   25 1
    11    5    6 1
    12    5    7 1
    13    7    8 1
    14    8    9 2
    15    8   33 1
    16    9   17 1
    17    9   10 1
    18   10   15 ar
    19   10   11 ar
    20   11   12 ar
    21   11   34 1
    22   12   13 ar
    23   12   35 1
    24   13   14 ar
    25   13   19 1
    26   14   15 ar
    27   14   36 1
    28   15   16 1
    29   16   17 am
    30   16   37 1
    31   17   18 2
    32   19   24 ar
    33   19   20 ar
    34   20   21 ar
    35   20   38 1
    36   21   22 ar
    37   21   39 1
    38   22   23 ar
    39   22   40 1
    40   23   24 ar
    41   23   41 1
    42   24   42 1
    43   25   43 1
    44   25   44 1
    45   25   45 1
    46   26   27 1
    47   26   46 1
    48   26   47 1
    49   27   28 1
    50   27   48 1
    51   27   49 1
    52   28   29 2
    53   28   50 1
@<TRIPOS>MOLECULE
ZINC02583789
   36    38     0     0     0
SMALL
USER_CHARGES

@<TRIPOS>ATOM
      1 C1         -0.2874    1.4785   -0.1530 C.3       1 <0>         0.0208
      2 O1         -0.5676    0.0892   -0.3365 O.3       1 <0>        -0.2992
      3 C2         -0.0342   -0.5082   -1.4354 C.ar      1 <0>         0.1143
      4 C3          0.7339    0.2234   -2.2962 C.ar      1 <0>        -0.1506
      5 C4          1.2835   -0.3907   -3.4278 C.ar      1 <0>        -0.1793
      6 C5          1.0408   -1.7649   -3.6740 C.ar      1 <0>         0.2023
      7 C6          0.2505   -2.4955   -2.7785 C.ar      1 <0>        -0.1834
      8 C7         -0.2740   -1.8694   -1.6694 C.ar      1 <0>         0.1655
      9 O2         -1.0366   -2.5772   -0.7959 O.3       1 <0>        -0.2963
     10 C8         -1.2446   -3.9602   -1.0892 C.3       1 <0>         0.0197
     11 N1          1.5799   -2.3294   -4.7660 N.ar      1 <0>        -0.5370
     12 C9          2.3166   -1.6193   -5.5869 C.ar      1 <0>         0.3400
     13 N2          2.5705   -0.3342   -5.3976 N.ar      1 <0>        -0.5806
     14 C10         2.0864    0.3213   -4.3506 C.ar      1 <0>         0.4634
     15 N3          2.3586    1.6617   -4.1662 N.pl3     1 <0>        -0.6320
     16 C11         3.0386    2.3804   -5.1563 C.ar      1 <0>         0.1336
     17 C12         3.0990    1.8904   -6.4538 C.ar      1 <0>        -0.0986
     18 C13         3.7702    2.6018   -7.4294 C.ar      1 <0>        -0.0925
     19 C14         4.3827    3.8023   -7.1153 C.ar      1 <0>        -0.0316
     20 C15         4.3254    4.2944   -5.8232 C.ar      1 <0>        -0.1216
     21 C16         3.6501    3.5897   -4.8435 C.ar      1 <0>         0.0723
     22 F1          3.5893    4.0726   -3.5832 F         1 <0>        -0.1330
     23 Cl1         5.2251    4.6926   -8.3447 Cl        1 <0>        -0.0556
     24 H1          0.7898    1.6242   -0.0719 H         1 <0>         0.0581
     25 H2         -0.6670    2.0414   -1.0057 H         1 <0>         0.0580
     26 H3         -0.7712    1.8294    0.7585 H         1 <0>         0.1081
     27 H4          0.9160    1.2706   -2.1047 H         1 <0>         0.1395
     28 H5          0.0573   -3.5436   -2.9537 H         1 <0>         0.1576
     29 H6         -0.2834   -4.4733   -1.1214 H         1 <0>         0.0627
     30 H7         -1.8687   -4.4060   -0.3147 H         1 <0>         0.1080
     31 H8         -1.7402   -4.0562   -2.0552 H         1 <0>         0.0628
     32 H9          2.7349   -2.1051   -6.4560 H         1 <0>         0.2012
     33 H10         2.0787    2.1057   -3.3505 H         1 <0>         0.4237
     34 H11         2.6218    0.9535   -6.7003 H         1 <0>         0.1833
     35 H12         3.8174    2.2202   -8.4386 H         1 <0>         0.1456
     36 H13         4.8049    5.2312   -5.5807 H         1 <0>         0.1505
@<TRIPOS>BOND
     1    1    2 1
     2    1   24 1
     3    1   25 1
     4    1   26 1
     5    2    3 1
     6    3    8 ar
     7    3    4 ar
     8    4    5 ar
     9    4   27 1
    10    5   14 ar
    11    5    6 ar
    12    6    7 ar
    13    6   11 ar
    14    7    8 ar
    15    7   28 1
    16    8    9 1
    17    9   10 1
    18   10   29 1
    19   10   30 1
    20   10   31 1
    21   11   12 ar
    22   12   13 ar
    23   12   32 1
    24   13   14 ar
    25   14   15 1
    26   15   16 1
    27   15   33 1
    28   16   21 ar
    29   16   17 ar
    30   17   18 ar
    31   17   34 1
    32   18   19 ar
    33   18   35 1
    34   19   20 ar
    35   19   23 1
    36   20   21 ar
    37   20   36 1
    38   21   22 1
@<TRIPOS>MOLECULE
ZINC03815799
   31    33     0     0     0
SMALL
USER_CHARGES
methyl 1-phenylbenzoimidazole-5-carboxylate
@<TRIPOS>ATOM
      1 C1          5.8341    8.0339   -4.6506 C.3       1 <0>         0.0365
      2 O1          5.1397    6.9542   -3.9721 O.3       1 <0>        -0.3546
      3 C2          5.7948    6.3425   -2.9661 C.2       1 <0>         0.5133
      4 O2          6.9156    6.7013   -2.6641 O.2       1 <0>        -0.5034
      5 C3          5.1511    5.2367   -2.2313 C.ar      1 <0>        -0.1356
      6 C4          3.8581    4.8238   -2.5816 C.ar      1 <0>        -0.0485
      7 C5          3.2527    3.8023   -1.9098 C.ar      1 <0>        -0.1172
      8 C6          3.9178    3.1569   -0.8732 C.ar      1 <0>         0.0810
      9 C7          5.2139    3.5621   -0.5041 C.ar      1 <0>         0.0327
     10 C8          5.8297    4.6060   -1.1923 C.ar      1 <0>         0.0166
     11 N1          5.5998    2.7659    0.5273 N.2       1 <0>        -0.4758
     12 C9          4.6481    1.9257    0.8100 C.2       1 <0>         0.2711
     13 N2          3.5855    2.1246   -0.0204 N.pl3     1 <0>        -0.4438
     14 C10         2.3808    1.4090   -0.0132 C.ar      1 <0>         0.1175
     15 C11         1.1691    2.0868    0.0021 C.ar      1 <0>        -0.1153
     16 C12        -0.0167    1.3786    0.0096 C.ar      1 <0>        -0.0998
     17 C13         0.0021   -0.0041    0.0020 C.ar      1 <0>        -0.1112
     18 C14         1.2072   -0.6819   -0.0127 C.ar      1 <0>        -0.0997
     19 C15         2.3963    0.0206   -0.0203 C.ar      1 <0>        -0.1153
     20 H1          6.0708    8.8205   -3.9342 H         1 <0>         0.0651
     21 H2          6.7561    7.6533   -5.0902 H         1 <0>         0.0651
     22 H3          5.1966    8.4384   -5.4369 H         1 <0>         0.1044
     23 H4          3.3375    5.3180   -3.3886 H         1 <0>         0.1481
     24 H5          2.2563    3.4911   -2.1868 H         1 <0>         0.1327
     25 H6          6.8260    4.9230   -0.9218 H         1 <0>         0.1495
     26 H7          4.6932    1.1791    1.5892 H         1 <0>         0.2204
     27 H8          1.1538    3.1667    0.0077 H         1 <0>         0.1308
     28 H9         -0.9595    1.9053    0.0170 H         1 <0>         0.1350
     29 H10        -0.9264   -0.5556    0.0080 H         1 <0>         0.1325
     30 H11         1.2187   -1.7619   -0.0186 H         1 <0>         0.1355
     31 H12         3.3373   -0.5094   -0.0322 H         1 <0>         0.1326
@<TRIPOS>BOND
     1    1    2 1
     2    1   20 1
     3    1   21 1
     4    1   22 1
     5    2    3 1
     6    3    4 2
     7    3    5 1
     8    5   10 ar
     9    5    6 ar
    10    6    7 ar
    11    6   23 1
    12    7    8 ar
    13    7   24 1
    14    8   13 1
    15    8    9 ar
    16    9   10 ar
    17    9   11 1
    18   10   25 1
    19   11   12 2
    20   12   13 1
    21   12   26 1
    22   13   14 1
    23   14   19 ar
    24   14   15 ar
    25   15   16 ar
    26   15   27 1
    27   16   17 ar
    28   16   28 1
    29   17   18 ar
    30   17   29 1
    31   18   19 ar
    32   18   30 1
    33   19   31 1
@<TRIPOS>MOLECULE
ZINC03814434
   62    69     0     0     0
SMALL
USER_CHARGES

@<TRIPOS>ATOM
      1 C1         -0.1295    1.5952   -0.2973 C.3       1 <0>        -0.1687
      2 C2         -0.0862    0.0696   -0.1900 C.3       1 <0>         0.3342
      3 C3          0.5692   -0.4501   -1.4637 C.3       1 <0>         0.0405
      4 H1          1.4796    0.1159   -1.6612 H         1 <0>         0.1372
      5 C4          0.9167   -1.9328   -1.2889 C.3       1 <0>        -0.0061
      6 H2          1.3963   -2.3075   -2.1932 H         1 <0>         0.1555
      7 C5          1.8785   -2.0596   -0.1021 C.3       1 <0>        -0.1827
      8 C6          1.2061   -1.5198    1.1541 C.3       1 <0>         0.2999
      9 H3          1.9797   -1.4243    1.9161 H         1 <0>         0.1550
     10 O1          0.6555   -0.2442    0.9666 O.3       1 <0>        -0.3234
     11 N1          0.2189   -2.4746    1.6600 N.pl3     1 <0>        -0.5366
     12 C7          0.4705   -3.5508    2.4739 C.ar      1 <0>         0.1469
     13 C8          1.6649   -4.0152    3.0240 C.ar      1 <0>        -0.1522
     14 C9          1.5948   -5.1456    3.8201 C.ar      1 <0>        -0.0582
     15 C10         0.4006   -5.7997    4.0696 C.ar      1 <0>        -0.1457
     16 C11        -0.7984   -5.3597    3.5358 C.ar      1 <0>        -0.0280
     17 C12        -0.7487   -4.2198    2.7307 C.ar      1 <0>        -0.1131
     18 C13        -1.7893   -3.4830    2.0197 C.ar      1 <0>         0.0276
     19 C14        -1.1442   -2.4197    1.3841 C.ar      1 <0>         0.0376
     20 C15        -1.8806   -1.5095    0.6175 C.ar      1 <0>         0.0894
     21 N2         -1.4718   -0.3951   -0.1095 N.pl3     1 <0>        -0.5183
     22 C16        -2.5611    0.1913   -0.7090 C.ar      1 <0>         0.1618
     23 C17        -2.6521    1.3277   -1.5118 C.ar      1 <0>        -0.1305
     24 C18        -3.9109    1.6745   -1.9733 C.ar      1 <0>        -0.0737
     25 C19        -5.0393    0.9368   -1.6616 C.ar      1 <0>        -0.1358
     26 C20        -4.9745   -0.1955   -0.8662 C.ar      1 <0>        -0.0503
     27 C21        -3.7147   -0.5596   -0.3919 C.ar      1 <0>        -0.1042
     28 C22        -3.2693   -1.6660    0.4845 C.ar      1 <0>        -0.0360
     29 C23        -3.9084   -2.7313    1.1102 C.ar      1 <0>        -0.0288
     30 C24        -3.1873   -3.6421    1.8754 C.ar      1 <0>        -0.1255
     31 C25        -4.1221   -4.6480    2.4030 C.2       1 <0>         0.5632
     32 O2         -3.8062   -5.5851    3.1110 O.2       1 <0>        -0.5106
     33 N3         -5.3744   -4.3851    1.9926 N.am      1 <0>        -0.7162
     34 C26        -5.3495   -3.1771    1.1601 C.3       1 <0>         0.1358
     35 N4         -0.3067   -2.7008   -1.0216 N.4       1 <0>        -0.5252
     36 C27         0.0145   -4.1336   -0.9773 C.3       1 <0>        -0.0497
     37 O3         -0.3340   -0.2979   -2.5607 O.3       1 <0>        -0.3614
     38 C28         0.3101   -0.0933   -3.8198 C.3       1 <0>         0.0162
     39 H4          0.8261    2.0094    0.0240 H         1 <0>         0.0984
     40 H5         -0.3202    1.8814   -1.3317 H         1 <0>         0.1036
     41 H6         -0.9255    1.9818    0.3392 H         1 <0>         0.0921
     42 H7          2.1370   -3.1081    0.0458 H         1 <0>         0.1233
     43 H8          2.7835   -1.4869   -0.3048 H         1 <0>         0.1455
     44 H9          2.6036   -3.5149    2.8368 H         1 <0>         0.1365
     45 H10         2.5026   -5.5304    4.2610 H         1 <0>         0.1359
     46 H11         0.4045   -6.6780    4.6980 H         1 <0>         0.1352
     47 H12        -1.7278   -5.8736    3.7323 H         1 <0>         0.1600
     48 H13        -1.7792    1.9122   -1.7624 H         1 <0>         0.1440
     49 H14        -4.0153    2.5500   -2.5970 H         1 <0>         0.1336
     50 H15        -5.9967    1.2527   -2.0488 H         1 <0>         0.1332
     51 H16        -5.8575   -0.7687   -0.6249 H         1 <0>         0.1415
     52 H17        -6.1628   -4.9065    2.2103 H         1 <0>         0.4348
     53 H18        -5.9671   -2.3994    1.6094 H         1 <0>         0.1115
     54 H19        -5.7060   -3.4063    0.1559 H         1 <0>         0.1103
     55 H20        -0.6958   -2.4158   -0.1353 H         1 <0>         0.4186
     56 H21         0.4349   -4.4415   -1.9347 H         1 <0>         0.1256
     57 H22         0.7403   -4.3189   -0.1854 H         1 <0>         0.1191
     58 H23        -0.8932   -4.7035   -0.7789 H         1 <0>         0.1256
     59 H24         0.9168    0.8112   -3.7748 H         1 <0>         0.0633
     60 H25         0.9482   -0.9479   -4.0446 H         1 <0>         0.0514
     61 H26        -0.4433    0.0130   -4.6003 H         1 <0>         0.1100
     62 H27        -0.9785   -2.5293   -1.7546 H         1 <0>         0.4274
@<TRIPOS>BOND
     1    1    2 1
     2    1   39 1
     3    1   40 1
     4    1   41 1
     5    2   10 1
     6    2   21 1
     7    2    3 1
     8    3    4 1
     9    3    5 1
    10    3   37 1
    11    5    6 1
    12    5    7 1
    13    5   35 1
    14    7    8 1
    15    7   42 1
    16    7   43 1
    17    8    9 1
    18    8   10 1
    19    8   11 1
    20   11   19 1
    21   11   12 1
    22   12   17 ar
    23   12   13 ar
    24   13   14 ar
    25   13   44 1
    26   14   15 ar
    27   14   45 1
    28   15   16 ar
    29   15   46 1
    30   16   17 ar
    31   16   47 1
    32   17   18 1
    33   18   30 ar
    34   18   19 ar
    35   19   20 ar
    36   20   28 ar
    37   20   21 1
    38   21   22 1
    39   22   27 ar
    40   22   23 ar
    41   23   24 ar
    42   23   48 1
    43   24   25 ar
    44   24   49 1
    45   25   26 ar
    46   25   50 1
    47   26   27 ar
    48   26   51 1
    49   27   28 1
    50   28   29 ar
    51   29   34 1
    52   29   30 ar
    53   30   31 1
    54   31   32 2
    55   31   33 am
    56   33   34 1
    57   33   52 1
    58   34   53 1
    59   34   54 1
    60   35   36 1
    61   35   55 1
    62   35   62 1
    63   36   56 1
    64   36   57 1
    65   36   58 1
    66   37   38 1
    67   38   59 1
    68   38   60 1
    69   38   61 1
@<TRIPOS>MOLECULE
ZINC34842284
   60    64     0     0     0
SMALL
USER_CHARGES

@<TRIPOS>ATOM
      1 C1         -0.0178    1.4608    0.0101 C.3       1 <0>         0.0965
      2 N1          0.0021   -0.0041    0.0020 N.pl3     1 <0>        -0.3671
      3 C2          0.0078   -0.7883   -1.0945 C.2       1 <0>         0.0815
      4 C3          0.0278   -2.0866   -0.6734 C.2       1 <0>        -0.2075
      5 C4          0.0343   -2.0758    0.7354 C.2       1 <0>         0.0682
      6 N2          0.0245   -0.8308    1.1317 N.2       1 <0>        -0.2890
      7 C5          0.0397   -3.2901   -1.5414 C.ar      1 <0>        -0.0366
      8 C6          0.0543   -4.5644   -0.9807 C.ar      1 <0>        -0.0385
      9 C7          0.0802   -5.6649   -1.8426 C.ar      1 <0>        -0.1799
     10 C8          0.1229   -5.4562   -3.2387 C.ar      1 <0>         0.1790
     11 C9          0.2532   -6.5705   -4.1609 C.2       1 <0>        -0.0928
     12 C10        -0.3414   -7.7510   -4.0859 C.2       1 <0>        -0.0827
     13 C11        -1.2649   -8.2108   -3.0641 C.ar      1 <0>        -0.0205
     14 C12        -2.3865   -8.9737   -3.4314 C.ar      1 <0>        -0.0788
     15 C13        -3.2359   -9.4502   -2.4792 C.ar      1 <0>        -0.1379
     16 C14        -3.0081   -9.1944   -1.1257 C.ar      1 <0>         0.1494
     17 C15        -1.9219   -8.4304   -0.7344 C.ar      1 <0>        -0.0939
     18 C16        -1.0553   -7.9152   -1.6995 C.ar      1 <0>        -0.1193
     19 C17         0.0500   -7.0298   -1.2992 C.2       1 <0>         0.4578
     20 O1          0.9175   -7.4185   -0.5376 O.2       1 <0>        -0.4210
     21 N3         -3.8773   -9.7097   -0.1653 N.pl3     1 <0>        -1.0655
     22 S1         -4.3812  -11.2840   -0.2641 S.o2      1 <0>         2.7793
     23 O2         -5.2247  -11.5116    0.8566 O.2       1 <0>        -0.9610
     24 O3         -4.8189  -11.4872   -1.6007 O.2       1 <0>        -0.9643
     25 N4         -3.0455  -12.2399   -0.0531 N.pl3     1 <0>        -0.9947
     26 C18        -2.6613  -12.6751    1.2920 C.3       1 <0>         0.0938
     27 C19        -2.2480  -12.6502   -1.2115 C.3       1 <0>         0.1210
     28 C20        -1.0763  -11.6831   -1.3923 C.3       1 <0>         0.0178
     29 H1         -1.4536  -10.6631   -1.4645 H         1 <0>         0.0816
     30 C21        -0.3126  -12.0380   -2.6715 C.3       1 <0>         0.0320
     31 O4          0.8442  -11.2023   -2.7746 O.3       1 <0>        -0.3693
     32 C22         1.7288  -11.3082   -1.6551 C.3       1 <0>         0.0253
     33 C23         0.9651  -10.9534   -0.3760 C.3       1 <0>         0.0211
     34 O5         -0.1924  -11.7879   -0.2721 O.3       1 <0>        -0.3671
     35 N5          0.0651   -4.2087   -3.7198 N.ar      1 <0>        -0.4628
     36 C24         0.0305   -3.1599   -2.9350 C.ar      1 <0>         0.1258
     37 H2          1.0048    1.8381    0.0023 H         1 <0>         0.0802
     38 H3         -0.5450    1.8219   -0.8730 H         1 <0>         0.0921
     39 H4         -0.5280    1.8123    0.9069 H         1 <0>         0.0936
     40 H5         -0.0021   -0.4506   -2.1203 H         1 <0>         0.1820
     41 H6          0.0494   -2.9451    1.3761 H         1 <0>         0.1866
     42 H7          0.0463   -4.6991    0.0909 H         1 <0>         0.1426
     43 H8          0.9100   -6.4187   -5.0047 H         1 <0>         0.1374
     44 H9         -0.1138   -8.4521   -4.8752 H         1 <0>         0.1386
     45 H10        -2.5760   -9.1830   -4.4738 H         1 <0>         0.1447
     46 H11        -4.0961  -10.0325   -2.7747 H         1 <0>         0.1659
     47 H12        -1.7458   -8.2343    0.3129 H         1 <0>         0.1371
     48 H13        -4.1869   -9.1460    0.5609 H         1 <0>         0.4277
     49 H14        -3.1500  -13.6222    1.5208 H         1 <0>         0.0607
     50 H15        -1.5799  -12.8040    1.3372 H         1 <0>         0.0884
     51 H16        -2.9683  -11.9229    2.0187 H         1 <0>         0.0679
     52 H17        -1.8656  -13.6582   -1.0506 H         1 <0>         0.0981
     53 H18        -2.8717  -12.6365   -2.1052 H         1 <0>         0.1107
     54 H19        -0.0048  -13.0830   -2.6340 H         1 <0>         0.0632
     55 H20        -0.9562  -11.8775   -3.5364 H         1 <0>         0.1055
     56 H21         2.1052  -12.3286   -1.5835 H         1 <0>         0.0597
     57 H22         2.5636  -10.6192   -1.7840 H         1 <0>         0.1035
     58 H23         1.6087  -11.1138    0.4889 H         1 <0>         0.1029
     59 H24         0.6574   -9.9084   -0.4134 H         1 <0>         0.0696
     60 H25        -0.0017   -2.1732   -3.3730 H         1 <0>         0.1615
@<TRIPOS>BOND
     1    1    2 1
     2    1   37 1
     3    1   38 1
     4    1   39 1
     5    2    6 1
     6    2    3 1
     7    3    4 2
     8    3   40 1
     9    4    5 1
    10    4    7 1
    11    5    6 2
    12    5   41 1
    13    7   36 ar
    14    7    8 ar
    15    8    9 ar
    16    8   42 1
    17    9   19 1
    18    9   10 ar
    19   10   11 1
    20   10   35 ar
    21   11   12 2
    22   11   43 1
    23   12   13 1
    24   12   44 1
    25   13   18 ar
    26   13   14 ar
    27   14   15 ar
    28   14   45 1
    29   15   16 ar
    30   15   46 1
    31   16   17 ar
    32   16   21 1
    33   17   18 ar
    34   17   47 1
    35   18   19 1
    36   19   20 2
    37   21   22 1
    38   21   48 1
    39   22   23 2
    40   22   24 2
    41   22   25 1
    42   25   26 1
    43   25   27 1
    44   26   49 1
    45   26   50 1
    46   26   51 1
    47   27   28 1
    48   27   52 1
    49   27   53 1
    50   28   29 1
    51   28   34 1
    52   28   30 1
    53   30   31 1
    54   30   54 1
    55   30   55 1
    56   31   32 1
    57   32   33 1
    58   32   56 1
    59   32   57 1
    60   33   34 1
    61   33   58 1
    62   33   59 1
    63   35   36 ar
    64   36   60 1
@<TRIPOS>MOLECULE
ZINC34842284
   59    63     0     0     0
SMALL
USER_CHARGES

@<TRIPOS>ATOM
      1 C1         -0.0178    1.4608    0.0101 C.3       1 <0>         0.1007
      2 N1          0.0021   -0.0041    0.0020 N.pl3     1 <0>        -0.3736
      3 C2          0.0078   -0.7883   -1.0945 C.2       1 <0>         0.0703
      4 C3          0.0278   -2.0866   -0.6734 C.2       1 <0>        -0.1902
      5 C4          0.0343   -2.0758    0.7354 C.2       1 <0>         0.0673
      6 N2          0.0245   -0.8308    1.1317 N.2       1 <0>        -0.2943
      7 C5          0.0397   -3.2901   -1.5414 C.ar      1 <0>        -0.0608
      8 C6          0.0543   -4.5644   -0.9807 C.ar      1 <0>        -0.0333
      9 C7          0.0802   -5.6649   -1.8426 C.ar      1 <0>        -0.1792
     10 C8          0.1229   -5.4562   -3.2387 C.ar      1 <0>         0.2045
     11 C9          0.2532   -6.5705   -4.1609 C.2       1 <0>        -0.1592
     12 C10        -0.3414   -7.7510   -4.0859 C.2       1 <0>        -0.0231
     13 C11        -1.2649   -8.2108   -3.0641 C.ar      1 <0>        -0.1647
     14 C12        -2.3865   -8.9737   -3.4314 C.ar      1 <0>        -0.0353
     15 C13        -3.2359   -9.4502   -2.4792 C.ar      1 <0>        -0.2465
     16 C14        -3.0081   -9.1944   -1.1257 C.ar      1 <0>         0.3005
     17 C15        -1.9219   -8.4304   -0.7344 C.ar      1 <0>        -0.1500
     18 C16        -1.0553   -7.9152   -1.6995 C.ar      1 <0>        -0.0837
     19 C17         0.0500   -7.0298   -1.2992 C.2       1 <0>         0.4609
     20 O1          0.9175   -7.4185   -0.5376 O.2       1 <0>        -0.4397
     21 N3         -3.8773   -9.7097   -0.1653 N.2       1 <0>        -1.0971
     22 S1         -5.1776  -10.6235   -0.6305 S.o2      1 <0>         2.7153
     23 O2         -6.0456   -9.7582   -1.3496 O.2       1 <0>        -1.0429
     24 O3         -4.6537  -11.8178   -1.1947 O.2       1 <0>        -1.0457
     25 N4         -5.9839  -11.0648    0.7470 N.pl3     1 <0>        -0.9885
     26 C18        -7.0496  -10.2109    1.2774 C.3       1 <0>         0.1091
     27 C19        -5.6314  -12.3092    1.4352 C.3       1 <0>         0.1365
     28 C20        -4.6323  -12.0078    2.5540 C.3       1 <0>         0.0329
     29 H1         -3.7717  -11.4810    2.1417 H         1 <0>         0.0873
     30 C21        -4.1704  -13.3198    3.1948 C.3       1 <0>         0.0320
     31 O4         -3.3244  -13.0250    4.3103 O.3       1 <0>        -0.3784
     32 C22        -3.9524  -12.2119    5.3061 C.3       1 <0>         0.0246
     33 C23        -4.4143  -10.8999    4.6653 C.3       1 <0>         0.0237
     34 O5         -5.2598  -11.1934    3.5490 O.3       1 <0>        -0.3667
     35 N5          0.0651   -4.2087   -3.7198 N.ar      1 <0>        -0.4751
     36 C24         0.0305   -3.1599   -2.9350 C.ar      1 <0>         0.1218
     37 H2          1.0048    1.8381    0.0023 H         1 <0>         0.0758
     38 H3         -0.5450    1.8219   -0.8730 H         1 <0>         0.0888
     39 H4         -0.5280    1.8123    0.9069 H         1 <0>         0.0902
     40 H5         -0.0021   -0.4506   -2.1203 H         1 <0>         0.1795
     41 H6          0.0494   -2.9451    1.3761 H         1 <0>         0.1876
     42 H7          0.0463   -4.6991    0.0909 H         1 <0>         0.1396
     43 H8          0.9100   -6.4187   -5.0047 H         1 <0>         0.1239
     44 H9         -0.1138   -8.4521   -4.8752 H         1 <0>         0.1183
     45 H10        -2.5760   -9.1830   -4.4738 H         1 <0>         0.1151
     46 H11        -4.0961  -10.0325   -2.7747 H         1 <0>         0.1021
     47 H12        -1.7458   -8.2343    0.3129 H         1 <0>         0.1215
     48 H13        -8.0037  -10.5080    0.8422 H         1 <0>         0.0404
     49 H14        -7.0955  -10.3181    2.3611 H         1 <0>         0.0728
     50 H15        -6.8424   -9.1713    1.0236 H         1 <0>         0.0649
     51 H16        -6.5299  -12.7559    1.8610 H         1 <0>         0.0781
     52 H17        -5.1826  -13.0029    0.7243 H         1 <0>         0.1032
     53 H18        -5.0384  -13.8845    3.5350 H         1 <0>         0.0590
     54 H19        -3.6164  -13.9075    2.4628 H         1 <0>         0.1068
     55 H20        -4.8131  -12.7393    5.7173 H         1 <0>         0.0563
     56 H21        -3.2406  -11.9973    6.1031 H         1 <0>         0.1003
     57 H22        -4.9682  -10.3122    5.3973 H         1 <0>         0.0994
     58 H23        -3.5462  -10.3353    4.3251 H         1 <0>         0.0629
     59 H24        -0.0017   -2.1732   -3.3730 H         1 <0>         0.1540
@<TRIPOS>BOND
     1    1    2 1
     2    1   37 1
     3    1   38 1
     4    1   39 1
     5    2    6 1
     6    2    3 1
     7    3    4 2
     8    3   40 1
     9    4    5 1
    10    4    7 1
    11    5    6 2
    12    5   41 1
    13    7   36 ar
    14    7    8 ar
    15    8    9 ar
    16    8   42 1
    17    9   19 1
    18    9   10 ar
    19   10   11 1
    20   10   35 ar
    21   11   12 2
    22   11   43 1
    23   12   13 1
    24   12   44 1
    25   13   18 ar
    26   13   14 ar
    27   14   15 ar
    28   14   45 1
    29   15   16 ar
    30   15   46 1
    31   16   17 ar
    32   16   21 1
    33   17   18 ar
    34   17   47 1
    35   18   19 1
    36   19   20 2
    37   21   22 1
    38   22   23 2
    39   22   24 2
    40   22   25 1
    41   25   26 1
    42   25   27 1
    43   26   48 1
    44   26   49 1
    45   26   50 1
    46   27   28 1
    47   27   51 1
    48   27   52 1
    49   28   29 1
    50   28   34 1
    51   28   30 1
    52   30   31 1
    53   30   53 1
    54   30   54 1
    55   31   32 1
    56   32   33 1
    57   32   55 1
    58   32   56 1
    59   33   34 1
    60   33   57 1
    61   33   58 1
    62   35   36 ar
    63   36   59 1
@<TRIPOS>MOLECULE
ZINC72105034
   70    73     0     0     0
SMALL
USER_CHARGES

@<TRIPOS>ATOM
      1 C1         -3.0465   -3.1127   14.8741 C.3       1 <0>        -0.1892
      2 C2         -3.2466   -2.2549   13.6230 C.3       1 <0>        -0.0108
      3 N1         -4.1264   -2.9600   12.6814 N.4       1 <0>        -0.3829
      4 C3         -3.4647   -4.1874   12.2214 C.3       1 <0>        -0.0274
      5 C4         -4.4254   -4.9810   11.3297 C.3       1 <0>         0.1010
      6 N2         -4.8919   -4.1005   10.2474 N.pl3     1 <0>        -0.6456
      7 C5         -5.4217   -2.7770   10.6103 C.3       1 <0>         0.1015
      8 C6         -4.4140   -2.0875   11.5359 C.3       1 <0>        -0.0220
      9 C7         -4.8337   -4.5106    8.9106 C.ar      1 <0>         0.1766
     10 C8         -4.2262   -5.7148    8.5795 C.ar      1 <0>        -0.1629
     11 C9         -4.1692   -6.1195    7.2606 C.ar      1 <0>        -0.0646
     12 C10        -4.7193   -5.3226    6.2653 C.ar      1 <0>         0.1310
     13 C11        -5.3268   -4.1185    6.5964 C.ar      1 <0>        -0.1041
     14 C12        -5.3885   -3.7162    7.9158 C.ar      1 <0>        -0.1629
     15 N3         -4.6611   -5.7330    4.9274 N.pl3     1 <0>        -0.6533
     16 C13        -4.7431   -7.0808    4.6114 C.ar      1 <0>         0.4484
     17 C14        -4.5642   -7.5111    3.2990 C.ar      1 <0>        -0.3232
     18 C15        -4.6563   -8.8727    3.0342 C.ar      1 <0>         0.4562
     19 N4         -4.9104   -9.7105    4.0371 N.ar      1 <0>        -0.5358
     20 C16        -5.0737   -9.2649    5.2660 C.ar      1 <0>         0.3663
     21 N5         -4.9887   -7.9832    5.5591 N.ar      1 <0>        -0.5884
     22 N6         -4.4859   -9.3527    1.7400 N.am      1 <0>        -0.5513
     23 C17        -4.0993   -8.4367    0.6640 C.3       1 <0>         0.0633
     24 C18        -4.6764  -10.6605    1.4758 C.2       1 <0>         0.6965
     25 O1         -4.9972  -11.4206    2.3688 O.2       1 <0>        -0.4771
     26 N7         -4.5113  -11.1256    0.2217 N.am      1 <0>        -0.6806
     27 C19        -4.5933  -12.5005   -0.0317 C.ar      1 <0>         0.2488
     28 C20        -3.5635  -13.1459   -0.7035 C.ar      1 <0>        -0.1156
     29 C21        -3.6457  -14.5077   -0.9540 C.ar      1 <0>         0.1985
     30 C22        -4.7561  -15.2246   -0.5342 C.ar      1 <0>        -0.2856
     31 C23        -5.7851  -14.5810    0.1368 C.ar      1 <0>         0.1981
     32 C24        -5.7020  -13.2205    0.3937 C.ar      1 <0>        -0.0913
     33 Cl1        -6.9867  -12.4166    1.2405 Cl        1 <0>        -0.0174
     34 O2         -6.8731  -15.2849    0.5478 O.3       1 <0>        -0.2934
     35 C25        -6.8895  -16.6834    0.2548 C.3       1 <0>         0.0217
     36 O3         -2.6377  -15.1397   -1.6116 O.3       1 <0>        -0.2949
     37 C26        -2.7887  -16.5430   -1.8355 C.3       1 <0>         0.0219
     38 Cl2        -2.1738  -12.2486   -1.2302 Cl        1 <0>        -0.0383
     39 H1         -2.3937   -2.5895   15.5727 H         1 <0>         0.1068
     40 H2         -4.0114   -3.2967   15.3466 H         1 <0>         0.0809
     41 H3         -2.5919   -4.0630   14.5941 H         1 <0>         0.0805
     42 H4         -3.7012   -1.3046   13.9030 H         1 <0>         0.1310
     43 H5         -2.2817   -2.0709   13.1505 H         1 <0>         0.1281
     44 H6         -2.5717   -3.9277   11.6528 H         1 <0>         0.1321
     45 H7         -3.1838   -4.7935   13.0827 H         1 <0>         0.1410
     46 H8         -3.9058   -5.8399   10.9049 H         1 <0>         0.1268
     47 H9         -5.2773   -5.3195   11.9194 H         1 <0>         0.0863
     48 H10        -5.5608   -2.1788    9.7098 H         1 <0>         0.1256
     49 H11        -6.3742   -2.8930   11.1273 H         1 <0>         0.0858
     50 H12        -4.8326   -1.1462   11.8921 H         1 <0>         0.1394
     51 H13        -3.4923   -1.8913   10.9881 H         1 <0>         0.1318
     52 H14        -3.7980   -6.3344    9.3535 H         1 <0>         0.1245
     53 H15        -3.6964   -7.0558    7.0031 H         1 <0>         0.1406
     54 H16        -5.7546   -3.4987    5.8223 H         1 <0>         0.1287
     55 H17        -5.8648   -2.7819    8.1738 H         1 <0>         0.1249
     56 H18        -4.5634   -5.0745    4.2219 H         1 <0>         0.4207
     57 H19        -4.3595   -6.8053    2.5076 H         1 <0>         0.1461
     58 H20        -5.2787   -9.9712    6.0569 H         1 <0>         0.2006
     59 H21        -3.0123   -8.3941    0.5961 H         1 <0>         0.0784
     60 H22        -4.5087   -8.7932   -0.2812 H         1 <0>         0.0834
     61 H23        -4.4893   -7.4413    0.8765 H         1 <0>         0.0916
     62 H24        -4.3356  -10.5081   -0.5055 H         1 <0>         0.4126
     63 H25        -4.8197  -16.2847   -0.7302 H         1 <0>         0.1546
     64 H26        -7.8108  -17.1238    0.6364 H         1 <0>         0.1096
     65 H27        -6.8368  -16.8293   -0.8241 H         1 <0>         0.0610
     66 H28        -6.0336  -17.1640    0.7287 H         1 <0>         0.0609
     67 H29        -3.6841  -16.7217   -2.4308 H         1 <0>         0.0613
     68 H30        -1.9165  -16.9218   -2.3683 H         1 <0>         0.1099
     69 H31        -2.8806  -17.0558   -0.8781 H         1 <0>         0.0610
     70 H32        -4.9899   -3.1998   13.1451 H         1 <0>         0.4221
@<TRIPOS>BOND
     1    1    2 1
     2    1   39 1
     3    1   40 1
     4    1   41 1
     5    2    3 1
     6    2   42 1
     7    2   43 1
     8    3    8 1
     9    3    4 1
    10    3   70 1
    11    4    5 1
    12    4   44 1
    13    4   45 1
    14    5    6 1
    15    5   46 1
    16    5   47 1
    17    6    7 1
    18    6    9 1
    19    7    8 1
    20    7   48 1
    21    7   49 1
    22    8   50 1
    23    8   51 1
    24    9   14 ar
    25    9   10 ar
    26   10   11 ar
    27   10   52 1
    28   11   12 ar
    29   11   53 1
    30   12   13 ar
    31   12   15 1
    32   13   14 ar
    33   13   54 1
    34   14   55 1
    35   15   16 1
    36   15   56 1
    37   16   21 ar
    38   16   17 ar
    39   17   18 ar
    40   17   57 1
    41   18   19 ar
    42   18   22 1
    43   19   20 ar
    44   20   21 ar
    45   20   58 1
    46   22   23 1
    47   22   24 am
    48   23   59 1
    49   23   60 1
    50   23   61 1
    51   24   25 2
    52   24   26 am
    53   26   27 1
    54   26   62 1
    55   27   32 ar
    56   27   28 ar
    57   28   29 ar
    58   28   38 1
    59   29   30 ar
    60   29   36 1
    61   30   31 ar
    62   30   63 1
    63   31   32 ar
    64   31   34 1
    65   32   33 1
    66   34   35 1
    67   35   64 1
    68   35   65 1
    69   35   66 1
    70   36   37 1
    71   37   67 1
    72   37   68 1
    73   37   69 1
@<TRIPOS>MOLECULE
ZINC72105034
   69    72     0     0     0
SMALL
USER_CHARGES

@<TRIPOS>ATOM
      1 C1         -3.4378   -3.9375   14.6684 C.3       1 <0>        -0.1502
      2 C2         -3.5006   -3.0159   13.4488 C.3       1 <0>         0.0503
      3 N1         -4.3406   -3.6313   12.4127 N.3       1 <0>        -0.5378
      4 C3         -3.7251   -4.8621   11.8984 C.3       1 <0>         0.0363
      5 C4         -4.7086   -5.5666   10.9578 C.3       1 <0>         0.1266
      6 N2         -5.1378   -4.6085    9.9278 N.pl3     1 <0>        -0.6321
      7 C5         -5.6391   -3.2963   10.3636 C.3       1 <0>         0.1276
      8 C6         -4.6190   -2.6811   11.3275 C.3       1 <0>         0.0396
      9 C7         -5.0714   -4.9369    8.5689 C.ar      1 <0>         0.2080
     10 C8         -4.4894   -6.1336    8.1714 C.ar      1 <0>        -0.1806
     11 C9         -4.4244   -6.4578    6.8309 C.ar      1 <0>        -0.0579
     12 C10        -4.9408   -5.5873    5.8801 C.ar      1 <0>         0.0956
     13 C11        -5.5227   -4.3907    6.2776 C.ar      1 <0>        -0.0967
     14 C12        -5.5926   -4.0689    7.6185 C.ar      1 <0>        -0.1814
     15 N3         -4.8743   -5.9160    4.5202 N.pl3     1 <0>        -0.6480
     16 C13        -4.9857   -7.2392    4.1204 C.ar      1 <0>         0.4532
     17 C14        -4.7996   -7.5924    2.7862 C.ar      1 <0>        -0.3285
     18 C15        -4.9221   -8.9324    2.4366 C.ar      1 <0>         0.4515
     19 N4         -5.2108   -9.8235    3.3827 N.ar      1 <0>        -0.5423
     20 C16        -5.3796   -9.4503    4.6347 C.ar      1 <0>         0.3655
     21 N5         -5.2667   -8.1917    5.0075 N.ar      1 <0>        -0.5828
     22 N6         -4.7461   -9.3361    1.1173 N.am      1 <0>        -0.5515
     23 C17        -4.3221   -8.3659    0.1048 C.3       1 <0>         0.0649
     24 C18        -4.9656  -10.6198    0.7705 C.2       1 <0>         0.6963
     25 O1         -5.3174  -11.4249    1.6108 O.2       1 <0>        -0.4774
     26 N7         -4.7950  -11.0110   -0.5080 N.am      1 <0>        -0.6824
     27 C19        -4.9079  -12.3651   -0.8468 C.ar      1 <0>         0.2515
     28 C20        -3.8855  -12.9943   -1.5448 C.ar      1 <0>        -0.1156
     29 C21        -3.9983  -14.3355   -1.8800 C.ar      1 <0>         0.1969
     30 C22        -5.1319  -15.0480   -1.5188 C.ar      1 <0>        -0.2867
     31 C23        -6.1535  -14.4206   -0.8218 C.ar      1 <0>         0.1972
     32 C24        -6.0399  -13.0811   -0.4802 C.ar      1 <0>        -0.0912
     33 Cl1        -7.3156  -12.2980    0.3991 Cl        1 <0>        -0.0151
     34 O2         -7.2642  -15.1202   -0.4683 O.3       1 <0>        -0.2933
     35 C25        -7.3116  -16.4972   -0.8473 C.3       1 <0>         0.0224
     36 O3         -2.9975  -14.9516   -2.5633 O.3       1 <0>        -0.2955
     37 C26        -3.1804  -16.3341   -2.8753 C.3       1 <0>         0.0225
     38 Cl2        -2.4668  -12.1023   -1.9981 Cl        1 <0>        -0.0388
     39 H1         -2.8146   -3.4808   15.4373 H         1 <0>         0.0601
     40 H2         -4.4435   -4.0912   15.0599 H         1 <0>         0.0642
     41 H3         -3.0108   -4.8971   14.3771 H         1 <0>         0.0548
     42 H4         -3.9276   -2.0563   13.7401 H         1 <0>         0.0754
     43 H5         -2.4950   -2.8622   13.0574 H         1 <0>         0.0324
     44 H6         -2.8150   -4.6131   11.3528 H         1 <0>         0.0373
     45 H7         -3.4816   -5.5223   12.7308 H         1 <0>         0.0881
     46 H8         -4.2176   -6.4171   10.4850 H         1 <0>         0.0867
     47 H9         -5.5752   -5.9086   11.5236 H         1 <0>         0.0692
     48 H10        -5.7633   -2.6458    9.4978 H         1 <0>         0.0853
     49 H11        -6.5952   -3.4200   10.8723 H         1 <0>         0.0688
     50 H12        -5.0237   -1.7596   11.7460 H         1 <0>         0.0847
     51 H13        -3.6964   -2.4625   10.7899 H         1 <0>         0.0375
     52 H14        -4.0875   -6.8104    8.9108 H         1 <0>         0.1239
     53 H15        -3.9715   -7.3882    6.5217 H         1 <0>         0.1333
     54 H16        -5.9244   -3.7138    5.5381 H         1 <0>         0.1213
     55 H17        -6.0491   -3.1403    7.9278 H         1 <0>         0.1240
     56 H18        -4.7504   -5.2181    3.8580 H         1 <0>         0.4169
     57 H19        -4.5666   -6.8448    2.0425 H         1 <0>         0.1434
     58 H20        -5.6130  -10.1984    5.3779 H         1 <0>         0.1992
     59 H21        -3.2335   -8.3472    0.0528 H         1 <0>         0.0766
     60 H22        -4.7274   -8.6529   -0.8655 H         1 <0>         0.0808
     61 H23        -4.6901   -7.3757    0.3737 H         1 <0>         0.0918
     62 H24        -4.5941  -10.3546   -1.1933 H         1 <0>         0.4120
     63 H25        -5.2193  -16.0921   -1.7808 H         1 <0>         0.1535
     64 H26        -7.2478  -16.5777   -1.9325 H         1 <0>         0.0599
     65 H27        -6.4745  -17.0279   -0.3938 H         1 <0>         0.0605
     66 H28        -8.2486  -16.9363   -0.5049 H         1 <0>         0.1088
     67 H29        -3.2981  -16.9023   -1.9526 H         1 <0>         0.0606
     68 H30        -4.0718  -16.4527   -3.4913 H         1 <0>         0.0604
     69 H31        -2.3108  -16.7017   -3.4200 H         1 <0>         0.1087
@<TRIPOS>BOND
     1    1    2 1
     2    1   39 1
     3    1   40 1
     4    1   41 1
     5    2    3 1
     6    2   42 1
     7    2   43 1
     8    3    8 1
     9    3    4 1
    10    4    5 1
    11    4   44 1
    12    4   45 1
    13    5    6 1
    14    5   46 1
    15    5   47 1
    16    6    7 1
    17    6    9 1
    18    7    8 1
    19    7   48 1
    20    7   49 1
    21    8   50 1
    22    8   51 1
    23    9   14 ar
    24    9   10 ar
    25   10   11 ar
    26   10   52 1
    27   11   12 ar
    28   11   53 1
    29   12   13 ar
    30   12   15 1
    31   13   14 ar
    32   13   54 1
    33   14   55 1
    34   15   16 1
    35   15   56 1
    36   16   21 ar
    37   16   17 ar
    38   17   18 ar
    39   17   57 1
    40   18   19 ar
    41   18   22 1
    42   19   20 ar
    43   20   21 ar
    44   20   58 1
    45   22   23 1
    46   22   24 am
    47   23   59 1
    48   23   60 1
    49   23   61 1
    50   24   25 2
    51   24   26 am
    52   26   27 1
    53   26   62 1
    54   27   32 ar
    55   27   28 ar
    56   28   29 ar
    57   28   38 1
    58   29   30 ar
    59   29   36 1
    60   30   31 ar
    61   30   63 1
    62   31   32 ar
    63   31   34 1
    64   32   33 1
    65   34   35 1
    66   35   64 1
    67   35   65 1
    68   35   66 1
    69   36   37 1
    70   37   67 1
    71   37   68 1
    72   37   69 1
@<TRIPOS>MOLECULE
ZINC03870533
   80    82     0     0     0
SMALL
USER_CHARGES

@<TRIPOS>ATOM
      1 C1          0.1284    1.4492    0.2097 C.3       1 <0>        -0.1880
      2 C2          0.0190   -0.0668    0.0349 C.3       1 <0>        -0.0166
      3 N1          0.5762   -0.4508   -1.2689 N.4       1 <0>        -0.3863
      4 C3          2.0192   -0.1759   -1.2850 C.3       1 <0>        -0.0149
      5 C4          2.5730   -0.4396   -2.6866 C.3       1 <0>        -0.1885
      6 C5          0.3482   -1.8842   -1.4959 C.3       1 <0>        -0.0140
      7 C6         -1.1545   -2.1508   -1.6035 C.3       1 <0>        -0.1435
      8 C7         -1.3919   -3.6437   -1.8399 C.3       1 <0>        -0.1330
      9 C8         -2.8947   -3.9103   -1.9475 C.3       1 <0>         0.1392
     10 N2         -3.1220   -5.3397   -2.1738 N.pl3     1 <0>        -0.6990
     11 C9         -4.4103   -5.8223   -2.3045 C.ar      1 <0>         0.5901
     12 N3         -5.4246   -4.9635   -2.2256 N.ar      1 <0>        -0.5739
     13 C10        -6.6743   -5.3645   -2.3430 C.ar      1 <0>         0.2654
     14 C11        -6.9226   -6.7315   -2.5556 C.ar      1 <0>        -0.2918
     15 C12        -8.2260   -7.2367   -2.6914 C.ar      1 <0>         0.0392
     16 C13        -8.3765   -8.5985   -2.8991 C.ar      1 <0>        -0.1549
     17 C14        -7.2316   -9.4207   -2.9663 C.ar      1 <0>         0.4783
     18 N4         -6.0189   -8.9230   -2.8360 N.ar      1 <0>        -0.4759
     19 C15        -5.8179   -7.6194   -2.6345 C.ar      1 <0>         0.4281
     20 N5         -4.5843   -7.1143   -2.5077 N.ar      1 <0>        -0.5592
     21 N6         -7.3867  -10.7836   -3.1739 N.am      1 <0>        -0.6624
     22 C16        -6.3035  -11.5827   -3.2406 C.2       1 <0>         0.6910
     23 O1         -5.1904  -11.1092   -3.1189 O.2       1 <0>        -0.5066
     24 N7         -6.4541  -12.9068   -3.4423 N.am      1 <0>        -0.7339
     25 C17        -5.2766  -13.7753   -3.5148 C.3       1 <0>         0.1875
     26 C18        -4.4967  -13.6879   -2.2014 C.3       1 <0>        -0.1659
     27 C19        -5.7223  -15.2203   -3.7480 C.3       1 <0>        -0.1566
     28 C20        -4.3811  -13.3250   -4.6707 C.3       1 <0>        -0.1658
     29 C21        -9.7293   -9.1869   -3.0489 C.ar      1 <0>         0.0346
     30 C22       -10.0067  -10.0364   -4.1179 C.ar      1 <0>        -0.1988
     31 C23       -11.2716  -10.5849   -4.2547 C.ar      1 <0>         0.1793
     32 C24       -12.2614  -10.2891   -3.3289 C.ar      1 <0>        -0.2946
     33 C25       -11.9887   -9.4433   -2.2637 C.ar      1 <0>         0.1783
     34 C26       -10.7243   -8.8960   -2.1178 C.ar      1 <0>        -0.1729
     35 O2        -12.9614   -9.1553   -1.3594 O.3       1 <0>        -0.3101
     36 C27       -14.2401   -9.7583   -1.5677 C.3       1 <0>         0.0242
     37 O3        -11.5432  -11.4132   -5.2973 O.3       1 <0>        -0.3102
     38 C28       -12.8679  -11.9430   -5.3770 C.3       1 <0>         0.0241
     39 H1          1.1790    1.7329    0.2727 H         1 <0>         0.0803
     40 H2         -0.3320    1.9475   -0.6434 H         1 <0>         0.0797
     41 H3         -0.3838    1.7474    1.1245 H         1 <0>         0.1060
     42 H4          0.5754   -0.5652    0.8288 H         1 <0>         0.1292
     43 H5         -1.0286   -0.3635    0.0840 H         1 <0>         0.1325
     44 H6          2.1936    0.8657   -1.0153 H         1 <0>         0.1319
     45 H7          2.5208   -0.8258   -0.5679 H         1 <0>         0.1290
     46 H8          2.4989   -1.5034   -2.9124 H         1 <0>         0.0806
     47 H9          1.9971    0.1280   -3.4175 H         1 <0>         0.0796
     48 H10         3.6177   -0.1312   -2.7284 H         1 <0>         0.1059
     49 H11         0.8383   -2.1880   -2.4209 H         1 <0>         0.1335
     50 H12         0.7596   -2.4539   -0.6626 H         1 <0>         0.1308
     51 H13        -1.6446   -1.8469   -0.6785 H         1 <0>         0.0912
     52 H14        -1.5658   -1.5811   -2.4368 H         1 <0>         0.0915
     53 H15        -0.9019   -3.9475   -2.7649 H         1 <0>         0.0829
     54 H16        -0.9806   -4.2134   -1.0066 H         1 <0>         0.0827
     55 H17        -3.3848   -3.6064   -1.0225 H         1 <0>         0.0709
     56 H18        -3.3060   -3.3406   -2.7808 H         1 <0>         0.0713
     57 H19        -2.3683   -5.9475   -2.2320 H         1 <0>         0.4172
     58 H20        -7.4893   -4.6589   -2.2770 H         1 <0>         0.1815
     59 H21        -9.0846   -6.5840   -2.6353 H         1 <0>         0.1565
     60 H22        -8.2748  -11.1615   -3.2710 H         1 <0>         0.4184
     61 H23        -7.3422  -13.2846   -3.5394 H         1 <0>         0.3956
     62 H24        -5.1347  -14.0087   -1.3779 H         1 <0>         0.0531
     63 H25        -3.6206  -14.3341   -2.2554 H         1 <0>         0.0645
     64 H26        -4.1792  -12.6584   -2.0353 H         1 <0>         0.0804
     65 H27        -6.2779  -15.2826   -4.6837 H         1 <0>         0.0633
     66 H28        -4.8462  -15.8665   -3.8020 H         1 <0>         0.0774
     67 H29        -6.3603  -15.5411   -2.9245 H         1 <0>         0.0629
     68 H30        -4.0636  -12.2956   -4.5045 H         1 <0>         0.0804
     69 H31        -3.5050  -13.9712   -4.7247 H         1 <0>         0.0644
     70 H32        -4.9367  -13.3873   -5.6064 H         1 <0>         0.0535
     71 H33        -9.2367  -10.2669   -4.8393 H         1 <0>         0.1355
     72 H34       -13.2466  -10.7179   -3.4378 H         1 <0>         0.1392
     73 H35       -10.5113   -8.2411   -1.2859 H         1 <0>         0.1380
     74 H36       -14.1370  -10.8433   -1.5515 H         1 <0>         0.0579
     75 H37       -14.9222   -9.4462   -0.7769 H         1 <0>         0.1060
     76 H38       -14.6363   -9.4453   -2.5337 H         1 <0>         0.0580
     77 H39       -13.0821  -12.5226   -4.4791 H         1 <0>         0.0583
     78 H40       -13.5824  -11.1240   -5.4599 H         1 <0>         0.0581
     79 H41       -12.9498  -12.5866   -6.2529 H         1 <0>         0.1061
     80 H42         0.1244    0.0811   -1.9976 H         1 <0>         0.4221
@<TRIPOS>BOND
     1    1    2 1
     2    1   39 1
     3    1   40 1
     4    1   41 1
     5    2    3 1
     6    2   42 1
     7    2   43 1
     8    3    4 1
     9    3    6 1
    10    3   80 1
    11    4    5 1
    12    4   44 1
    13    4   45 1
    14    5   46 1
    15    5   47 1
    16    5   48 1
    17    6    7 1
    18    6   49 1
    19    6   50 1
    20    7    8 1
    21    7   51 1
    22    7   52 1
    23    8    9 1
    24    8   53 1
    25    8   54 1
    26    9   10 1
    27    9   55 1
    28    9   56 1
    29   10   11 1
    30   10   57 1
    31   11   20 ar
    32   11   12 ar
    33   12   13 ar
    34   13   14 ar
    35   13   58 1
    36   14   19 ar
    37   14   15 ar
    38   15   16 ar
    39   15   59 1
    40   16   17 ar
    41   16   29 1
    42   17   18 ar
    43   17   21 1
    44   18   19 ar
    45   19   20 ar
    46   21   22 am
    47   21   60 1
    48   22   23 2
    49   22   24 am
    50   24   25 1
    51   24   61 1
    52   25   26 1
    53   25   27 1
    54   25   28 1
    55   26   62 1
    56   26   63 1
    57   26   64 1
    58   27   65 1
    59   27   66 1
    60   27   67 1
    61   28   68 1
    62   28   69 1
    63   28   70 1
    64   29   34 ar
    65   29   30 ar
    66   30   31 ar
    67   30   71 1
    68   31   32 ar
    69   31   37 1
    70   32   33 ar
    71   32   72 1
    72   33   34 ar
    73   33   35 1
    74   34   73 1
    75   35   36 1
    76   36   74 1
    77   36   75 1
    78   36   76 1
    79   37   38 1
    80   38   77 1
    81   38   78 1
    82   38   79 1
@<TRIPOS>MOLECULE
ZINC03938688
   39    41     0     0     0
SMALL
USER_CHARGES

@<TRIPOS>ATOM
      1 C1         -0.0095    1.3826    0.0704 C.ar      1 <0>        -0.0343
      2 C2          0.5587    1.0580   -1.1482 C.ar      1 <0>        -0.1609
      3 C3          1.7655    0.3862   -1.1955 C.ar      1 <0>         0.1753
      4 C4          2.4129    0.0342   -0.0053 C.ar      1 <0>        -0.1954
      5 C5          1.8304    0.3669    1.2233 C.ar      1 <0>         0.1741
      6 C6          0.6231    1.0388    1.2514 C.ar      1 <0>        -0.1610
      7 F1          2.4463    0.0317    2.3781 F         1 <0>        -0.1212
      8 C7          3.6999   -0.6827   -0.0456 C.2       1 <0>         0.6210
      9 O1          4.7383   -0.0615   -0.1600 O.2       1 <0>        -0.4669
     10 N1          3.7255   -2.0272    0.0446 N.am      1 <0>        -0.3962
     11 C8          4.8314   -2.8210    0.1249 C.2       1 <0>         0.5948
     12 N2          4.4249   -4.0694    0.1979 N.2       1 <0>        -0.5873
     13 C9          3.0869   -4.1118    0.1675 C.2       1 <0>         0.5191
     14 N3          2.6183   -2.8904    0.0808 N.2       1 <0>        -0.3480
     15 N4          2.3148   -5.2702    0.2247 N.pl3     1 <0>        -0.6226
     16 C10         2.9267   -6.5079    0.4407 C.ar      1 <0>         0.2365
     17 C11         4.1432   -6.5760    1.1080 C.ar      1 <0>        -0.1584
     18 C12         4.7450   -7.8008    1.3202 C.ar      1 <0>         0.0098
     19 C13         4.1379   -8.9586    0.8692 C.ar      1 <0>        -0.7033
     20 C14         2.9269   -8.8944    0.2046 C.ar      1 <0>         0.0112
     21 C15         2.3170   -7.6734   -0.0063 C.ar      1 <0>        -0.1777
     22 S1          4.9094  -10.5191    1.1415 S.o2      1 <0>         2.7034
     23 O2          4.4084  -11.3993    0.1448 O.2       1 <0>        -0.9656
     24 O3          6.2977  -10.2630    1.3036 O.2       1 <0>        -0.9650
     25 N5          4.3605  -11.0895    2.5960 N.pl3     1 <0>        -1.2510
     26 N6          6.1422   -2.3912    0.1281 N.pl3     1 <0>        -0.7911
     27 F2          2.3185    0.0697   -2.3868 F         1 <0>        -0.1201
     28 H1         -0.9506    1.9116    0.0998 H         1 <0>         0.1546
     29 H2          0.0576    1.3300   -2.0654 H         1 <0>         0.1549
     30 H3          0.1721    1.2963    2.1984 H         1 <0>         0.1546
     31 H4          1.3525   -5.2176    0.1147 H         1 <0>         0.4325
     32 H5          4.6180   -5.6722    1.4601 H         1 <0>         0.1556
     33 H6          5.6909   -7.8544    1.8385 H         1 <0>         0.1456
     34 H7          2.4556   -9.8005   -0.1466 H         1 <0>         0.1475
     35 H8          1.3691   -7.6243   -0.5215 H         1 <0>         0.1387
     36 H9          3.7284  -10.5673    3.1145 H         1 <0>         0.4165
     37 H10         4.6709  -11.9458    2.9296 H         1 <0>         0.4206
     38 H11         6.3422   -1.4439    0.0694 H         1 <0>         0.4292
     39 H12         6.8640   -3.0364    0.1890 H         1 <0>         0.4303
@<TRIPOS>BOND
     1    1    6 ar
     2    1    2 ar
     3    1   28 1
     4    2    3 ar
     5    2   29 1
     6    3    4 ar
     7    3   27 1
     8    4    5 ar
     9    4    8 1
    10    5    6 ar
    11    5    7 1
    12    6   30 1
    13    8    9 2
    14    8   10 am
    15   10   14 1
    16   10   11 1
    17   11   12 2
    18   11   26 1
    19   12   13 1
    20   13   14 2
    21   13   15 1
    22   15   16 1
    23   15   31 1
    24   16   21 ar
    25   16   17 ar
    26   17   18 ar
    27   17   32 1
    28   18   19 ar
    29   18   33 1
    30   19   20 ar
    31   19   22 1
    32   20   21 ar
    33   20   34 1
    34   21   35 1
    35   22   23 2
    36   22   24 2
    37   22   25 1
    38   25   36 1
    39   25   37 1
    40   26   38 1
    41   26   39 1
@<TRIPOS>MOLECULE
ZINC12504479
   39    42     0     0     0
SMALL
USER_CHARGES
tert-butyl-fluoro-BLAHone
@<TRIPOS>ATOM
      1 C1          0.0306    7.5665   -1.3573 C.3       1 <0>        -0.1435
      2 C2         -0.0131    6.9316    0.0341 C.3       1 <0>         0.0141
      3 C3         -1.4663    6.6486    0.4201 C.3       1 <0>        -0.1303
      4 C4          0.6075    7.8907    1.0520 C.3       1 <0>        -0.1484
      5 C5          0.7640    5.6405    0.0218 C.2       1 <0>         0.2640
      6 N1          2.1200    5.5432    0.0086 N.pl3     1 <0>        -0.5660
      7 H1          2.7692    6.3038    0.0059 H         1 <0>         0.4300
      8 C6          2.4322    4.2055   -0.0004 C.ar      1 <0>         0.0707
      9 C7          3.6945    3.4726   -0.0160 C.ar      1 <0>        -0.0387
     10 C8          4.9179    4.1553   -0.0241 C.ar      1 <0>        -0.0830
     11 C9          6.0889    3.4567   -0.0382 C.ar      1 <0>        -0.1479
     12 C10         6.0877    2.0644   -0.0451 C.ar      1 <0>         0.1067
     13 C11         4.9015    1.3651   -0.0371 C.ar      1 <0>        -0.1434
     14 C12         3.6874    2.0596   -0.0226 C.ar      1 <0>         0.0348
     15 C13         2.4115    1.3424   -0.0138 C.ar      1 <0>        -0.1820
     16 C14         1.2049    2.0599    0.0016 C.ar      1 <0>         0.1180
     17 C15         1.2195    3.5214    0.0080 C.ar      1 <0>         0.0317
     18 N2          0.2386    4.4495    0.0214 N.2       1 <0>        -0.4565
     19 C16        -0.0162    1.3425    0.0094 C.2       1 <0>        -0.2034
     20 C17         0.0021   -0.0041    0.0020 C.2       1 <0>         0.1350
     21 N3          1.1742   -0.7011   -0.0125 N.am      1 <0>        -0.6142
     22 H2          1.1491   -1.6708   -0.0168 H         1 <0>         0.4195
     23 C18         2.3662   -0.0731   -0.0205 C.2       1 <0>         0.5428
     24 O1          3.3998   -0.7196   -0.0338 O.2       1 <0>        -0.5363
     25 F1          7.2604    1.3938   -0.0600 F         1 <0>        -0.1343
     26 H3         -0.4115    6.8833   -2.0824 H         1 <0>         0.0650
     27 H4         -0.5315    8.5004   -1.3483 H         1 <0>         0.0730
     28 H5          1.0659    7.7682   -1.6323 H         1 <0>         0.0547
     29 H6         -1.4974    6.1963    1.4114 H         1 <0>         0.0620
     30 H7         -2.0283    7.5824    0.4291 H         1 <0>         0.0642
     31 H8         -1.9084    5.9653   -0.3050 H         1 <0>         0.0701
     32 H9          1.6428    8.0923    0.7770 H         1 <0>         0.0535
     33 H10         0.0454    8.8245    1.0609 H         1 <0>         0.0757
     34 H11         0.5764    7.4384    2.0432 H         1 <0>         0.0638
     35 H12         4.9335    5.2351   -0.0195 H         1 <0>         0.1298
     36 H13         7.0282    3.9897   -0.0443 H         1 <0>         0.1393
     37 H14         4.9085    0.2852   -0.0418 H         1 <0>         0.1812
     38 H15        -0.9571    1.8725    0.0168 H         1 <0>         0.1577
     39 H16        -0.9330   -0.5444    0.0080 H         1 <0>         0.1706
@<TRIPOS>BOND
     1    1    2 1
     2    1   26 1
     3    1   27 1
     4    1   28 1
     5    2    3 1
     6    2    4 1
     7    2    5 1
     8    3   29 1
     9    3   30 1
    10    3   31 1
    11    4   32 1
    12    4   33 1
    13    4   34 1
    14    5   18 2
    15    5    6 1
    16    6    7 1
    17    6    8 1
    18    8   17 ar
    19    8    9 ar
    20    9   14 ar
    21    9   10 ar
    22   10   11 ar
    23   10   35 1
    24   11   12 ar
    25   11   36 1
    26   12   13 ar
    27   12   25 1
    28   13   14 ar
    29   13   37 1
    30   14   15 ar
    31   15   23 1
    32   15   16 ar
    33   16   17 ar
    34   16   19 1
    35   17   18 1
    36   19   20 2
    37   19   38 1
    38   20   21 1
    39   20   39 1
    40   21   22 1
    41   21   23 am
    42   23   24 2
@<TRIPOS>MOLECULE
ZINC28704669
   58    61     0     0     0
SMALL
USER_CHARGES
3-[5-[(Z)-[6-(3,5-dimethoxyphenyl)-2-oxo-indolin-3-ylidene]methyl]-2,4-dimethyl-1H-pyrrol-3-yl]propanoic acid
@<TRIPOS>ATOM
      1 C1         -0.1792    2.2943    0.0726 C.3       1 <0>        -0.0930
      2 C2         -0.8087    1.8468    1.3666 C.2       1 <0>        -0.0858
      3 C3         -2.1656    1.6059    1.5898 C.2       1 <0>        -0.1608
      4 C4         -2.3149    1.2182    2.8810 C.2       1 <0>         0.0640
      5 N1         -1.0994    1.2151    3.4840 N.pl3     1 <0>        -0.5195
      6 H1         -1.0115    0.9309    4.5430 H         1 <0>         0.4399
      7 C5         -0.1503    1.6021    2.5622 C.2       1 <0>        -0.0243
      8 C6          1.2351    1.7264    2.7927 C.2       1 <0>         0.1051
      9 C7          1.6959    2.1361    4.0299 C.2       1 <0>        -0.2353
     10 C8          3.0979    2.1738    4.5000 C.ar      1 <0>        -0.0756
     11 C9          4.3125    1.8521    3.8990 C.ar      1 <0>        -0.0736
     12 C10         5.4870    2.0028    4.6020 C.ar      1 <0>        -0.1201
     13 C11         5.4590    2.4831    5.9128 C.ar      1 <0>        -0.0287
     14 C12         4.2489    2.8121    6.5157 C.ar      1 <0>        -0.1202
     15 C13         3.0604    2.6636    5.8140 C.ar      1 <0>         0.1331
     16 N2          1.7402    2.9130    6.1701 N.am      1 <0>        -0.6654
     17 C14         0.8987    2.6219    5.1637 C.2       1 <0>         0.5638
     18 O1         -0.3135    2.7400    5.1877 O.2       1 <0>        -0.5148
     19 C15         6.7262    2.6439    6.6664 C.ar      1 <0>         0.0398
     20 C16         6.7050    3.1286    7.9726 C.ar      1 <0>        -0.1807
     21 C17         7.8901    3.2726    8.6757 C.ar      1 <0>         0.1681
     22 C18         9.0978    2.9453    8.0769 C.ar      1 <0>        -0.2989
     23 C19         9.1229    2.4675    6.7748 C.ar      1 <0>         0.1687
     24 C20         7.9410    2.3161    6.0679 C.ar      1 <0>        -0.1783
     25 O2         10.3082    2.1480    6.1917 O.3       1 <0>        -0.3121
     26 C21        11.4876    2.3286    6.9781 C.3       1 <0>         0.0233
     27 O3          7.8698    3.7400    9.9517 O.3       1 <0>        -0.3131
     28 C22         9.1287    3.8687   10.6155 C.3       1 <0>         0.0234
     29 C23        -3.6204    0.8563    3.5409 C.3       1 <0>        -0.0902
     30 C24        -3.2696    1.7485    0.5740 C.3       1 <0>        -0.0298
     31 C25        -3.4629    0.4196   -0.1591 C.3       1 <0>        -0.1464
     32 C26        -4.5669    0.5622   -1.1749 C.2       1 <0>         0.4580
     33 O4         -5.1404    1.6183   -1.2996 O.co2     1 <0>        -0.6424
     34 O5         -4.9133   -0.4841   -1.9410 O.co2     1 <0>        -0.7802
     35 H2         -0.9586    2.4031   -0.6959 H         1 <0>         0.0755
     36 H3          0.5570    1.5456   -0.2552 H         1 <0>         0.0652
     37 H4          0.3235    3.2608    0.2244 H         1 <0>         0.0622
     38 H5          1.9493    1.4974    1.9880 H         1 <0>         0.1517
     39 H6          4.3327    1.4803    2.8852 H         1 <0>         0.1310
     40 H7          6.4295    1.7492    4.1397 H         1 <0>         0.1328
     41 H8          4.2343    3.1834    7.5297 H         1 <0>         0.1295
     42 H9          1.5046    3.3001    7.1724 H         1 <0>         0.4383
     43 H10         5.7655    3.3878    8.4378 H         1 <0>         0.1356
     44 H11        10.0207    3.0631    8.6254 H         1 <0>         0.1342
     45 H12         7.9612    1.9447    5.0540 H         1 <0>         0.1385
     46 H13        12.3692    2.0345    6.3897 H         1 <0>         0.1040
     47 H14        11.4249    1.7044    7.8817 H         1 <0>         0.0558
     48 H15        11.5764    3.3859    7.2683 H         1 <0>         0.0559
     49 H16         8.9688    4.2544   11.6332 H         1 <0>         0.1036
     50 H17         9.7689    4.5661   10.0554 H         1 <0>         0.0561
     51 H18         9.6173    2.8846   10.6689 H         1 <0>         0.0561
     52 H19        -3.4371    0.5818    4.5902 H         1 <0>         0.0595
     53 H20        -4.0744    0.0047    3.0130 H         1 <0>         0.0823
     54 H21        -4.3026    1.7183    3.5011 H         1 <0>         0.0820
     55 H22        -4.2040    2.0250    1.0844 H         1 <0>         0.0647
     56 H23        -3.0021    2.5316   -0.1508 H         1 <0>         0.0670
     57 H24        -2.5285    0.1431   -0.6695 H         1 <0>         0.0615
     58 H25        -3.7304   -0.3635    0.5656 H         1 <0>         0.0592
@<TRIPOS>BOND
     1    1    2 1
     2    1   35 1
     3    1   36 1
     4    1   37 1
     5    2    7 2
     6    2    3 1
     7    3    4 2
     8    3   30 1
     9    4    5 1
    10    4   29 1
    11    5    6 1
    12    5    7 1
    13    7    8 1
    14    8    9 2
    15    8   38 1
    16    9   17 1
    17    9   10 1
    18   10   15 ar
    19   10   11 ar
    20   11   12 ar
    21   11   39 1
    22   12   13 ar
    23   12   40 1
    24   13   14 ar
    25   13   19 1
    26   14   15 ar
    27   14   41 1
    28   15   16 1
    29   16   17 am
    30   16   42 1
    31   17   18 2
    32   19   24 ar
    33   19   20 ar
    34   20   21 ar
    35   20   43 1
    36   21   22 ar
    37   21   27 1
    38   22   23 ar
    39   22   44 1
    40   23   24 ar
    41   23   25 1
    42   24   45 1
    43   25   26 1
    44   26   46 1
    45   26   47 1
    46   26   48 1
    47   27   28 1
    48   28   49 1
    49   28   50 1
    50   28   51 1
    51   29   52 1
    52   29   53 1
    53   29   54 1
    54   30   31 1
    55   30   55 1
    56   30   56 1
    57   31   32 1
    58   31   57 1
    59   31   58 1
    60   32   33 2
    61   32   34 1
@<TRIPOS>MOLECULE
ZINC14965294
   63    67     0     0     0
SMALL
USER_CHARGES
4-[[2-[[4-chloro-3-[[(2S)-1-methylpyrrolidin-2-yl]methoxy]phenyl]amino]-1,3-benzoxazol-5-yl]oxy]-N-methyl-pyridine-2-carboxamide
@<TRIPOS>ATOM
      1 C1        -13.7281    0.6446    5.1022 C.3       1 <0>         0.0839
      2 N1        -12.2870    0.5892    4.8445 N.am      1 <0>        -0.7127
      3 C2        -11.8065    0.9193    3.6293 C.2       1 <0>         0.5702
      4 O1        -12.5687    1.2629    2.7475 O.2       1 <0>        -0.5245
      5 C3        -10.3489    0.8632    3.3687 C.ar      1 <0>         0.1155
      6 C4         -9.8593    1.2108    2.1139 C.ar      1 <0>        -0.1328
      7 C5         -8.4874    1.1472    1.8837 C.ar      1 <0>         0.1579
      8 C6         -7.6590    0.7469    2.9288 C.ar      1 <0>        -0.2285
      9 C7         -8.2201    0.4224    4.1506 C.ar      1 <0>         0.1389
     10 N2         -9.5215    0.4868    4.3368 N.ar      1 <0>        -0.4773
     11 O2         -7.9699    1.4727    0.6718 O.3       1 <0>        -0.2394
     12 C8         -6.6170    1.4887    0.5390 C.ar      1 <0>         0.0926
     13 C9         -5.9388    2.7028    0.5025 C.ar      1 <0>        -0.0970
     14 C10        -4.5659    2.7320    0.3685 C.ar      1 <0>        -0.0616
     15 C11        -3.8548    1.5472    0.2683 C.ar      1 <0>         0.0039
     16 C12        -4.5323    0.3193    0.3039 C.ar      1 <0>         0.0682
     17 C13        -5.9209    0.2985    0.4402 C.ar      1 <0>        -0.0835
     18 N3         -3.5863   -0.6518    0.1813 N.2       1 <0>        -0.5055
     19 C14        -2.4114   -0.0836    0.0855 C.2       1 <0>         0.4915
     20 O3         -2.5403    1.2540    0.1319 O.3       1 <0>        -0.2175
     21 N4         -1.2172   -0.7574   -0.0492 N.pl3     1 <0>        -0.6094
     22 C15        -0.0087   -0.0545   -0.0052 C.ar      1 <0>         0.2115
     23 C16         0.0728    1.1455    0.6901 C.ar      1 <0>        -0.1617
     24 C17         1.2661    1.8401    0.7333 C.ar      1 <0>        -0.0313
     25 C18         2.3820    1.3433    0.0850 C.ar      1 <0>        -0.0837
     26 C19         2.3058    0.1443   -0.6114 C.ar      1 <0>         0.1596
     27 C20         1.1101   -0.5549   -0.6566 C.ar      1 <0>        -0.2268
     28 O4          3.4031   -0.3429   -1.2486 O.3       1 <0>        -0.3096
     29 C21         3.2520   -1.5812   -1.9457 C.3       1 <0>         0.0375
     30 C22         4.5828   -1.9666   -2.5949 C.3       1 <0>         0.0329
     31 H1          4.9619   -1.1434   -3.2005 H         1 <0>         0.1534
     32 C23         4.4135   -3.2359   -3.4573 C.3       1 <0>        -0.1411
     33 C24         5.7173   -4.0349   -3.2546 C.3       1 <0>        -0.1483
     34 C25         6.5647   -3.1813   -2.2869 C.3       1 <0>        -0.0069
     35 C26         6.2123   -1.1603   -0.9752 C.3       1 <0>        -0.0397
     36 Cl1         3.8796    2.2194    0.1418 Cl        1 <0>        -0.0465
     37 H2        -14.0865    1.6619    4.9448 H         1 <0>         0.0645
     38 H3        -14.2452   -0.0321    4.4218 H         1 <0>         0.0644
     39 H4        -13.9249    0.3453    6.1316 H         1 <0>         0.0810
     40 H5        -11.6787    0.3149    5.5484 H         1 <0>         0.4138
     41 H6        -10.5332    1.5213    1.3292 H         1 <0>         0.1610
     42 H7         -6.5898    0.6909    2.7871 H         1 <0>         0.1446
     43 H8         -7.5811    0.1111    4.9637 H         1 <0>         0.1696
     44 H9         -6.4904    3.6281    0.5796 H         1 <0>         0.1566
     45 H10        -4.0459    3.6782    0.3412 H         1 <0>         0.1500
     46 H11        -6.4492   -0.6430    0.4687 H         1 <0>         0.1485
     47 H12        -1.2145   -1.7193   -0.1745 H         1 <0>         0.4450
     48 H13        -0.7985    1.5378    1.1935 H         1 <0>         0.1477
     49 H14         1.3276    2.7728    1.2742 H         1 <0>         0.1543
     50 H15         1.0489   -1.4874   -1.1980 H         1 <0>         0.1445
     51 H16         2.9515   -2.3590   -1.2437 H         1 <0>         0.0895
     52 H17         2.4893   -1.4733   -2.7168 H         1 <0>         0.1131
     53 H18         3.5568   -3.8156   -3.1135 H         1 <0>         0.1030
     54 H19         4.2933   -2.9673   -4.5068 H         1 <0>         0.1171
     55 H20         5.5007   -5.0069   -2.8115 H         1 <0>         0.1022
     56 H21         6.2362   -4.1601   -4.2050 H         1 <0>         0.1137
     57 H22         7.1090   -3.8213   -1.5925 H         1 <0>         0.1399
     58 H23         7.2575   -2.5503   -2.8437 H         1 <0>         0.1341
     59 H24         5.4523   -0.5277   -0.5165 H         1 <0>         0.1326
     60 H25         6.9334   -1.4688   -0.2183 H         1 <0>         0.1248
     61 H26         6.7246   -0.6026   -1.7592 H         1 <0>         0.1192
     62 N5          5.5663   -2.3627   -1.5897 N.4       1 <0>        -0.3946
     63 H27         5.1116   -2.9146   -0.8528 H         1 <0>         0.4280
@<TRIPOS>BOND
     1    1    2 1
     2    1   37 1
     3    1   38 1
     4    1   39 1
     5    2    3 am
     6    2   40 1
     7    3    4 2
     8    3    5 1
     9    5   10 ar
    10    5    6 ar
    11    6    7 ar
    12    6   41 1
    13    7    8 ar
    14    7   11 1
    15    8    9 ar
    16    8   42 1
    17    9   10 ar
    18    9   43 1
    19   11   12 1
    20   12   17 ar
    21   12   13 ar
    22   13   14 ar
    23   13   44 1
    24   14   15 ar
    25   14   45 1
    26   15   20 1
    27   15   16 ar
    28   16   17 ar
    29   16   18 1
    30   17   46 1
    31   18   19 2
    32   19   20 1
    33   19   21 1
    34   21   22 1
    35   21   47 1
    36   22   27 ar
    37   22   23 ar
    38   23   24 ar
    39   23   48 1
    40   24   25 ar
    41   24   49 1
    42   25   26 ar
    43   25   36 1
    44   26   27 ar
    45   26   28 1
    46   27   50 1
    47   28   29 1
    48   29   30 1
    49   29   51 1
    50   29   52 1
    51   30   31 1
    52   30   32 1
    53   30   62 1
    54   32   33 1
    55   32   53 1
    56   32   54 1
    57   33   34 1
    58   33   55 1
    59   33   56 1
    60   34   57 1
    61   34   58 1
    62   34   62 1
    63   35   59 1
    64   35   60 1
    65   35   61 1
    66   35   62 1
    67   62   63 1
@<TRIPOS>MOLECULE
ZINC03834198
   55    58     0     0     0
SMALL
USER_CHARGES

@<TRIPOS>ATOM
      1 C1          2.2102    1.3214   -1.5438 C.3       1 <0>        -0.0473
      2 N1          2.0302   -0.1310   -1.4177 N.4       1 <0>        -0.3861
      3 C2          2.8485   -0.8135   -2.4272 C.3       1 <0>        -0.0039
      4 C3          2.6029   -2.3220   -2.3537 C.3       1 <0>        -0.1426
      5 C4          2.9828   -2.8281   -0.9591 C.3       1 <0>        -0.0980
      6 C5          2.1768   -2.0570    0.0901 C.3       1 <0>        -0.1436
      7 C6          2.4382   -0.5583   -0.0740 C.3       1 <0>        -0.0065
      8 C7          2.6653   -4.3210   -0.8526 C.3       1 <0>         0.0553
      9 O1          3.1265   -4.8175    0.4056 O.3       1 <0>        -0.2959
     10 C8          2.9210   -6.1358    0.6612 C.ar      1 <0>         0.1621
     11 C9          2.2972   -6.9233   -0.2811 C.ar      1 <0>        -0.1791
     12 C10         2.0867   -8.2816   -0.0149 C.ar      1 <0>         0.2018
     13 C11         2.5192   -8.8246    1.2204 C.ar      1 <0>        -0.1784
     14 C12         3.1508   -8.0026    2.1612 C.ar      1 <0>        -0.1424
     15 C13         3.3512   -6.6812    1.8787 C.ar      1 <0>         0.1099
     16 O2          3.9702   -5.8850    2.7909 O.3       1 <0>        -0.3030
     17 C14         4.3854   -6.4992    4.0125 C.3       1 <0>         0.0198
     18 C15         2.2930  -10.2009    1.4605 C.ar      1 <0>         0.4667
     19 N2          1.6881  -10.9114    0.5174 N.ar      1 <0>        -0.5768
     20 C16         1.3012  -10.3606   -0.6222 C.ar      1 <0>         0.3478
     21 N3          1.4842   -9.0917   -0.8996 N.ar      1 <0>        -0.5414
     22 N4          2.6915  -10.7885    2.6441 N.pl3     1 <0>        -0.6296
     23 C17         2.5831  -12.1741    2.8088 C.ar      1 <0>         0.1376
     24 C18         2.4560  -12.9987    1.6992 C.ar      1 <0>        -0.1039
     25 C19         2.3491  -14.3660    1.8644 C.ar      1 <0>        -0.0732
     26 C20         2.3685  -14.9152    3.1341 C.ar      1 <0>        -0.0857
     27 C21         2.4949  -14.0974    4.2430 C.ar      1 <0>        -0.1007
     28 C22         2.6081  -12.7284    4.0841 C.ar      1 <0>         0.0686
     29 F1          2.7372  -11.9301    5.1664 F         1 <0>        -0.1332
     30 Br1         2.2212  -16.7875    3.3546 Br        1 <0>        -0.0295
     31 H1          3.2589    1.5727   -1.3848 H         1 <0>         0.1219
     32 H2          1.9075    1.6398   -2.5414 H         1 <0>         0.1242
     33 H3          1.5979    1.8295   -0.7989 H         1 <0>         0.1242
     34 H4          2.5792   -0.4499   -3.4189 H         1 <0>         0.1343
     35 H5          3.9024   -0.6078   -2.2397 H         1 <0>         0.1306
     36 H6          1.5493   -2.5288   -2.5414 H         1 <0>         0.0934
     37 H7          3.2127   -2.8271   -3.1028 H         1 <0>         0.1176
     38 H8          4.0478   -2.6678   -0.7908 H         1 <0>         0.1030
     39 H9          1.1143   -2.2583   -0.0469 H         1 <0>         0.0893
     40 H10         2.4820   -2.3726    1.0878 H         1 <0>         0.1210
     41 H11         3.5008   -0.3580    0.0634 H         1 <0>         0.1299
     42 H12         1.8660   -0.0063    0.6716 H         1 <0>         0.1325
     43 H13         1.5883   -4.4698   -0.9292 H         1 <0>         0.0742
     44 H14         3.1645   -4.8571   -1.6597 H         1 <0>         0.0787
     45 H15         1.9724   -6.4960   -1.2182 H         1 <0>         0.1540
     46 H16         3.4818   -8.4122    3.1042 H         1 <0>         0.1414
     47 H17         4.8638   -5.7549    4.6491 H         1 <0>         0.1093
     48 H18         3.5165   -6.9116    4.5254 H         1 <0>         0.0597
     49 H19         5.0925   -7.2996    3.7947 H         1 <0>         0.0600
     50 H20         0.8133  -10.9840   -1.3569 H         1 <0>         0.2036
     51 H21         3.0467  -10.2411    3.3618 H         1 <0>         0.4241
     52 H22         2.4404  -12.5714    0.7074 H         1 <0>         0.1818
     53 H23         2.2499  -15.0072    1.0010 H         1 <0>         0.1463
     54 H24         2.5094  -14.5289    5.2329 H         1 <0>         0.1515
     55 H25         1.0589   -0.3624   -1.5626 H         1 <0>         0.4246
@<TRIPOS>BOND
     1    1    2 1
     2    1   31 1
     3    1   32 1
     4    1   33 1
     5    2    7 1
     6    2    3 1
     7    2   55 1
     8    3    4 1
     9    3   34 1
    10    3   35 1
    11    4    5 1
    12    4   36 1
    13    4   37 1
    14    5    6 1
    15    5    8 1
    16    5   38 1
    17    6    7 1
    18    6   39 1
    19    6   40 1
    20    7   41 1
    21    7   42 1
    22    8    9 1
    23    8   43 1
    24    8   44 1
    25    9   10 1
    26   10   15 ar
    27   10   11 ar
    28   11   12 ar
    29   11   45 1
    30   12   21 ar
    31   12   13 ar
    32   13   14 ar
    33   13   18 ar
    34   14   15 ar
    35   14   46 1
    36   15   16 1
    37   16   17 1
    38   17   47 1
    39   17   48 1
    40   17   49 1
    41   18   19 ar
    42   18   22 1
    43   19   20 ar
    44   20   21 ar
    45   20   50 1
    46   22   23 1
    47   22   51 1
    48   23   28 ar
    49   23   24 ar
    50   24   25 ar
    51   24   52 1
    52   25   26 ar
    53   25   53 1
    54   26   27 ar
    55   26   30 1
    56   27   28 ar
    57   27   54 1
    58   28   29 1
@<TRIPOS>MOLECULE
ZINC18825334
   48    52     0     0     0
SMALL
USER_CHARGES
4-[[9-chloro-7-(2,6-difluorophenyl)-5H-pyrimido[5,4-d][2]benzazepin-2-yl]amino]benzoic acid
@<TRIPOS>ATOM
      1 C1          2.2776    0.3903   -0.5698 C.ar      1 <0>        -0.0509
      2 C2          1.1421    1.1799   -0.5633 C.ar      1 <0>        -0.1622
      3 C3         -0.1043    0.6031   -0.4066 C.ar      1 <0>         0.1578
      4 C4         -0.2153   -0.7818   -0.2549 C.ar      1 <0>        -0.1229
      5 C5          0.9369   -1.5728   -0.2630 C.ar      1 <0>         0.1499
      6 C6          2.1761   -0.9809   -0.4208 C.ar      1 <0>        -0.1633
      7 F1          0.8397   -2.9124   -0.1175 F         1 <0>        -0.1231
      8 C7         -1.5453   -1.4071   -0.0861 C.2       1 <0>         0.2536
      9 N1         -2.1650   -1.7678   -1.1512 N.2       1 <0>        -0.4634
     10 C8         -3.4819   -2.3942   -1.1195 C.3       1 <0>         0.0964
     11 C9         -4.4898   -1.4068   -0.6038 C.ar      1 <0>        -0.2574
     12 C10        -5.5098   -0.9746   -1.4374 C.ar      1 <0>         0.2162
     13 N2         -6.3794   -0.0861   -0.9844 N.ar      1 <0>        -0.5366
     14 C11        -6.2835    0.3896    0.2490 C.ar      1 <0>         0.5701
     15 N3         -5.3286   -0.0031    1.0745 N.ar      1 <0>        -0.5552
     16 C12        -4.4183   -0.9022    0.6848 C.ar      1 <0>         0.2552
     17 C13        -3.3769   -1.3202    1.6484 C.ar      1 <0>        -0.0142
     18 C14        -2.0497   -1.5581    1.2881 C.ar      1 <0>        -0.0587
     19 C15        -1.1358   -1.9616    2.2712 C.ar      1 <0>        -0.0846
     20 C16        -1.5377   -2.1181    3.5805 C.ar      1 <0>        -0.0213
     21 C17        -2.8549   -1.8776    3.9370 C.ar      1 <0>        -0.0981
     22 C18        -3.7670   -1.4826    2.9833 C.ar      1 <0>        -0.0636
     23 Cl1        -0.3917   -2.6181    4.7848 Cl        1 <0>        -0.0577
     24 N4         -7.2095    1.3241    0.6851 N.pl3     1 <0>        -0.6261
     25 C19        -8.1519    1.8366   -0.2021 C.ar      1 <0>         0.1418
     26 C20        -9.4292    2.1564    0.2498 C.ar      1 <0>        -0.1598
     27 C21       -10.3616    2.6678   -0.6235 C.ar      1 <0>        -0.0590
     28 C22       -10.0281    2.8564   -1.9684 C.ar      1 <0>        -0.1232
     29 C23        -8.7457    2.5290   -2.4200 C.ar      1 <0>        -0.0681
     30 C24        -7.8166    2.0227   -1.5403 C.ar      1 <0>        -0.1261
     31 C25       -11.0259    3.3995   -2.9077 C.2       1 <0>         0.4893
     32 O1        -10.7345    3.5633   -4.0760 O.co2     1 <0>        -0.6323
     33 F2         -1.2128    1.3755   -0.4056 F         1 <0>        -0.1209
     34 H1          3.2486    0.8468   -0.6927 H         1 <0>         0.1483
     35 H2          1.2295    2.2500   -0.6806 H         1 <0>         0.1486
     36 H3          3.0673   -1.5909   -0.4273 H         1 <0>         0.1485
     37 H4         -3.4574   -3.2644   -0.4636 H         1 <0>         0.0791
     38 H5         -3.7607   -2.7058   -2.1261 H         1 <0>         0.1121
     39 H6         -5.5938   -1.3585   -2.4434 H         1 <0>         0.1778
     40 H7         -0.1076   -2.1514    2.0006 H         1 <0>         0.1393
     41 H8         -3.1667   -1.9996    4.9638 H         1 <0>         0.1452
     42 H9         -4.7921   -1.2962    3.2678 H         1 <0>         0.1468
     43 H10        -7.2009    1.6210    1.6085 H         1 <0>         0.4210
     44 H11        -9.6873    2.0066    1.2877 H         1 <0>         0.1185
     45 H12       -11.3510    2.9199   -0.2713 H         1 <0>         0.1349
     46 H13        -8.4848    2.6738   -3.4580 H         1 <0>         0.1294
     47 H14        -6.8261    1.7696   -1.8885 H         1 <0>         0.1253
     48 O2        -12.2611    3.7145   -2.4709 O.co2     1 <0>        -0.7564
@<TRIPOS>BOND
     1    1    6 ar
     2    1    2 ar
     3    1   34 1
     4    2    3 ar
     5    2   35 1
     6    3    4 ar
     7    3   33 1
     8    4    5 ar
     9    4    8 1
    10    5    6 ar
    11    5    7 1
    12    6   36 1
    13    8   18 1
    14    8    9 2
    15    9   10 1
    16   10   11 1
    17   10   37 1
    18   10   38 1
    19   11   16 ar
    20   11   12 ar
    21   12   13 ar
    22   12   39 1
    23   13   14 ar
    24   14   15 ar
    25   14   24 1
    26   15   16 ar
    27   16   17 1
    28   17   22 ar
    29   17   18 ar
    30   18   19 ar
    31   19   20 ar
    32   19   40 1
    33   20   21 ar
    34   20   23 1
    35   21   22 ar
    36   21   41 1
    37   22   42 1
    38   24   25 1
    39   24   43 1
    40   25   30 ar
    41   25   26 ar
    42   26   27 ar
    43   26   44 1
    44   27   28 ar
    45   27   45 1
    46   28   29 ar
    47   28   31 1
    48   29   30 ar
    49   29   46 1
    50   30   47 1
    51   31   32 2
    52   31   48 1
@<TRIPOS>MOLECULE
ZINC29047551
   49    53     0     0     0
SMALL
USER_CHARGES
5-isopropyl-6-(5-methyl-1,3,4-oxadiazol-2-yl)-N-(2-methyl-1H-pyrrolo[2,3-b]pyridin-5-yl)pyrrolo[2,1-f][1,2,4]triazin-4-amine
@<TRIPOS>ATOM
      1 C1          0.2189   -1.5891   -0.1477 C.3       1 <0>        -0.0980
      2 C2          0.7832   -0.2038    0.0353 C.2       1 <0>         0.0885
      3 C3          1.9855    0.2026   -0.4020 C.2       1 <0>        -0.1981
      4 C4          2.1303    1.6048   -0.0068 C.ar      1 <0>        -0.1352
      5 C5          3.1353    2.5624   -0.1625 C.ar      1 <0>        -0.0151
      6 C6          2.9145    3.8292    0.3596 C.ar      1 <0>         0.0537
      7 C7          1.7133    4.0967    1.0120 C.ar      1 <0>         0.1283
      8 N1          0.7835    3.1756    1.1443 N.ar      1 <0>        -0.4811
      9 C8          0.9421    1.9491    0.6648 C.ar      1 <0>         0.2869
     10 N2          0.1443    0.8277    0.6691 N.pl3     1 <0>        -0.5911
     11 H1         -0.8619    0.6773    1.0874 H         1 <0>         0.4446
     12 N3          3.8888    4.8273    0.2323 N.pl3     1 <0>        -0.6248
     13 C9          5.2277    4.4953    0.2825 C.2       1 <0>         0.5366
     14 C10         6.2180    5.5077    0.2719 C.2       1 <0>        -0.1027
     15 C11         6.1641    6.8838    0.2182 C.2       1 <0>        -0.0236
     16 C12         7.4943    7.3450    0.2381 C.2       1 <0>        -0.1020
     17 C13         8.3145    6.2331    0.3032 C.2       1 <0>         0.1098
     18 N4          7.5470    5.1304    0.3235 N.pl3     1 <0>        -0.2269
     19 N5          7.8476    3.7615    0.3842 N.2       1 <0>        -0.3598
     20 C14         6.8858    2.8803    0.3910 C.2       1 <0>         0.3433
     21 N6          5.6010    3.2281    0.3465 N.2       1 <0>        -0.6207
     22 C15         7.9330    8.7560    0.1973 C.2       1 <0>         0.2497
     23 N7          7.1554    9.8119    0.1364 N.2       1 <0>        -0.2693
     24 N8          7.8820   10.8735    0.1167 N.2       1 <0>        -0.2866
     25 C16         9.1410   10.5411    0.1638 C.2       1 <0>         0.1637
     26 O1          9.2060    9.1987    0.2217 O.3       1 <0>        -0.2222
     27 C17        10.3123   11.4893    0.1613 C.3       1 <0>        -0.0630
     28 C18         4.9203    7.7320    0.1507 C.3       1 <0>        -0.0132
     29 C19         4.8750    8.6678    1.3603 C.3       1 <0>        -0.1606
     30 C20         4.9375    8.5610   -1.1351 C.3       1 <0>        -0.1601
     31 H2          0.9451   -2.2121   -0.6904 H         1 <0>         0.0895
     32 H3         -0.7167   -1.5308   -0.7233 H         1 <0>         0.0766
     33 H4          0.0164   -2.0355    0.8370 H         1 <0>         0.0767
     34 H5          2.7096   -0.3925   -0.9386 H         1 <0>         0.1489
     35 H6          4.0563    2.3242   -0.6737 H         1 <0>         0.1571
     36 H7          1.5415    5.0824    1.4186 H         1 <0>         0.1614
     37 H8          3.5870    5.8758    0.0923 H         1 <0>         0.4459
     38 H9          9.3940    6.2487    0.3326 H         1 <0>         0.1914
     39 H10         7.1404    1.8318    0.4382 H         1 <0>         0.2219
     40 H11        11.2492   10.9148    0.2084 H         1 <0>         0.0937
     41 H12        10.2465   12.1556    1.0340 H         1 <0>         0.1059
     42 H13        10.2962   12.0895   -0.7604 H         1 <0>         0.1061
     43 H14         4.0420    7.0698    0.1570 H         1 <0>         0.0586
     44 H15         3.9671    9.2869    1.3111 H         1 <0>         0.0657
     45 H16         5.7626    9.3175    1.3547 H         1 <0>         0.0928
     46 H17         4.8627    8.0717    2.2847 H         1 <0>         0.0498
     47 H18         4.0296    9.1801   -1.1843 H         1 <0>         0.0660
     48 H19         4.9701    7.8882   -2.0047 H         1 <0>         0.0497
     49 H20         5.8251    9.2107   -1.1406 H         1 <0>         0.0914
@<TRIPOS>BOND
     1    1    2 1
     2    1   31 1
     3    1   32 1
     4    1   33 1
     5    2   10 1
     6    2    3 2
     7    3    4 1
     8    3   34 1
     9    4    9 ar
    10    4    5 ar
    11    5    6 ar
    12    5   35 1
    13    6    7 ar
    14    6   12 1
    15    7    8 ar
    16    7   36 1
    17    8    9 ar
    18    9   10 1
    19   10   11 1
    20   12   13 1
    21   12   37 1
    22   13   21 2
    23   13   14 1
    24   14   18 1
    25   14   15 2
    26   15   16 1
    27   15   28 1
    28   16   17 2
    29   16   22 1
    30   17   18 1
    31   17   38 1
    32   18   19 1
    33   19   20 2
    34   20   21 1
    35   20   39 1
    36   22   26 1
    37   22   23 2
    38   23   24 1
    39   24   25 2
    40   25   26 1
    41   25   27 1
    42   27   40 1
    43   27   41 1
    44   27   42 1
    45   28   29 1
    46   28   30 1
    47   28   43 1
    48   29   44 1
    49   29   45 1
    50   29   46 1
    51   30   47 1
    52   30   48 1
    53   30   49 1
@<TRIPOS>MOLECULE
ZINC03834032
   40    42     0     0     0
SMALL
USER_CHARGES
3-[2,4-dimethyl-5-[(2-oxoindolin-3-ylidene)methyl]-1H-pyrrol-3-yl]propanoic acid
@<TRIPOS>ATOM
      1 C1          2.3355    2.0608   -0.1114 C.3       1 <0>        -0.0903
      2 C2          0.8597    2.3235   -0.2670 C.2       1 <0>        -0.0813
      3 C3          0.2566    3.5618   -0.4946 C.2       1 <0>        -0.1584
      4 C4         -1.0833    3.3665   -0.5730 C.2       1 <0>         0.0723
      5 N1         -1.3469    2.0457   -0.4087 N.pl3     1 <0>        -0.5120
      6 H1         -2.2268    1.6378   -0.4247 H         1 <0>         0.4155
      7 C5         -0.1556    1.3809   -0.2113 C.2       1 <0>        -0.0360
      8 C6          0.0021   -0.0041    0.0020 C.2       1 <0>         0.1041
      9 C7         -0.9659   -0.7120    0.6886 C.2       1 <0>        -0.2329
     10 C8         -1.0457   -2.1775    0.8763 C.ar      1 <0>        -0.0833
     11 C9         -0.2455   -3.2373    0.4616 C.ar      1 <0>        -0.0729
     12 C10        -0.5899   -4.5293    0.8035 C.ar      1 <0>        -0.1392
     13 C11        -1.7274   -4.7687    1.5567 C.ar      1 <0>        -0.0940
     14 C12        -2.5279   -3.7246    1.9729 C.ar      1 <0>        -0.1371
     15 C13        -2.1978   -2.4158    1.6381 C.ar      1 <0>         0.1338
     16 N2         -2.8154   -1.2041    1.9219 N.am      1 <0>        -0.6544
     17 C14        -2.1345   -0.1721    1.3953 C.2       1 <0>         0.5549
     18 O1         -2.4356    1.0049    1.4857 O.2       1 <0>        -0.5122
     19 C15        -2.1123    4.4415   -0.8108 C.3       1 <0>        -0.0923
     20 C16         0.9690    4.8829   -0.6298 C.3       1 <0>        -0.0291
     21 C17         1.3229    5.1235   -2.0987 C.3       1 <0>        -0.1463
     22 C18         2.0353    6.4446   -2.2339 C.2       1 <0>         0.4582
     23 O2          2.2389    7.1240   -1.2557 O.co2     1 <0>        -0.6425
     24 H2          2.7719    1.8501   -1.0877 H         1 <0>         0.0707
     25 H3          2.8171    2.9382    0.3202 H         1 <0>         0.0733
     26 H4          2.4847    1.2042    0.5458 H         1 <0>         0.0583
     27 H5          0.8793   -0.5115   -0.3712 H         1 <0>         0.1497
     28 H6          0.6417   -3.0498   -0.1250 H         1 <0>         0.1280
     29 H7          0.0287   -5.3548    0.4836 H         1 <0>         0.1276
     30 H8         -1.9907   -5.7824    1.8204 H         1 <0>         0.1279
     31 H9         -3.4123   -3.9241    2.5598 H         1 <0>         0.1238
     32 H10        -3.6320   -1.1141    2.4377 H         1 <0>         0.4139
     33 H11        -2.2796    4.5537   -1.8820 H         1 <0>         0.0757
     34 H12        -3.0472    4.1636   -0.3242 H         1 <0>         0.0629
     35 H13        -1.7543    5.3847   -0.3982 H         1 <0>         0.0887
     36 H14         0.3193    5.6838   -0.2767 H         1 <0>         0.0653
     37 H15         1.8817    4.8662   -0.0341 H         1 <0>         0.0677
     38 H16         1.9726    4.3226   -2.4518 H         1 <0>         0.0616
     39 H17         0.4102    5.1402   -2.6943 H         1 <0>         0.0597
     40 O3          2.4435    6.8666   -3.4410 O.co2     1 <0>        -0.7797
@<TRIPOS>BOND
     1    1    2 1
     2    1   24 1
     3    1   25 1
     4    1   26 1
     5    2    7 2
     6    2    3 1
     7    3    4 2
     8    3   20 1
     9    4    5 1
    10    4   19 1
    11    5    6 1
    12    5    7 1
    13    7    8 1
    14    8    9 2
    15    8   27 1
    16    9   17 1
    17    9   10 1
    18   10   15 ar
    19   10   11 ar
    20   11   12 ar
    21   11   28 1
    22   12   13 ar
    23   12   29 1
    24   13   14 ar
    25   13   30 1
    26   14   15 ar
    27   14   31 1
    28   15   16 1
    29   16   17 am
    30   16   32 1
    31   17   18 2
    32   19   33 1
    33   19   34 1
    34   19   35 1
    35   20   21 1
    36   20   36 1
    37   20   37 1
    38   21   22 1
    39   21   38 1
    40   21   39 1
    41   22   23 2
    42   22   40 1
@<TRIPOS>MOLECULE
ZINC12410091
   32    34     0     0     0
SMALL
USER_CHARGES

@<TRIPOS>ATOM
      1 C1         -1.1178    0.9648   -0.0829 C.3       1 <0>        -0.0893
      2 C2         -0.2110   -0.2369   -0.0149 C.2       1 <0>        -0.0965
      3 C3          0.2945   -0.9575   -1.0985 C.2       1 <0>        -0.2107
      4 C4          1.0666   -1.9603   -0.6105 C.2       1 <0>         0.0646
      5 N1          1.0661   -1.8976    0.7449 N.pl3     1 <0>        -0.5091
      6 H1          1.5402   -2.4998    1.3395 H         1 <0>         0.4188
      7 C5          0.2839   -0.8320    1.1355 C.2       1 <0>        -0.0205
      8 C6          0.0313   -0.4237    2.4614 C.2       1 <0>         0.0819
      9 C7         -0.0507   -1.3643    3.4702 C.2       1 <0>        -0.2071
     10 C8         -0.1650   -1.1166    4.9246 C.ar      1 <0>        -0.0949
     11 C9         -0.2226    0.0414    5.6934 C.ar      1 <0>        -0.0678
     12 C10        -0.3314   -0.0533    7.0660 C.ar      1 <0>        -0.1377
     13 C11        -0.3826   -1.2965    7.6746 C.ar      1 <0>        -0.0864
     14 C12        -0.3261   -2.4512    6.9211 C.ar      1 <0>        -0.1351
     15 C13        -0.2169   -2.3764    5.5367 C.ar      1 <0>         0.1361
     16 N2         -0.1424   -3.3615    4.5598 N.am      1 <0>        -0.6521
     17 C14        -0.0496   -2.8262    3.3306 C.2       1 <0>         0.5558
     18 O1          0.0255   -3.4453    2.2841 O.2       1 <0>        -0.5142
     19 C15         1.8050   -2.9793   -1.4395 C.3       1 <0>        -0.0930
     20 H2         -0.5157    1.8720   -0.1329 H         1 <0>         0.0696
     21 H3         -1.7460    0.8961   -0.9710 H         1 <0>         0.0689
     22 H4         -1.7478    0.9953    0.8062 H         1 <0>         0.0623
     23 H5          0.1040   -0.7529   -2.1417 H         1 <0>         0.1407
     24 H6         -0.0981    0.6243    2.6883 H         1 <0>         0.1527
     25 H7         -0.1820    1.0104    5.2182 H         1 <0>         0.1289
     26 H8         -0.3765    0.8433    7.6664 H         1 <0>         0.1307
     27 H9         -0.4670   -1.3628    8.7493 H         1 <0>         0.1317
     28 H10        -0.3669   -3.4147    7.4073 H         1 <0>         0.1271
     29 H11        -0.1589   -4.3141    4.7415 H         1 <0>         0.4170
     30 H12         2.8038   -2.6073   -1.6677 H         1 <0>         0.0754
     31 H13         1.8835   -3.9129   -0.8824 H         1 <0>         0.0673
     32 H14         1.2618   -3.1548   -2.3681 H         1 <0>         0.0848
@<TRIPOS>BOND
     1    1    2 1
     2    1   20 1
     3    1   21 1
     4    1   22 1
     5    2    7 2
     6    2    3 1
     7    3    4 2
     8    3   23 1
     9    4    5 1
    10    4   19 1
    11    5    6 1
    12    5    7 1
    13    7    8 1
    14    8    9 2
    15    8   24 1
    16    9   17 1
    17    9   10 1
    18   10   15 ar
    19   10   11 ar
    20   11   12 ar
    21   11   25 1
    22   12   13 ar
    23   12   26 1
    24   13   14 ar
    25   13   27 1
    26   14   15 ar
    27   14   28 1
    28   15   16 1
    29   16   17 am
    30   16   29 1
    31   17   18 2
    32   19   30 1
    33   19   31 1
    34   19   32 1
@<TRIPOS>MOLECULE
ZINC03073318
   36    38     0     0     0
SMALL
USER_CHARGES
[5-(2-amino-6-oxo-1H-purin-9-yl)-3,4-dihydroxy-tetrahydrofuran-2-yl]methoxyphosphonic acid
@<TRIPOS>ATOM
      1 C1          0.9744    6.9648   -3.8387 C.2       1 <0>         0.2513
      2 N1          0.5772    7.6381   -4.8786 N.2       1 <0>        -0.4307
      3 C2          0.1547    8.8642   -4.4847 C.2       1 <0>        -0.1225
      4 C3         -0.3656    9.9916   -5.1624 C.2       1 <0>         0.5936
      5 O1         -0.5143    9.9795   -6.3724 O.2       1 <0>        -0.5138
      6 N2         -0.6941   11.0823   -4.4352 N.am      1 <0>        -0.6417
      7 H1         -1.0637   11.8917   -4.8916 H         1 <0>         0.4264
      8 C4         -0.5241   11.0847   -3.0828 C.2       1 <0>         0.5848
      9 N3         -0.0414   10.0439   -2.4415 N.2       1 <0>        -0.5397
     10 C5          0.3055    8.9288   -3.0949 C.2       1 <0>         0.2828
     11 N4          0.8196    7.7196   -2.7122 N.pl3     1 <0>        -0.4408
     12 C6          1.1494    7.3121   -1.3442 C.3       1 <0>         0.3009
     13 H2          0.4479    7.7555   -0.6374 H         1 <0>         0.1183
     14 C7          2.5979    7.7205   -0.9958 C.3       1 <0>         0.0362
     15 H3          3.1947    7.8216   -1.9023 H         1 <0>         0.0856
     16 C8          3.1201    6.5512   -0.1314 C.3       1 <0>         0.0480
     17 H4          3.3866    6.9025    0.8655 H         1 <0>         0.0904
     18 C9          1.9253    5.5746   -0.0597 C.3       1 <0>         0.0880
     19 H5          1.3437    5.7498    0.8454 H         1 <0>         0.0988
     20 O2          1.1346    5.8724   -1.2310 O.3       1 <0>        -0.3300
     21 C10         2.4176    4.1267   -0.1033 C.3       1 <0>         0.1468
     22 O3          1.3018    3.2407    0.0070 O.3       1 <0>        -0.7567
     23 P1          1.4507    1.6376   -0.0030 P.3       1 <0>         2.1339
     24 O4          2.1794    1.2174   -1.2207 O.2       1 <0>        -1.1633
     25 O5          4.2410    5.9258   -0.7595 O.3       1 <0>        -0.5308
     26 O6          2.6088    8.9390   -0.2492 O.3       1 <0>        -0.5444
     27 N5         -0.8665   12.2063   -2.3702 N.pl3     1 <0>        -0.7477
     28 H6          1.3650    5.9582   -3.8628 H         1 <0>         0.2324
     29 H7          3.1042    3.9512    0.7249 H         1 <0>         0.0551
     30 H8          2.9328    3.9463   -1.0468 H         1 <0>         0.0565
     31 H9          5.0198    6.4946   -0.8309 H         1 <0>         0.3712
     32 H10         3.4937    9.2419   -0.0037 H         1 <0>         0.3810
     33 H11        -0.3256   12.9835   -2.6918 H         1 <0>         0.3672
     34 H12        -0.7513   12.2231   -1.4072 H         1 <0>         0.3936
     35 O7         -0.0110    0.9628    0.0073 O.3       1 <0>        -1.1793
     36 O8          2.2685    1.1664    1.3013 O.3       1 <0>        -1.2015
@<TRIPOS>BOND
     1    1   11 1
     2    1    2 2
     3    1   28 1
     4    2    3 1
     5    3   10 2
     6    3    4 1
     7    4    5 2
     8    4    6 am
     9    6    7 1
    10    6    8 1
    11    8    9 2
    12    8   27 1
    13    9   10 1
    14   10   11 1
    15   11   12 1
    16   12   13 1
    17   12   20 1
    18   12   14 1
    19   14   15 1
    20   14   16 1
    21   14   26 1
    22   16   17 1
    23   16   18 1
    24   16   25 1
    25   18   19 1
    26   18   20 1
    27   18   21 1
    28   21   22 1
    29   21   29 1
    30   21   30 1
    31   22   23 1
    32   23   24 2
    33   23   35 1
    34   23   36 1
    35   25   31 1
    36   26   32 1
    37   27   33 1
    38   27   34 1
@<TRIPOS>MOLECULE
ZINC03869963
   36    38     0     0     0
SMALL
USER_CHARGES
[5-(2-amino-6-oxo-3H-purin-9-yl)-3,4-dihydroxy-tetrahydrofuran-2-yl]methoxyphosphonic acid
@<TRIPOS>ATOM
      1 C1         -0.0164    1.3597    0.0095 C.2       1 <0>         0.2684
      2 N1          1.2047    1.8120    0.0003 N.2       1 <0>        -0.4412
      3 C2          2.0649    0.7674   -0.0135 C.2       1 <0>        -0.1140
      4 C3          1.3053   -0.3962   -0.0125 C.2       1 <0>         0.2620
      5 N2          0.0021   -0.0041    0.0020 N.pl3     1 <0>        -0.4212
      6 C4         -1.1676   -0.8861    0.0084 C.3       1 <0>         0.2980
      7 H1         -0.9648   -1.7798    0.5985 H         1 <0>         0.1173
      8 C5         -1.5580   -1.2722   -1.4355 C.3       1 <0>         0.0360
      9 H2         -1.1622   -2.2559   -1.6880 H         1 <0>         0.0835
     10 C6         -3.1044   -1.2973   -1.4105 C.3       1 <0>         0.0457
     11 H3         -3.4726   -2.2942   -1.6527 H         1 <0>         0.0845
     12 C7         -3.4628   -0.9270    0.0458 C.3       1 <0>         0.0863
     13 H4         -3.6143   -1.8270    0.6417 H         1 <0>         0.0964
     14 O1         -2.3198   -0.1894    0.5309 O.3       1 <0>        -0.3319
     15 C8         -4.7160   -0.0500    0.0794 C.3       1 <0>         0.1483
     16 O2         -5.0545    0.2455    1.4359 O.3       1 <0>        -0.7573
     17 P1         -6.3222    1.1490    1.8466 P.3       1 <0>         2.1346
     18 O3         -6.2396    2.4567    1.1583 O.2       1 <0>        -1.1635
     19 O4         -3.6400   -0.3328   -2.3187 O.3       1 <0>        -0.5195
     20 O5         -1.0886   -0.2896   -2.3608 O.3       1 <0>        -0.5300
     21 N3          1.9486   -1.6071   -0.0251 N.2       1 <0>        -0.5488
     22 H5          5.0568   -0.6912   -0.0496 H         1 <0>         0.4270
     23 C9          3.3058   -1.6676   -0.0383 C.2       1 <0>         0.5697
     24 N4          4.0619   -0.5909   -0.0397 N.am      1 <0>        -0.6180
     25 C10         3.5254    0.6393   -0.0281 C.2       1 <0>         0.5887
     26 O6          4.2383    1.6306   -0.0292 O.2       1 <0>        -0.5090
     27 N5          3.9099   -2.8963   -0.0506 N.pl3     1 <0>        -0.7487
     28 H6         -0.9070    1.9706    0.0213 H         1 <0>         0.2278
     29 H7         -4.5240    0.8789   -0.4578 H         1 <0>         0.0567
     30 H8         -5.5428   -0.5794   -0.3943 H         1 <0>         0.0533
     31 H9         -3.4447   -0.5165   -3.2478 H         1 <0>         0.3664
     32 H10        -1.3063   -0.4821   -3.2831 H         1 <0>         0.3755
     33 H11         4.4720   -2.9831   -0.8731 H         1 <0>         0.3668
     34 H12         3.3700   -3.7022   -0.0496 H         1 <0>         0.3922
     35 O7         -7.6790    0.3988    1.4126 O.3       1 <0>        -1.2021
     36 O8         -6.3228    1.3803    3.4399 O.3       1 <0>        -1.1799
@<TRIPOS>BOND
     1    1   28 1
     2    1    5 1
     3    1    2 2
     4    2    3 1
     5    3    4 2
     6    3   25 1
     7    4    5 1
     8    4   21 1
     9    5    6 1
    10    6    7 1
    11    6   14 1
    12    6    8 1
    13    8    9 1
    14    8   10 1
    15    8   20 1
    16   10   11 1
    17   10   12 1
    18   10   19 1
    19   12   13 1
    20   12   14 1
    21   12   15 1
    22   15   16 1
    23   15   29 1
    24   15   30 1
    25   16   17 1
    26   17   18 2
    27   17   35 1
    28   17   36 1
    29   19   31 1
    30   20   32 1
    31   21   23 2
    32   22   24 1
    33   23   24 1
    34   23   27 1
    35   24   25 am
    36   25   26 2
    37   27   34 1
    38   27   33 1
@<TRIPOS>MOLECULE
ZINC03869964
   36    38     0     0     0
SMALL
USER_CHARGES
[5-(2-amino-6-oxo-3H-purin-9-yl)-3,4-dihydroxy-tetrahydrofuran-2-yl]methoxyphosphonic acid
@<TRIPOS>ATOM
      1 C1         -3.0711    0.5590    1.4640 C.2       1 <0>         0.2309
      2 N1         -3.5946   -0.4828    2.0442 N.2       1 <0>        -0.4262
      3 C2         -2.6241   -1.1592    2.7014 C.2       1 <0>        -0.1182
      4 C3         -1.4309   -0.4771    2.4967 C.2       1 <0>         0.2634
      5 N2         -1.7311    0.5961    1.7155 N.pl3     1 <0>        -0.4507
      6 C4         -0.7879    1.6099    1.2371 C.3       1 <0>         0.2892
      7 H1         -0.0945    1.8887    2.0306 H         1 <0>         0.1461
      8 C5         -0.0146    1.0868    0.0064 C.3       1 <0>         0.0474
      9 H2         -0.0005   -0.0030   -0.0010 H         1 <0>         0.0785
     10 C6         -0.8145    1.6261   -1.2006 C.3       1 <0>         0.0454
     11 H3         -1.1959    0.8028   -1.8046 H         1 <0>         0.0841
     12 C7         -1.9797    2.4111   -0.5582 C.3       1 <0>         0.0626
     13 H4         -2.8646    1.7797   -0.4792 H         1 <0>         0.0944
     14 O1         -1.5010    2.7726    0.7556 O.3       1 <0>        -0.3077
     15 C8         -2.2926    3.6649   -1.3773 C.3       1 <0>         0.1494
     16 O2         -3.4447    4.3131   -0.8345 O.3       1 <0>        -0.7581
     17 P1         -4.0597    5.6680   -1.4494 P.3       1 <0>         2.1345
     18 O3         -4.3491    5.4702   -2.8873 O.2       1 <0>        -1.1659
     19 O4         -0.0017    2.4949   -1.9921 O.3       1 <0>        -0.5193
     20 O5          1.3176    1.6036   -0.0047 O.3       1 <0>        -0.5316
     21 N3         -0.2829   -0.9656    3.0656 N.2       1 <0>        -0.5469
     22 H5         -1.3861   -3.6006    4.5955 H         1 <0>         0.4281
     23 C9         -0.3119   -2.0975    3.8165 C.2       1 <0>         0.5744
     24 N4         -1.4196   -2.7732    4.0349 N.am      1 <0>        -0.6182
     25 C10        -2.5936   -2.3747    3.5208 C.2       1 <0>         0.5895
     26 O6         -3.6146   -3.0106    3.7314 O.2       1 <0>        -0.5047
     27 N5          0.8562   -2.5524    4.3671 N.pl3     1 <0>        -0.7488
     28 H6         -3.6146    1.2823    0.8743 H         1 <0>         0.2350
     29 H7         -1.4417    4.3451   -1.3400 H         1 <0>         0.0565
     30 H8         -2.4878    3.3836   -2.4121 H         1 <0>         0.0558
     31 H9          0.7785    2.0670   -2.3706 H         1 <0>         0.3664
     32 H10         1.8391    1.3304   -0.7718 H         1 <0>         0.3805
     33 H11         0.7674   -2.5784    5.3628 H         1 <0>         0.3690
     34 H12         1.6834   -2.0684    4.2182 H         1 <0>         0.3935
     35 O7         -5.4210    6.0397   -0.6742 O.3       1 <0>        -1.1790
     36 O8         -2.9987    6.8664   -1.2755 O.3       1 <0>        -1.1993
@<TRIPOS>BOND
     1    1   28 1
     2    1    5 1
     3    1    2 2
     4    2    3 1
     5    3    4 2
     6    3   25 1
     7    4    5 1
     8    4   21 1
     9    5    6 1
    10    6    7 1
    11    6   14 1
    12    6    8 1
    13    8    9 1
    14    8   10 1
    15    8   20 1
    16   10   11 1
    17   10   12 1
    18   10   19 1
    19   12   13 1
    20   12   14 1
    21   12   15 1
    22   15   16 1
    23   15   29 1
    24   15   30 1
    25   16   17 1
    26   17   18 2
    27   17   35 1
    28   17   36 1
    29   19   31 1
    30   20   32 1
    31   21   23 2
    32   22   24 1
    33   23   24 1
    34   23   27 1
    35   24   25 am
    36   25   26 2
    37   27   34 1
    38   27   33 1
@<TRIPOS>MOLECULE
ZINC03869965
   36    38     0     0     0
SMALL
USER_CHARGES
[5-(2-amino-6-oxo-3H-purin-9-yl)-3,4-dihydroxy-tetrahydrofuran-2-yl]methoxyphosphonic acid
@<TRIPOS>ATOM
      1 C1          5.5441   -0.8481    3.7712 C.2       1 <0>         0.2438
      2 N1          6.7319   -1.3564    3.9345 N.2       1 <0>        -0.4345
      3 C2          6.7211   -2.1717    5.0146 C.2       1 <0>        -0.1202
      4 C3          5.4350   -2.1474    5.5404 C.2       1 <0>         0.2751
      5 N2          4.7100   -1.3155    4.7438 N.pl3     1 <0>        -0.4333
      6 C4          3.2935   -0.9785    4.9054 C.3       1 <0>         0.2953
      7 H1          2.7435   -1.8501    5.2602 H         1 <0>         0.1373
      8 C5          3.1419    0.1809    5.9091 C.3       1 <0>         0.0418
      9 H2          2.4816   -0.1046    6.7280 H         1 <0>         0.0910
     10 C6          2.5102    1.3232    5.0768 C.3       1 <0>         0.0456
     11 H3          2.9617    2.2830    5.3278 H         1 <0>         0.0896
     12 C7          2.8685    0.9055    3.6278 C.3       1 <0>         0.0761
     13 H4          3.8880    1.2036    3.3834 H         1 <0>         0.0951
     14 O1          2.7507   -0.5333    3.6494 O.3       1 <0>        -0.3166
     15 C8          1.8781    1.5122    2.6317 C.3       1 <0>         0.1451
     16 O2          2.2685    1.1664    1.3013 O.3       1 <0>        -0.7560
     17 P1          1.4507    1.6376   -0.0030 P.3       1 <0>         2.1337
     18 O3          1.3138    3.1113    0.0062 O.2       1 <0>        -1.1660
     19 O4          1.0936    1.3645    5.2601 O.3       1 <0>        -0.5294
     20 O5          4.4193    0.5766    6.4129 O.3       1 <0>        -0.5407
     21 N3          5.1620   -2.8947    6.6572 N.2       1 <0>        -0.5451
     22 H5          8.0448   -4.2489    7.2536 H         1 <0>         0.4260
     23 C9          6.1352   -3.6383    7.2453 C.2       1 <0>         0.5679
     24 N4          7.3660   -3.6854    6.7828 N.am      1 <0>        -0.6185
     25 C10         7.7293   -2.9927    5.6921 C.2       1 <0>         0.5885
     26 O6          8.8749   -3.0455    5.2728 O.2       1 <0>        -0.5108
     27 N5          5.8232   -4.3666    8.3618 N.pl3     1 <0>        -0.7498
     28 H6          5.2628   -0.1618    2.9861 H         1 <0>         0.2243
     29 H7          1.8736    2.5969    2.7388 H         1 <0>         0.0537
     30 H8          0.8793    1.1234    2.8299 H         1 <0>         0.0565
     31 H9          0.8196    1.6209    6.1513 H         1 <0>         0.3724
     32 H10         4.3891    1.3407    7.0049 H         1 <0>         0.3810
     33 H11         5.9896   -5.3366    8.1844 H         1 <0>         0.3669
     34 H12         4.9214   -4.3451    8.7186 H         1 <0>         0.3915
     35 O7         -0.0110    0.9628    0.0073 O.3       1 <0>        -1.1990
     36 O8          2.2434    1.1806   -1.3277 O.3       1 <0>        -1.1783
@<TRIPOS>BOND
     1    1   28 1
     2    1    5 1
     3    1    2 2
     4    2    3 1
     5    3    4 2
     6    3   25 1
     7    4    5 1
     8    4   21 1
     9    5    6 1
    10    6    7 1
    11    6   14 1
    12    6    8 1
    13    8    9 1
    14    8   10 1
    15    8   20 1
    16   10   11 1
    17   10   12 1
    18   10   19 1
    19   12   13 1
    20   12   14 1
    21   12   15 1
    22   15   16 1
    23   15   29 1
    24   15   30 1
    25   16   17 1
    26   17   18 2
    27   17   35 1
    28   17   36 1
    29   19   31 1
    30   20   32 1
    31   21   23 2
    32   22   24 1
    33   23   24 1
    34   23   27 1
    35   24   25 am
    36   25   26 2
    37   27   34 1
    38   27   33 1
@<TRIPOS>MOLECULE
ZINC22450939
   57    60     0     0     0
SMALL
USER_CHARGES
N-(4-chloro-2-fluoro-phenyl)-6-methoxy-7-[2-(4-methylpiperazin-1-yl)ethoxy]quinazolin-4-amine
@<TRIPOS>ATOM
      1 C1          5.7104   10.0904    4.7996 C.3       1 <0>        -0.0452
      2 N1          5.9195    9.1831    3.6634 N.4       1 <0>        -0.4023
      3 C2          5.1699    7.9320    3.8437 C.3       1 <0>         0.0005
      4 C3          5.4763    6.9848    2.6812 C.3       1 <0>         0.0196
      5 N2          5.1133    7.6350    1.4142 N.3       1 <0>        -0.5335
      6 C4          5.8629    8.8861    1.2340 C.3       1 <0>         0.0264
      7 C5          5.5565    9.8333    2.3965 C.3       1 <0>         0.0001
      8 C6          5.3223    6.7277    0.2780 C.3       1 <0>         0.0557
      9 C7          4.1972    5.6916    0.2390 C.3       1 <0>         0.0537
     10 O1          2.9513    6.3501    0.0020 O.3       1 <0>        -0.2821
     11 C8          1.8426    5.5676   -0.0621 C.ar      1 <0>         0.1634
     12 C9          1.9602    4.2049    0.1004 C.ar      1 <0>        -0.1845
     13 C10         0.8159    3.4009    0.0334 C.ar      1 <0>         0.2026
     14 C11        -0.4455    4.0027   -0.2001 C.ar      1 <0>        -0.1813
     15 C12        -0.5379    5.3902   -0.3614 C.ar      1 <0>        -0.1427
     16 C13         0.5913    6.1559   -0.2923 C.ar      1 <0>         0.1084
     17 O2          0.5005    7.5036   -0.4491 O.3       1 <0>        -0.3013
     18 C14        -0.8021    8.0434   -0.6815 C.3       1 <0>         0.0169
     19 C15        -1.5840    3.1642   -0.2631 C.ar      1 <0>         0.4698
     20 N3         -1.4110    1.8583   -0.1053 N.ar      1 <0>        -0.5825
     21 C16        -0.2129    1.3411    0.1157 C.ar      1 <0>         0.3475
     22 N4          0.8766    2.0684    0.1841 N.ar      1 <0>        -0.5446
     23 N5         -2.8399    3.6904   -0.4881 N.pl3     1 <0>        -0.6428
     24 C17        -3.9668    2.8624   -0.4275 C.ar      1 <0>         0.1337
     25 C18        -3.8986    1.6420    0.2307 C.ar      1 <0>        -0.1000
     26 C19        -5.0121    0.8265    0.2892 C.ar      1 <0>        -0.0927
     27 C20        -6.1957    1.2241   -0.3075 C.ar      1 <0>        -0.0302
     28 C21        -6.2681    2.4395   -0.9651 C.ar      1 <0>        -0.1215
     29 C22        -5.1587    3.2631   -1.0217 C.ar      1 <0>         0.0734
     30 F1         -5.2308    4.4525   -1.6584 F         1 <0>        -0.1334
     31 Cl1        -7.5923    0.1959   -0.2314 Cl        1 <0>        -0.0517
     32 H1          5.9893    9.5795    5.7330 H         1 <0>         0.1245
     33 H2          4.6512   10.3837    4.8445 H         1 <0>         0.1199
     34 H3          6.3342   10.9874    4.6721 H         1 <0>         0.1249
     35 H4          5.4678    7.4594    4.7913 H         1 <0>         0.1363
     36 H5          4.0920    8.1503    3.8658 H         1 <0>         0.1351
     37 H6          6.5498    6.7448    2.6769 H         1 <0>         0.0630
     38 H7          4.8941    6.0590    2.7993 H         1 <0>         0.1217
     39 H8          6.9408    8.6678    1.2120 H         1 <0>         0.0613
     40 H9          5.5651    9.3587    0.2864 H         1 <0>         0.1254
     41 H10         4.4830   10.0734    2.4020 H         1 <0>         0.1358
     42 H11         6.1387   10.7592    2.2796 H         1 <0>         0.1366
     43 H12         5.3210    7.3058   -0.6579 H         1 <0>         0.1020
     44 H13         6.2890    6.2151    0.3910 H         1 <0>         0.0753
     45 H14         4.3905    4.9707   -0.5691 H         1 <0>         0.0820
     46 H15         4.1541    5.1607    1.2014 H         1 <0>         0.0686
     47 H16         2.9280    3.7598    0.2781 H         1 <0>         0.1526
     48 H17        -1.4973    5.8530   -0.5399 H         1 <0>         0.1391
     49 H18        -0.7324    9.1359   -0.7894 H         1 <0>         0.1088
     50 H19        -1.4568    7.7999    0.1682 H         1 <0>         0.0587
     51 H20        -1.2197    7.6099   -1.6022 H         1 <0>         0.0605
     52 H21        -0.1279    0.2718    0.2411 H         1 <0>         0.2014
     53 H22        -2.9553    4.7605   -0.7151 H         1 <0>         0.4485
     54 H23        -2.9757    1.3305    0.6971 H         1 <0>         0.1813
     55 H24        -4.9589   -0.1227    0.8016 H         1 <0>         0.1458
     56 H25        -7.1930    2.7472   -1.4302 H         1 <0>         0.1512
     57 H26         6.9904    8.9348    3.6232 H         1 <0>         0.4402
@<TRIPOS>BOND
     1    1    2 1
     2    1   32 1
     3    1   33 1
     4    1   34 1
     5    2    7 1
     6    2    3 1
     7    2   57 1
     8    3    4 1
     9    3   35 1
    10    3   36 1
    11    4    5 1
    12    4   37 1
    13    4   38 1
    14    5    6 1
    15    5    8 1
    16    6    7 1
    17    6   39 1
    18    6   40 1
    19    7   41 1
    20    7   42 1
    21    8    9 1
    22    8   43 1
    23    8   44 1
    24    9   10 1
    25    9   45 1
    26    9   46 1
    27   10   11 1
    28   11   16 ar
    29   11   12 ar
    30   12   13 ar
    31   12   47 1
    32   13   22 ar
    33   13   14 ar
    34   14   15 ar
    35   14   19 ar
    36   15   16 ar
    37   15   48 1
    38   16   17 1
    39   17   18 1
    40   18   49 1
    41   18   50 1
    42   18   51 1
    43   19   20 ar
    44   19   23 1
    45   20   21 ar
    46   21   22 ar
    47   21   52 1
    48   23   24 1
    49   23   53 1
    50   24   29 ar
    51   24   25 ar
    52   25   26 ar
    53   25   54 1
    54   26   27 ar
    55   26   55 1
    56   27   28 ar
    57   27   31 1
    58   28   29 ar
    59   28   56 1
    60   29   30 1
@<TRIPOS>MOLECULE
ZINC22450939
   57    60     0     0     0
SMALL
USER_CHARGES
N-(4-chloro-2-fluoro-phenyl)-6-methoxy-7-[2-(4-methylpiperazin-1-yl)ethoxy]quinazolin-4-amine
@<TRIPOS>ATOM
      1 C1          5.7104   10.0904    4.7996 C.3       1 <0>         0.0170
      2 N1          5.9195    9.1831    3.6634 N.3       1 <0>        -0.5431
      3 C2          5.1699    7.9320    3.8437 C.3       1 <0>         0.0236
      4 C3          5.4763    6.9848    2.6812 C.3       1 <0>        -0.0040
      5 N2          5.1133    7.6350    1.4142 N.4       1 <0>        -0.4053
      6 C4          5.8629    8.8861    1.2340 C.3       1 <0>         0.0014
      7 C5          5.5565    9.8333    2.3965 C.3       1 <0>         0.0228
      8 C6          5.3223    6.7277    0.2780 C.3       1 <0>         0.0035
      9 C7          4.1972    5.6916    0.2390 C.3       1 <0>         0.0181
     10 O1          2.9513    6.3501    0.0020 O.3       1 <0>        -0.3126
     11 C8          1.8426    5.5676   -0.0621 C.ar      1 <0>         0.1531
     12 C9          1.9602    4.2049    0.1004 C.ar      1 <0>        -0.1702
     13 C10         0.8159    3.4009    0.0334 C.ar      1 <0>         0.2006
     14 C11        -0.4455    4.0027   -0.2001 C.ar      1 <0>        -0.1767
     15 C12        -0.5379    5.3902   -0.3614 C.ar      1 <0>        -0.1348
     16 C13         0.5913    6.1559   -0.2923 C.ar      1 <0>         0.1065
     17 O2          0.5005    7.5036   -0.4491 O.3       1 <0>        -0.3069
     18 C14        -0.8021    8.0434   -0.6815 C.3       1 <0>         0.0159
     19 C15        -1.5840    3.1642   -0.2631 C.ar      1 <0>         0.4721
     20 N3         -1.4110    1.8583   -0.1053 N.ar      1 <0>        -0.5791
     21 C16        -0.2129    1.3411    0.1157 C.ar      1 <0>         0.3541
     22 N4          0.8766    2.0684    0.1841 N.ar      1 <0>        -0.5451
     23 N5         -2.8399    3.6904   -0.4881 N.pl3     1 <0>        -0.6401
     24 C17        -3.9668    2.8624   -0.4275 C.ar      1 <0>         0.1288
     25 C18        -3.8986    1.6420    0.2307 C.ar      1 <0>        -0.0983
     26 C19        -5.0121    0.8265    0.2892 C.ar      1 <0>        -0.0929
     27 C20        -6.1957    1.2241   -0.3075 C.ar      1 <0>        -0.0277
     28 C21        -6.2681    2.4395   -0.9651 C.ar      1 <0>        -0.1216
     29 C22        -5.1587    3.2631   -1.0217 C.ar      1 <0>         0.0762
     30 F1         -5.2308    4.4525   -1.6584 F         1 <0>        -0.1329
     31 Cl1        -7.5923    0.1959   -0.2314 Cl        1 <0>        -0.0489
     32 H1          5.9893    9.5795    5.7330 H         1 <0>         0.0844
     33 H2          4.6512   10.3837    4.8445 H         1 <0>         0.0398
     34 H3          6.3342   10.9874    4.6721 H         1 <0>         0.0852
     35 H4          5.4678    7.4594    4.7913 H         1 <0>         0.1244
     36 H5          4.0920    8.1503    3.8658 H         1 <0>         0.0607
     37 H6          6.5498    6.7448    2.6769 H         1 <0>         0.1384
     38 H7          4.8941    6.0590    2.7993 H         1 <0>         0.1333
     39 H8          6.9408    8.6678    1.2120 H         1 <0>         0.1366
     40 H9          5.5651    9.3587    0.2864 H         1 <0>         0.1379
     41 H10         4.4830   10.0734    2.4020 H         1 <0>         0.0614
     42 H11         6.1387   10.7592    2.2796 H         1 <0>         0.1248
     43 H12         5.3210    7.3058   -0.6579 H         1 <0>         0.1450
     44 H13         6.2890    6.2151    0.3910 H         1 <0>         0.1513
     45 H14         4.3905    4.9707   -0.5691 H         1 <0>         0.1170
     46 H15         4.1541    5.1607    1.2014 H         1 <0>         0.0914
     47 H16         2.9280    3.7598    0.2781 H         1 <0>         0.1554
     48 H17        -1.4973    5.8530   -0.5399 H         1 <0>         0.1426
     49 H18        -0.7324    9.1359   -0.7894 H         1 <0>         0.1119
     50 H19        -1.4568    7.7999    0.1682 H         1 <0>         0.0615
     51 H20        -1.2197    7.6099   -1.6022 H         1 <0>         0.0629
     52 H21        -0.1279    0.2718    0.2411 H         1 <0>         0.2042
     53 H22        -2.9553    4.7605   -0.7151 H         1 <0>         0.4491
     54 H23        -2.9757    1.3305    0.6971 H         1 <0>         0.1808
     55 H24        -4.9589   -0.1227    0.8016 H         1 <0>         0.1469
     56 H25        -7.1930    2.7472   -1.4302 H         1 <0>         0.1524
     57 H26         4.0424    7.8833    1.4542 H         1 <0>         0.4469
@<TRIPOS>BOND
     1    1    2 1
     2    1   32 1
     3    1   33 1
     4    1   34 1
     5    2    7 1
     6    2    3 1
     7    3    4 1
     8    3   35 1
     9    3   36 1
    10    4    5 1
    11    4   37 1
    12    4   38 1
    13    5    6 1
    14    5    8 1
    15    5   57 1
    16    6    7 1
    17    6   39 1
    18    6   40 1
    19    7   41 1
    20    7   42 1
    21    8    9 1
    22    8   43 1
    23    8   44 1
    24    9   10 1
    25    9   45 1
    26    9   46 1
    27   10   11 1
    28   11   16 ar
    29   11   12 ar
    30   12   13 ar
    31   12   47 1
    32   13   22 ar
    33   13   14 ar
    34   14   15 ar
    35   14   19 ar
    36   15   16 ar
    37   15   48 1
    38   16   17 1
    39   17   18 1
    40   18   49 1
    41   18   50 1
    42   18   51 1
    43   19   20 ar
    44   19   23 1
    45   20   21 ar
    46   21   22 ar
    47   21   52 1
    48   23   24 1
    49   23   53 1
    50   24   29 ar
    51   24   25 ar
    52   25   26 ar
    53   25   54 1
    54   26   27 ar
    55   26   55 1
    56   27   28 ar
    57   27   31 1
    58   28   29 ar
    59   28   56 1
    60   29   30 1
@<TRIPOS>MOLECULE
ZINC22450939
   56    59     0     0     0
SMALL
USER_CHARGES
N-(4-chloro-2-fluoro-phenyl)-6-methoxy-7-[2-(4-methylpiperazin-1-yl)ethoxy]quinazolin-4-amine
@<TRIPOS>ATOM
      1 C1          5.7104   10.0904    4.7996 C.3       1 <0>         0.0226
      2 N1          5.9195    9.1831    3.6634 N.3       1 <0>        -0.5457
      3 C2          5.1699    7.9320    3.8437 C.3       1 <0>         0.0553
      4 C3          5.4763    6.9848    2.6812 C.3       1 <0>         0.0526
      5 N2          5.1133    7.6350    1.4142 N.3       1 <0>        -0.5328
      6 C4          5.8629    8.8861    1.2340 C.3       1 <0>         0.0578
      7 C5          5.5565    9.8333    2.3965 C.3       1 <0>         0.0548
      8 C6          5.3223    6.7277    0.2780 C.3       1 <0>         0.0545
      9 C7          4.1972    5.6916    0.2390 C.3       1 <0>         0.0573
     10 O1          2.9513    6.3501    0.0020 O.3       1 <0>        -0.2755
     11 C8          1.8426    5.5676   -0.0621 C.ar      1 <0>         0.1710
     12 C9          1.9602    4.2049    0.1004 C.ar      1 <0>        -0.1892
     13 C10         0.8159    3.4009    0.0334 C.ar      1 <0>         0.2031
     14 C11        -0.4455    4.0027   -0.2001 C.ar      1 <0>        -0.1812
     15 C12        -0.5379    5.3902   -0.3614 C.ar      1 <0>        -0.1508
     16 C13         0.5913    6.1559   -0.2923 C.ar      1 <0>         0.1146
     17 O2          0.5005    7.5036   -0.4491 O.3       1 <0>        -0.2962
     18 C14        -0.8021    8.0434   -0.6815 C.3       1 <0>         0.0179
     19 C15        -1.5840    3.1642   -0.2631 C.ar      1 <0>         0.4667
     20 N3         -1.4110    1.8583   -0.1053 N.ar      1 <0>        -0.5852
     21 C16        -0.2129    1.3411    0.1157 C.ar      1 <0>         0.3397
     22 N4          0.8766    2.0684    0.1841 N.ar      1 <0>        -0.5402
     23 N5         -2.8399    3.6904   -0.4881 N.pl3     1 <0>        -0.6454
     24 C17        -3.9668    2.8624   -0.4275 C.ar      1 <0>         0.1408
     25 C18        -3.8986    1.6420    0.2307 C.ar      1 <0>        -0.1016
     26 C19        -5.0121    0.8265    0.2892 C.ar      1 <0>        -0.0923
     27 C20        -6.1957    1.2241   -0.3075 C.ar      1 <0>        -0.0339
     28 C21        -6.2681    2.4395   -0.9651 C.ar      1 <0>        -0.1216
     29 C22        -5.1587    3.2631   -1.0217 C.ar      1 <0>         0.0700
     30 F1         -5.2308    4.4525   -1.6584 F         1 <0>        -0.1337
     31 Cl1        -7.5923    0.1959   -0.2314 Cl        1 <0>        -0.0570
     32 H1          5.9893    9.5795    5.7330 H         1 <0>         0.0695
     33 H2          4.6512   10.3837    4.8445 H         1 <0>         0.0270
     34 H3          6.3342   10.9874    4.6721 H         1 <0>         0.0701
     35 H4          5.4678    7.4594    4.7913 H         1 <0>         0.0804
     36 H5          4.0920    8.1503    3.8658 H         1 <0>         0.0435
     37 H6          6.5498    6.7448    2.6769 H         1 <0>         0.0451
     38 H7          4.8941    6.0590    2.7993 H         1 <0>         0.0791
     39 H8          6.9408    8.6678    1.2120 H         1 <0>         0.0436
     40 H9          5.5651    9.3587    0.2864 H         1 <0>         0.0830
     41 H10         4.4830   10.0734    2.4020 H         1 <0>         0.0445
     42 H11         6.1387   10.7592    2.2796 H         1 <0>         0.0809
     43 H12         5.3210    7.3058   -0.6579 H         1 <0>         0.0894
     44 H13         6.2890    6.2151    0.3910 H         1 <0>         0.0648
     45 H14         4.3905    4.9707   -0.5691 H         1 <0>         0.0740
     46 H15         4.1541    5.1607    1.2014 H         1 <0>         0.0692
     47 H16         2.9280    3.7598    0.2781 H         1 <0>         0.1540
     48 H17        -1.4973    5.8530   -0.5399 H         1 <0>         0.1375
     49 H18        -0.7324    9.1359   -0.7894 H         1 <0>         0.1082
     50 H19        -1.4568    7.7999    0.1682 H         1 <0>         0.0577
     51 H20        -1.2197    7.6099   -1.6022 H         1 <0>         0.0581
     52 H21        -0.1279    0.2718    0.2411 H         1 <0>         0.1990
     53 H22        -2.9553    4.7605   -0.7151 H         1 <0>         0.4487
     54 H23        -2.9757    1.3305    0.6971 H         1 <0>         0.1824
     55 H24        -4.9589   -0.1227    0.8016 H         1 <0>         0.1444
     56 H25        -7.1930    2.7472   -1.4302 H         1 <0>         0.1494
@<TRIPOS>BOND
     1    1    2 1
     2    1   32 1
     3    1   33 1
     4    1   34 1
     5    2    7 1
     6    2    3 1
     7    3    4 1
     8    3   35 1
     9    3   36 1
    10    4    5 1
    11    4   37 1
    12    4   38 1
    13    5    6 1
    14    5    8 1
    15    6    7 1
    16    6   39 1
    17    6   40 1
    18    7   41 1
    19    7   42 1
    20    8    9 1
    21    8   43 1
    22    8   44 1
    23    9   10 1
    24    9   45 1
    25    9   46 1
    26   10   11 1
    27   11   16 ar
    28   11   12 ar
    29   12   13 ar
    30   12   47 1
    31   13   22 ar
    32   13   14 ar
    33   14   15 ar
    34   14   19 ar
    35   15   16 ar
    36   15   48 1
    37   16   17 1
    38   17   18 1
    39   18   49 1
    40   18   50 1
    41   18   51 1
    42   19   20 ar
    43   19   23 1
    44   20   21 ar
    45   21   22 ar
    46   21   52 1
    47   23   24 1
    48   23   53 1
    49   24   29 ar
    50   24   25 ar
    51   25   26 ar
    52   25   54 1
    53   26   27 ar
    54   26   55 1
    55   27   28 ar
    56   27   31 1
    57   28   29 ar
    58   28   56 1
    59   29   30 1
@<TRIPOS>MOLECULE
ZINC01546258
   53    55     0     0     0
SMALL
USER_CHARGES
3-[4-amino-9-(3,5-dimethoxyphenyl)-3,5,7-triazabicyclo[4.4.0]deca-2,4,7,9,11-pentaen-8-yl]-1-tert-butyl-urea
@<TRIPOS>ATOM
      1 C1         -1.0887    7.6775    1.3033 C.3       1 <0>        -0.1663
      2 C2         -0.3113    8.0808    0.0487 C.3       1 <0>         0.1877
      3 C3         -0.0830    9.5937    0.0546 C.3       1 <0>        -0.1554
      4 C4         -1.1124    7.6908   -1.1951 C.3       1 <0>        -0.1662
      5 N1          0.9815    7.3919    0.0329 N.am      1 <0>        -0.7353
      6 C5          1.0273    6.0450    0.0253 C.2       1 <0>         0.6901
      7 O1         -0.0042    5.4017    0.0317 O.2       1 <0>        -0.5044
      8 N2          2.2167    5.4112    0.0107 N.am      1 <0>        -0.6633
      9 C6          2.2638    4.0247    0.0029 C.ar      1 <0>         0.4750
     10 C7          3.5175    3.3772   -0.0124 C.ar      1 <0>        -0.1647
     11 C8          3.5690    1.9924   -0.0207 C.ar      1 <0>         0.0437
     12 C9          2.3538    1.2883   -0.0134 C.ar      1 <0>        -0.2965
     13 C10         2.3093   -0.1165   -0.0206 C.ar      1 <0>         0.2662
     14 N3          1.1320   -0.7081   -0.0126 N.ar      1 <0>        -0.5715
     15 C11         0.0021   -0.0041    0.0020 C.ar      1 <0>         0.5958
     16 N4         -0.0158    1.3153    0.0093 N.ar      1 <0>        -0.5643
     17 C12         1.1301    2.0077    0.0021 C.ar      1 <0>         0.4294
     18 N5          1.1372    3.3420    0.0095 N.ar      1 <0>        -0.4758
     19 N6         -1.2015   -0.6830    0.0094 N.pl3     1 <0>        -0.8106
     20 C13         4.7693    4.1719   -0.0200 C.ar      1 <0>         0.0404
     21 C14         4.9368    5.2020   -0.9432 C.ar      1 <0>        -0.1979
     22 C15         6.1054    5.9464   -0.9438 C.ar      1 <0>         0.1772
     23 C16         7.1125    5.6599   -0.0338 C.ar      1 <0>        -0.2963
     24 C17         6.9514    4.6311    0.8826 C.ar      1 <0>         0.1767
     25 C18         5.7831    3.8866    0.8924 C.ar      1 <0>        -0.1729
     26 O2          7.9407    4.3534    1.7721 O.3       1 <0>        -0.3102
     27 C19         9.1180    5.1606    1.7060 C.3       1 <0>         0.0250
     28 O3          6.2671    6.9551   -1.8400 O.3       1 <0>        -0.3107
     29 C20         7.4986    7.6781   -1.7878 C.3       1 <0>         0.0249
     30 H1         -0.5180    7.9554    2.1894 H         1 <0>         0.0525
     31 H2         -2.0506    8.1901    1.3151 H         1 <0>         0.0638
     32 H3         -1.2514    6.5997    1.2991 H         1 <0>         0.0817
     33 H4          0.4708    9.8810   -0.8392 H         1 <0>         0.0624
     34 H5         -1.0449   10.1063    0.0664 H         1 <0>         0.0764
     35 H6          0.4877    9.8716    0.9407 H         1 <0>         0.0620
     36 H7         -1.2750    6.6130   -1.1992 H         1 <0>         0.0817
     37 H8         -2.0743    8.2033   -1.1832 H         1 <0>         0.0637
     38 H9         -0.5585    7.9781   -2.0888 H         1 <0>         0.0529
     39 H10         1.8046    7.9052    0.0278 H         1 <0>         0.3944
     40 H11         3.0397    5.9245    0.0056 H         1 <0>         0.4167
     41 H12         4.5146    1.4707   -0.0328 H         1 <0>         0.1552
     42 H13         3.2195   -0.6978   -0.0320 H         1 <0>         0.1816
     43 H14        -2.0366   -0.1897    0.0197 H         1 <0>         0.4185
     44 H15        -1.2112   -1.6530    0.0043 H         1 <0>         0.4170
     45 H16         4.1548    5.4227   -1.6547 H         1 <0>         0.1357
     46 H17         8.0241    6.2390   -0.0391 H         1 <0>         0.1377
     47 H18         5.6583    3.0857    1.6061 H         1 <0>         0.1385
     48 H19         9.5731    5.0593    0.7208 H         1 <0>         0.0572
     49 H20         8.8534    6.2039    1.8784 H         1 <0>         0.0568
     50 H21         9.8255    4.8344    2.4683 H         1 <0>         0.1047
     51 H22         8.3290    6.9943   -1.9635 H         1 <0>         0.0573
     52 H23         7.4977    8.4532   -2.5542 H         1 <0>         0.1047
     53 H24         7.6083    8.1383   -0.8058 H         1 <0>         0.0573
@<TRIPOS>BOND
     1    1    2 1
     2    1   30 1
     3    1   31 1
     4    1   32 1
     5    2    3 1
     6    2    4 1
     7    2    5 1
     8    3   33 1
     9    3   34 1
    10    3   35 1
    11    4   36 1
    12    4   37 1
    13    4   38 1
    14    5    6 am
    15    5   39 1
    16    6    7 2
    17    6    8 am
    18    8    9 1
    19    8   40 1
    20    9   18 ar
    21    9   10 ar
    22   10   11 ar
    23   10   20 1
    24   11   12 ar
    25   11   41 1
    26   12   17 ar
    27   12   13 ar
    28   13   14 ar
    29   13   42 1
    30   14   15 ar
    31   15   16 ar
    32   15   19 1
    33   16   17 ar
    34   17   18 ar
    35   19   43 1
    36   19   44 1
    37   20   25 ar
    38   20   21 ar
    39   21   22 ar
    40   21   45 1
    41   22   23 ar
    42   22   28 1
    43   23   24 ar
    44   23   46 1
    45   24   25 ar
    46   24   26 1
    47   25   47 1
    48   26   27 1
    49   27   48 1
    50   27   49 1
    51   27   50 1
    52   28   29 1
    53   29   51 1
    54   29   52 1
    55   29   53 1
@<TRIPOS>MOLECULE
ZINC12832813
   44    47     0     0     0
SMALL
USER_CHARGES
4-[4-[(Z)-(2-oxoindolin-3-ylidene)methyl]phenyl]piperazine-1-carbaldehyde
@<TRIPOS>ATOM
      1 C1         -0.7213   -2.2739   -0.5879 C.ar      1 <0>        -0.1404
      2 C2          0.2170   -2.5765   -1.5606 C.ar      1 <0>        -0.0822
      3 C3          0.9024   -1.5720   -2.2130 C.ar      1 <0>        -0.1379
      4 C4          0.6557   -0.2401   -1.8978 C.ar      1 <0>         0.1437
      5 C5         -0.2942    0.0617   -0.9132 C.ar      1 <0>        -0.1049
      6 C6         -0.9797   -0.9579   -0.2615 C.ar      1 <0>        -0.0635
      7 C7         -0.3308    1.5381   -0.8070 C.2       1 <0>        -0.1744
      8 C8         -1.1128    2.2928    0.0201 C.2       1 <0>         0.0427
      9 C9         -0.8888    3.7367    0.1237 C.ar      1 <0>        -0.1290
     10 C10         0.4169    4.2482    0.1181 C.ar      1 <0>        -0.0134
     11 C11         0.6203    5.5954    0.2096 C.ar      1 <0>        -0.1802
     12 C12        -0.4662    6.4603    0.3197 C.ar      1 <0>         0.1352
     13 C13        -1.7650    5.9567    0.3311 C.ar      1 <0>        -0.1537
     14 C14        -1.9791    4.6116    0.2348 C.ar      1 <0>        -0.0587
     15 N1         -0.2536    7.8306    0.4181 N.pl3     1 <0>        -0.4878
     16 C15        -0.9802    8.5529   -0.6346 C.3       1 <0>         0.0443
     17 C16        -0.8689   10.0608   -0.3850 C.3       1 <0>         0.1097
     18 N2          0.5544   10.4098   -0.2601 N.am      1 <0>        -0.6256
     19 C17         1.3811    9.6354    0.6781 C.3       1 <0>         0.1147
     20 C18         1.1811    8.1443    0.3866 C.3       1 <0>         0.0318
     21 C19         1.0871   11.4124   -0.9864 C.2       1 <0>         0.4951
     22 O1          0.3907   12.0406   -1.7553 O.2       1 <0>        -0.5508
     23 C20         0.6542    2.0160   -1.7910 C.2       1 <0>         0.5560
     24 O2          0.9310    3.1794   -2.0200 O.2       1 <0>        -0.4945
     25 N3          1.1938    0.9421   -2.3924 N.am      1 <0>        -0.6560
     26 H1         -1.2512   -3.0686   -0.0839 H         1 <0>         0.1309
     27 H2          0.4144   -3.6084   -1.8107 H         1 <0>         0.1320
     28 H3          1.6315   -1.8206   -2.9700 H         1 <0>         0.1279
     29 H4         -1.7110   -0.7209    0.4972 H         1 <0>         0.1290
     30 H5         -1.8964    1.8250    0.5977 H         1 <0>         0.1436
     31 H6          1.2601    3.5781    0.0373 H         1 <0>         0.1223
     32 H7          1.6253    5.9906    0.2013 H         1 <0>         0.1280
     33 H8         -2.6041    6.6313    0.4166 H         1 <0>         0.1285
     34 H9         -2.9864    4.2221    0.2437 H         1 <0>         0.1289
     35 H10        -0.5479    8.3122   -1.6058 H         1 <0>         0.0519
     36 H11        -2.0296    8.2584   -0.6200 H         1 <0>         0.0968
     37 H12        -1.3914   10.3190    0.5361 H         1 <0>         0.0781
     38 H13        -1.3070   10.6039   -1.2224 H         1 <0>         0.1010
     39 H14         1.0748    9.8527    1.7014 H         1 <0>         0.0820
     40 H15         2.4306    9.8973    0.5436 H         1 <0>         0.0948
     41 H16         1.6993    7.5534    1.1418 H         1 <0>         0.0991
     42 H17         1.5835    7.9088   -0.5987 H         1 <0>         0.0553
     43 H18         2.1342   11.6564   -0.8837 H         1 <0>         0.1326
     44 H19         1.8731    0.9864   -3.0834 H         1 <0>         0.4173
@<TRIPOS>BOND
     1    1    6 ar
     2    1    2 ar
     3    1   26 1
     4    2    3 ar
     5    2   27 1
     6    3    4 ar
     7    3   28 1
     8    4   25 1
     9    4    5 ar
    10    5    6 ar
    11    5    7 1
    12    6   29 1
    13    7    8 2
    14    7   23 1
    15    8    9 1
    16    8   30 1
    17    9   14 ar
    18    9   10 ar
    19   10   11 ar
    20   10   31 1
    21   11   12 ar
    22   11   32 1
    23   12   13 ar
    24   12   15 1
    25   13   14 ar
    26   13   33 1
    27   14   34 1
    28   15   20 1
    29   15   16 1
    30   16   17 1
    31   16   35 1
    32   16   36 1
    33   17   18 1
    34   17   37 1
    35   17   38 1
    36   18   19 1
    37   18   21 am
    38   19   20 1
    39   19   39 1
    40   19   40 1
    41   20   41 1
    42   20   42 1
    43   21   22 2
    44   21   43 1
    45   23   24 2
    46   23   25 am
    47   25   44 1
@<TRIPOS>MOLECULE
ZINC00396802
   27    29     0     0     0
SMALL
USER_CHARGES
2-oxo-7,8-dihydro-6H-acenaphthylene-1-carboxamide
@<TRIPOS>ATOM
      1 C1         -0.4927   -2.3527   -0.0077 C.ar      1 <0>        -0.1069
      2 C2          0.8521   -2.6857   -0.0079 C.ar      1 <0>        -0.0875
      3 C3          1.7957   -1.6794   -0.0033 C.ar      1 <0>        -0.0434
      4 C4          1.3473   -0.3601   -0.0043 C.ar      1 <0>        -0.0967
      5 C5          0.0021   -0.0041    0.0020 C.ar      1 <0>        -0.1538
      6 C6         -0.9285   -1.0264   -0.0018 C.ar      1 <0>        -0.0499
      7 C7         -0.0181    1.4818    0.0102 C.2       1 <0>         0.4535
      8 O1         -1.0033    2.1910    0.0189 O.2       1 <0>        -0.4171
      9 C8          1.4018    1.9357   -0.0009 C.2       1 <0>        -0.2727
     10 C9          2.2009    0.8522   -0.0150 C.2       1 <0>         0.0927
     11 C10         3.7013    0.6637   -0.0486 C.3       1 <0>        -0.0844
     12 C11         3.9809   -0.6971   -0.7025 C.3       1 <0>        -0.1207
     13 C12         3.2885   -1.8606    0.0073 C.3       1 <0>        -0.0850
     14 C13         1.8537    3.3321    0.0021 C.2       1 <0>         0.5870
     15 O2          3.0436    3.5866   -0.0083 O.2       1 <0>        -0.5402
     16 N1          0.9507    4.3326    0.0164 N.am      1 <0>        -0.8462
     17 H1         -1.2273   -3.1444   -0.0124 H         1 <0>         0.1372
     18 H2          1.1583   -3.7214   -0.0119 H         1 <0>         0.1400
     19 H3         -1.9847   -0.8007    0.0002 H         1 <0>         0.1380
     20 H4          4.1612    1.4582   -0.6362 H         1 <0>         0.1081
     21 H5          4.0989    0.6765    0.9662 H         1 <0>         0.1051
     22 H6          3.6393   -0.6651   -1.7371 H         1 <0>         0.0688
     23 H7          5.0564   -0.8738   -0.6969 H         1 <0>         0.0841
     24 H8          3.5405   -2.7916   -0.5003 H         1 <0>         0.0866
     25 H9          3.6360   -1.9092    1.0392 H         1 <0>         0.0879
     26 H10         0.0022    4.1297    0.0247 H         1 <0>         0.4090
     27 H11         1.2494    5.2555    0.0184 H         1 <0>         0.4063
@<TRIPOS>BOND
     1    1    6 ar
     2    1    2 ar
     3    1   17 1
     4    2    3 ar
     5    2   18 1
     6    3   13 1
     7    3    4 ar
     8    4   10 1
     9    4    5 ar
    10    5    6 ar
    11    5    7 1
    12    6   19 1
    13    7    8 2
    14    7    9 1
    15    9   10 2
    16    9   14 1
    17   10   11 1
    18   11   12 1
    19   11   20 1
    20   11   21 1
    21   12   13 1
    22   12   22 1
    23   12   23 1
    24   13   24 1
    25   13   25 1
    26   14   15 2
    27   14   16 am
    28   16   26 1
    29   16   27 1
@<TRIPOS>MOLECULE
ZINC02047503
   45    48     0     0     0
SMALL
USER_CHARGES
6-(2,6-dichlorophenyl)-2-[[3-(hydroxymethyl)phenyl]amino]-8-methyl-pyrido[6,5-d]pyrimidin-7-one
@<TRIPOS>ATOM
      1 C1          0.0685    1.0902    0.1116 C.3       1 <0>         0.0699
      2 N1         -0.4262    1.5833    1.3993 N.am      1 <0>        -0.5062
      3 C2         -0.5386    2.9342    1.6113 C.ar      1 <0>         0.4668
      4 C3         -1.0182    3.4258    2.8448 C.ar      1 <0>        -0.2772
      5 C4         -1.3770    2.5290    3.8769 C.2       1 <0>         0.0314
      6 C5         -1.2566    1.1828    3.6580 C.2       1 <0>        -0.1643
      7 C6         -0.7609    0.7061    2.3650 C.2       1 <0>         0.5577
      8 O1         -0.6511   -0.4900    2.1618 O.2       1 <0>        -0.5027
      9 C7         -1.6241    0.2171    4.7198 C.ar      1 <0>        -0.0102
     10 C8         -0.6661   -0.2109    5.6397 C.ar      1 <0>        -0.0065
     11 C9         -1.0165   -1.1073    6.6304 C.ar      1 <0>        -0.1064
     12 C10        -2.3111   -1.5889    6.7051 C.ar      1 <0>        -0.0874
     13 C11        -3.2642   -1.1726    5.7932 C.ar      1 <0>        -0.1064
     14 C12        -2.9282   -0.2726    4.8008 C.ar      1 <0>        -0.0064
     15 Cl1        -4.1255    0.2477    3.6566 Cl        1 <0>        -0.0501
     16 Cl2         0.9610    0.3864    5.5428 Cl        1 <0>        -0.0503
     17 C13        -1.1231    4.8140    3.0188 C.ar      1 <0>         0.2643
     18 N2         -0.7739    5.6039    2.0208 N.ar      1 <0>        -0.5677
     19 C14        -0.3311    5.1056    0.8717 C.ar      1 <0>         0.6091
     20 N3         -0.2145    3.8035    0.6608 N.ar      1 <0>        -0.5948
     21 N4          0.0210    5.9779   -0.1404 N.pl3     1 <0>        -0.6255
     22 C15        -0.1997    7.3500    0.0111 C.ar      1 <0>         0.1535
     23 C16        -1.3058    7.8032    0.7190 C.ar      1 <0>        -0.1019
     24 C17        -1.5179    9.1592    0.8714 C.ar      1 <0>        -0.1022
     25 C18        -0.6364   10.0658    0.3112 C.ar      1 <0>        -0.1107
     26 C19         0.4624    9.6181   -0.3988 C.ar      1 <0>        -0.0740
     27 C20         0.6833    8.2631   -0.5504 C.ar      1 <0>        -0.1226
     28 C21         1.4197   10.6097   -1.0082 C.3       1 <0>         0.1166
     29 O2          0.9930   10.9310   -2.3336 O.3       1 <0>        -0.5676
     30 H1          0.0950    0.0006    0.1256 H         1 <0>         0.1008
     31 H2          1.0728    1.4758   -0.0636 H         1 <0>         0.0801
     32 H3         -0.5942    1.4272   -0.6855 H         1 <0>         0.0804
     33 H4         -1.7410    2.9000    4.8236 H         1 <0>         0.1507
     34 H5         -0.2771   -1.4360    7.3457 H         1 <0>         0.1438
     35 H6         -2.5787   -2.2934    7.4788 H         1 <0>         0.1454
     36 H7         -4.2732   -1.5525    5.8570 H         1 <0>         0.1438
     37 H8         -1.4817    5.2275    3.9498 H         1 <0>         0.1884
     38 H9          0.4212    5.6382   -0.9561 H         1 <0>         0.4268
     39 H10        -1.9968    7.0958    1.1532 H         1 <0>         0.1360
     40 H11        -2.3754    9.5121    1.4250 H         1 <0>         0.1294
     41 H12        -0.8068   11.1258    0.4283 H         1 <0>         0.1250
     42 H13         1.5416    7.9141   -1.1054 H         1 <0>         0.1259
     43 H14         1.4384   11.5159   -0.4028 H         1 <0>         0.0579
     44 H15         2.4189   10.1755   -1.0434 H         1 <0>         0.0551
     45 H16         1.5640   11.5657   -2.7877 H         1 <0>         0.3824
@<TRIPOS>BOND
     1    1    2 1
     2    1   30 1
     3    1   31 1
     4    1   32 1
     5    2    7 am
     6    2    3 1
     7    3   20 ar
     8    3    4 ar
     9    4    5 1
    10    4   17 ar
    11    5    6 2
    12    5   33 1
    13    6    7 1
    14    6    9 1
    15    7    8 2
    16    9   14 ar
    17    9   10 ar
    18   10   11 ar
    19   10   16 1
    20   11   12 ar
    21   11   34 1
    22   12   13 ar
    23   12   35 1
    24   13   14 ar
    25   13   36 1
    26   14   15 1
    27   17   18 ar
    28   17   37 1
    29   18   19 ar
    30   19   20 ar
    31   19   21 1
    32   21   22 1
    33   21   38 1
    34   22   27 ar
    35   22   23 ar
    36   23   24 ar
    37   23   39 1
    38   24   25 ar
    39   24   40 1
    40   25   26 ar
    41   25   41 1
    42   26   27 ar
    43   26   28 1
    44   27   42 1
    45   28   29 1
    46   28   43 1
    47   28   44 1
    48   29   45 1
@<TRIPOS>MOLECULE
ZINC00017343
   30    32     0     0     0
SMALL
USER_CHARGES
1-oxo-3-phenyl-indene-2-carboxamide
@<TRIPOS>ATOM
      1 C1          1.2084   -0.6842   -0.0136 C.ar      1 <0>        -0.1008
      2 C2          0.0021   -0.0041    0.0020 C.ar      1 <0>        -0.1194
      3 C3         -0.0166    1.3737    0.0096 C.ar      1 <0>        -0.0581
      4 C4          1.1894    2.0866    0.0019 C.ar      1 <0>        -0.0709
      5 C5          2.4051    1.3905   -0.0125 C.ar      1 <0>        -0.0892
      6 C6          2.4053    0.0125   -0.0208 C.ar      1 <0>        -0.1228
      7 C7          1.1793    3.5572    0.0094 C.2       1 <0>         0.1442
      8 C8          0.7044    4.3569    1.0464 C.2       1 <0>        -0.2712
      9 C9          0.8779    5.7658    0.6528 C.2       1 <0>         0.4471
     10 O1          0.5753    6.7421    1.3095 O.2       1 <0>        -0.4159
     11 C10         1.4935    5.7665   -0.7004 C.ar      1 <0>        -0.1615
     12 C11         1.6779    4.4247   -1.0807 C.ar      1 <0>        -0.0726
     13 C12         2.2476    4.1353   -2.3151 C.ar      1 <0>        -0.0700
     14 C13         2.6325    5.1675   -3.1599 C.ar      1 <0>        -0.0937
     15 C14         2.4531    6.4818   -2.7827 C.ar      1 <0>        -0.1049
     16 C15         1.8781    6.7860   -1.5537 C.ar      1 <0>        -0.0485
     17 C16         0.1333    3.8806    2.3070 C.2       1 <0>         0.5835
     18 O2          0.0413    2.6857    2.5206 O.2       1 <0>        -0.5285
     19 N1         -0.2908    4.7650    3.2314 N.am      1 <0>        -0.8468
     20 H1          1.2158   -1.7641   -0.0198 H         1 <0>         0.1257
     21 H2         -0.9267   -0.5552    0.0079 H         1 <0>         0.1277
     22 H3         -0.9582    1.9026    0.0169 H         1 <0>         0.1220
     23 H4          3.3394    1.9322   -0.0175 H         1 <0>         0.1248
     24 H5          3.3416   -0.5257   -0.0327 H         1 <0>         0.1280
     25 H6          2.3909    3.1082   -2.6167 H         1 <0>         0.1377
     26 H7          3.0749    4.9399   -4.1185 H         1 <0>         0.1400
     27 H8          2.7551    7.2780   -3.4470 H         1 <0>         0.1403
     28 H9          1.7410    7.8166   -1.2612 H         1 <0>         0.1389
     29 H10        -0.2175    5.7171    3.0613 H         1 <0>         0.4082
     30 H11        -0.6693    4.4493    4.0669 H         1 <0>         0.4064
@<TRIPOS>BOND
     1    1    6 ar
     2    1    2 ar
     3    1   20 1
     4    2    3 ar
     5    2   21 1
     6    3    4 ar
     7    3   22 1
     8    4    5 ar
     9    4    7 1
    10    5    6 ar
    11    5   23 1
    12    6   24 1
    13    7   12 1
    14    7    8 2
    15    8    9 1
    16    8   17 1
    17    9   10 2
    18    9   11 1
    19   11   16 ar
    20   11   12 ar
    21   12   13 ar
    22   13   14 ar
    23   13   25 1
    24   14   15 ar
    25   14   26 1
    26   15   16 ar
    27   15   27 1
    28   16   28 1
    29   17   18 2
    30   17   19 am
    31   19   29 1
    32   19   30 1
@<TRIPOS>MOLECULE
ZINC13782570
   26    28     0     0     0
SMALL
USER_CHARGES
4-(benzimidazol-1-yl)phenol
@<TRIPOS>ATOM
      1 C1         -1.2263    1.7485    0.0174 C.ar      1 <0>        -0.1250
      2 C2         -0.0126    1.0758    0.0080 C.ar      1 <0>        -0.0981
      3 C3          1.1747    1.7767    0.0004 C.ar      1 <0>        -0.1093
      4 C4          1.1538    3.1646    0.0080 C.ar      1 <0>         0.0486
      5 C5         -0.0755    3.8454    0.0234 C.ar      1 <0>         0.0459
      6 C6         -1.2661    3.1140    0.0316 C.ar      1 <0>        -0.0623
      7 N1          0.2072    5.1736    0.0279 N.2       1 <0>        -0.4865
      8 C7          1.4968    5.3475    0.0165 C.2       1 <0>         0.2660
      9 N2          2.1310    4.1419    0.0040 N.pl3     1 <0>        -0.4471
     10 C8          3.5179    3.9316   -0.0097 C.ar      1 <0>         0.1149
     11 C9          4.0976    3.0633    0.9054 C.ar      1 <0>        -0.0990
     12 C10         5.4621    2.8522    0.8877 C.ar      1 <0>        -0.1261
     13 C11         6.2551    3.5164   -0.0367 C.ar      1 <0>         0.1136
     14 C12         5.6770    4.3886   -0.9477 C.ar      1 <0>        -0.1258
     15 C13         4.3119    4.5960   -0.9346 C.ar      1 <0>        -0.0997
     16 O1          7.5993    3.3129   -0.0497 O.3       1 <0>        -0.4959
     17 H1         -2.1488    1.1868    0.0187 H         1 <0>         0.1323
     18 H2          0.0021   -0.0041    0.0020 H         1 <0>         0.1325
     19 H3          2.1165    1.2483   -0.0118 H         1 <0>         0.1228
     20 H4         -2.2162    3.6274    0.0438 H         1 <0>         0.1319
     21 H5          1.9919    6.3073    0.0169 H         1 <0>         0.2161
     22 H6          3.4809    2.5495    1.6279 H         1 <0>         0.1347
     23 H7          5.9126    2.1734    1.5966 H         1 <0>         0.1406
     24 H8          6.2948    4.9057   -1.6669 H         1 <0>         0.1413
     25 H9          3.8620    5.2753   -1.6436 H         1 <0>         0.1371
     26 H10         8.0945    3.9202    0.5168 H         1 <0>         0.3963
@<TRIPOS>BOND
     1    1    6 ar
     2    1    2 ar
     3    1   17 1
     4    2    3 ar
     5    2   18 1
     6    3    4 ar
     7    3   19 1
     8    4    9 1
     9    4    5 ar
    10    5    6 ar
    11    5    7 1
    12    6   20 1
    13    7    8 2
    14    8    9 1
    15    8   21 1
    16    9   10 1
    17   10   15 ar
    18   10   11 ar
    19   11   12 ar
    20   11   22 1
    21   12   13 ar
    22   12   23 1
    23   13   14 ar
    24   13   16 1
    25   14   15 ar
    26   14   24 1
    27   15   25 1
    28   16   26 1
@<TRIPOS>MOLECULE
ZINC13782580
   29    31     0     0     0
SMALL
USER_CHARGES
1-phenylbenzimidazole-5-carboxamide
@<TRIPOS>ATOM
      1 C1          1.1178   10.4188    0.0544 C.ar      1 <0>        -0.1118
      2 C2          0.0800   10.3852   -0.8589 C.ar      1 <0>        -0.0994
      3 C3         -0.8039    9.3239   -0.8632 C.ar      1 <0>        -0.1158
      4 C4         -0.6499    8.2903    0.0510 C.ar      1 <0>         0.1187
      5 C5          0.3897    8.3297    0.9705 C.ar      1 <0>        -0.1161
      6 C6          1.2740    9.3907    0.9658 C.ar      1 <0>        -0.1000
      7 N1         -1.5452    7.2124    0.0494 N.pl3     1 <0>        -0.4443
      8 C7         -2.9061    7.2928    0.0559 C.2       1 <0>         0.2704
      9 N2         -3.4245    6.0999    0.0516 N.2       1 <0>        -0.4771
     10 C8         -2.4324    5.1713    0.0422 C.ar      1 <0>         0.0375
     11 C9         -1.2126    5.8733    0.0407 C.ar      1 <0>         0.0726
     12 C10        -0.0079    5.1801    0.0312 C.ar      1 <0>        -0.1114
     13 C11        -0.0025    3.8152    0.0286 C.ar      1 <0>        -0.0700
     14 C12        -1.2073    3.1004    0.0246 C.ar      1 <0>        -0.1512
     15 C13        -2.4230    3.7777    0.0341 C.ar      1 <0>         0.0114
     16 C14        -1.1873    1.6238    0.0165 C.2       1 <0>         0.5685
     17 O1         -2.2318    1.0017    0.0181 O.2       1 <0>        -0.5375
     18 N3         -0.0111    0.9658    0.0074 N.am      1 <0>        -0.8508
     19 H1          1.8078   11.2496    0.0556 H         1 <0>         0.1324
     20 H2         -0.0392   11.1894   -1.5698 H         1 <0>         0.1355
     21 H3         -1.6137    9.2978   -1.5772 H         1 <0>         0.1325
     22 H4          0.5094    7.5294    1.6858 H         1 <0>         0.1302
     23 H5          2.0857    9.4196    1.6777 H         1 <0>         0.1347
     24 H6         -3.4714    8.2130    0.0631 H         1 <0>         0.2196
     25 H7          0.9259    5.7226    0.0304 H         1 <0>         0.1302
     26 H8          0.9371    3.2827    0.0254 H         1 <0>         0.1356
     27 H9         -3.3523    3.2275    0.0355 H         1 <0>         0.1481
     28 H10         0.0021   -0.0041    0.0020 H         1 <0>         0.4069
     29 H11         0.8223    1.4622    0.0021 H         1 <0>         0.4006
@<TRIPOS>BOND
     1    1    6 ar
     2    1    2 ar
     3    1   19 1
     4    2    3 ar
     5    2   20 1
     6    3    4 ar
     7    3   21 1
     8    4    5 ar
     9    4    7 1
    10    5    6 ar
    11    5   22 1
    12    6   23 1
    13    7   11 1
    14    7    8 1
    15    8    9 2
    16    8   24 1
    17    9   10 1
    18   10   15 ar
    19   10   11 ar
    20   11   12 ar
    21   12   13 ar
    22   12   25 1
    23   13   14 ar
    24   13   26 1
    25   14   15 ar
    26   14   16 1
    27   15   27 1
    28   16   17 2
    29   16   18 am
    30   18   28 1
    31   18   29 1
@<TRIPOS>MOLECULE
ZINC13684256
   46    49     0     0     0
SMALL
USER_CHARGES
(2R)-1-[4-[(4-fluoro-2-methyl-1H-indol-5-yl)oxy]-5-methyl-pyrrolo[5,1-f][1,2,4]triazin-6-yl]oxypropan-2-ol
@<TRIPOS>ATOM
      1 C1          4.7949    2.9523    2.3522 C.3       1 <0>        -0.0966
      2 C2          3.6646    2.2467    1.6483 C.2       1 <0>         0.0876
      3 C3          2.6218    1.6627    2.2588 C.2       1 <0>        -0.1880
      4 C4          1.7683    1.1023    1.2079 C.ar      1 <0>        -0.1349
      5 C5          2.3986    1.4102   -0.0110 C.ar      1 <0>         0.1341
      6 N1          3.5494    2.1066    0.2917 N.pl3     1 <0>        -0.5863
      7 H1          4.1828    2.4464   -0.3596 H         1 <0>         0.4207
      8 C6          1.8160    1.0023   -1.2064 C.ar      1 <0>        -0.1228
      9 C7          0.6300    0.3020   -1.1916 C.ar      1 <0>        -0.0621
     10 C8          0.0026   -0.0049    0.0123 C.ar      1 <0>         0.0188
     11 C9          0.5653    0.3914    1.2120 C.ar      1 <0>         0.1623
     12 F1         -0.0445    0.0935    2.3802 F         1 <0>        -0.1248
     13 O1         -1.1681   -0.6977    0.0091 O.3       1 <0>        -0.2108
     14 C10        -2.3207    0.0019    0.1276 C.2       1 <0>         0.4665
     15 C11        -3.5554   -0.6716    0.2464 C.2       1 <0>        -0.0662
     16 C12        -3.9185   -2.0054    0.2744 C.2       1 <0>        -0.0794
     17 C13        -5.3090   -2.0470    0.4125 C.2       1 <0>         0.0604
     18 C14        -5.7630   -0.7630    0.4655 C.2       1 <0>        -0.0104
     19 N2         -4.7091    0.0804    0.3658 N.pl3     1 <0>        -0.2298
     20 N3         -4.5954    1.4778    0.3627 N.2       1 <0>        -0.3297
     21 C15        -3.4217    2.0363    0.2489 C.2       1 <0>         0.3242
     22 N4         -2.3023    1.3228    0.1390 N.2       1 <0>        -0.5999
     23 O2         -6.0741   -3.1710    0.4822 O.3       1 <0>        -0.2792
     24 C16        -7.4843   -2.9882    0.6236 C.3       1 <0>         0.0248
     25 C17        -8.1721   -4.3535    0.6841 C.3       1 <0>         0.1065
     26 H2         -7.7288   -4.9485    1.4826 H         1 <0>         0.1107
     27 C18        -9.6646   -4.1609    0.9601 C.3       1 <0>        -0.1840
     28 O3         -8.0016   -5.0285   -0.5638 O.3       1 <0>        -0.5528
     29 C19        -2.9913   -3.1894    0.1756 C.3       1 <0>        -0.0827
     30 H3          5.5899    2.2387    2.5689 H         1 <0>         0.0820
     31 H4          5.1827    3.7451    1.7126 H         1 <0>         0.0718
     32 H5          4.4297    3.3834    3.2844 H         1 <0>         0.0887
     33 H6          2.4449    1.6152    3.3232 H         1 <0>         0.1525
     34 H7          2.2939    1.2345   -2.1466 H         1 <0>         0.1382
     35 H8          0.1849   -0.0159   -2.1228 H         1 <0>         0.1452
     36 H9         -6.7962   -0.4666    0.5705 H         1 <0>         0.1815
     37 H10        -3.3550    3.1143    0.2489 H         1 <0>         0.2243
     38 H11        -7.6890   -2.4372    1.5415 H         1 <0>         0.0705
     39 H12        -7.8653   -2.4270   -0.2297 H         1 <0>         0.0641
     40 H13       -10.1079   -3.5659    0.1617 H         1 <0>         0.0624
     41 H14       -10.1546   -5.1336    1.0033 H         1 <0>         0.0755
     42 H15        -9.7946   -3.6460    1.9120 H         1 <0>         0.0708
     43 H16        -8.3731   -4.5553   -1.3209 H         1 <0>         0.3750
     44 H17        -2.6667   -3.4809    1.1745 H         1 <0>         0.0728
     45 H18        -3.5145   -4.0224   -0.2939 H         1 <0>         0.0766
     46 H19        -2.1223   -2.9212   -0.4251 H         1 <0>         0.0719
@<TRIPOS>BOND
     1    1    2 1
     2    1   30 1
     3    1   31 1
     4    1   32 1
     5    2    6 1
     6    2    3 2
     7    3    4 1
     8    3   33 1
     9    4   11 ar
    10    4    5 ar
    11    5    6 1
    12    5    8 ar
    13    6    7 1
    14    8    9 ar
    15    8   34 1
    16    9   10 ar
    17    9   35 1
    18   10   11 ar
    19   10   13 1
    20   11   12 1
    21   13   14 1
    22   14   22 2
    23   14   15 1
    24   15   19 1
    25   15   16 2
    26   16   17 1
    27   16   29 1
    28   17   18 2
    29   17   23 1
    30   18   19 1
    31   18   36 1
    32   19   20 1
    33   20   21 2
    34   21   22 1
    35   21   37 1
    36   23   24 1
    37   24   25 1
    38   24   38 1
    39   24   39 1
    40   25   26 1
    41   25   27 1
    42   25   28 1
    43   27   40 1
    44   27   41 1
    45   27   42 1
    46   28   43 1
    47   29   44 1
    48   29   45 1
    49   29   46 1
@<TRIPOS>MOLECULE
ZINC06494041
   31    34     0     0     0
SMALL
USER_CHARGES

@<TRIPOS>ATOM
      1 C1         -0.0166    1.3729    0.0096 C.ar      1 <0>        -0.1772
      2 C2          1.1713    2.0902    0.0021 C.ar      1 <0>        -0.0720
      3 C3          2.3853    1.4387   -0.0129 C.ar      1 <0>        -0.1863
      4 C4          2.4268    0.0478   -0.0208 C.ar      1 <0>         0.2063
      5 C5          1.2241   -0.6774   -0.0132 C.ar      1 <0>        -0.1858
      6 C6          0.0021   -0.0041    0.0020 C.ar      1 <0>        -0.0332
      7 C7          1.2815   -2.1505   -0.0216 C.2       1 <0>         0.4332
      8 C8          2.5613   -2.7653   -0.0372 C.2       1 <0>        -0.4098
      9 C9          3.7021   -1.9733   -0.0438 C.2       1 <0>         0.5137
     10 O1          4.9122   -2.5683   -0.0585 O.3       1 <0>        -0.6869
     11 N1          3.6345   -0.6206   -0.0363 N.pl3     1 <0>        -0.6309
     12 H1          4.4575   -0.1073   -0.0417 H         1 <0>         0.4042
     13 C10         2.6782   -4.2336   -0.0457 C.2       1 <0>         0.4315
     14 N2          3.8577   -4.9308   -0.0552 N.pl3     1 <0>        -0.5959
     15 H2          4.7505   -4.5517   -0.0577 H         1 <0>         0.4291
     16 C11         3.5370   -6.2768   -0.0604 C.ar      1 <0>         0.0211
     17 C12         4.2878   -7.4431   -0.0706 C.ar      1 <0>        -0.1084
     18 C13         3.6537   -8.6681   -0.0741 C.ar      1 <0>        -0.1374
     19 C14         2.2683   -8.7428   -0.0680 C.ar      1 <0>        -0.1381
     20 C15         1.5066   -7.5965   -0.0579 C.ar      1 <0>        -0.0859
     21 C16         2.1332   -6.3464   -0.0538 C.ar      1 <0>         0.0641
     22 N3          1.6678   -5.0724   -0.0397 N.2       1 <0>        -0.5120
     23 O2          0.2619   -2.8199   -0.0151 O.2       1 <0>        -0.5033
     24 H3         -0.9606    1.8973    0.0259 H         1 <0>         0.1207
     25 H4          1.1439    3.1698    0.0078 H         1 <0>         0.1213
     26 H5          3.3037    2.0070   -0.0190 H         1 <0>         0.1238
     27 H6         -0.9240   -0.5597    0.0082 H         1 <0>         0.1332
     28 H7          5.3666   -7.3922   -0.0760 H         1 <0>         0.1100
     29 H8          4.2396   -9.5753   -0.0819 H         1 <0>         0.1160
     30 H9          1.7837   -9.7081   -0.0715 H         1 <0>         0.1161
     31 H10         0.4286   -7.6623   -0.0536 H         1 <0>         0.1187
@<TRIPOS>BOND
     1    1    6 ar
     2    1    2 ar
     3    1   24 1
     4    2    3 ar
     5    2   25 1
     6    3    4 ar
     7    3   26 1
     8    4   11 1
     9    4    5 ar
    10    5    6 ar
    11    5    7 1
    12    6   27 1
    13    7    8 1
    14    7   23 2
    15    8    9 2
    16    8   13 1
    17    9   10 1
    18    9   11 1
    19   11   12 1
    20   13   22 2
    21   13   14 1
    22   14   15 1
    23   14   16 1
    24   16   21 ar
    25   16   17 ar
    26   17   18 ar
    27   17   28 1
    28   18   19 ar
    29   18   29 1
    30   19   20 ar
    31   19   30 1
    32   20   21 ar
    33   20   31 1
    34   21   22 1
@<TRIPOS>MOLECULE
ZINC14961821
   28    31     0     0     0
SMALL
USER_CHARGES

@<TRIPOS>ATOM
      1 C1         -0.0164    1.3614    0.0095 C.ar      1 <0>        -0.1554
      2 C2          1.1697    2.0843    0.0021 C.ar      1 <0>        -0.0625
      3 C3          2.3773    1.4458   -0.0133 C.ar      1 <0>        -0.1433
      4 C4          2.4255    0.0535   -0.0213 C.ar      1 <0>         0.1273
      5 C5          1.2248   -0.6787   -0.0133 C.ar      1 <0>        -0.1427
      6 C6          0.0021   -0.0041    0.0020 C.ar      1 <0>        -0.0275
      7 C7          1.6063   -2.0961   -0.0252 C.2       1 <0>         0.1595
      8 N1          2.9183   -2.1519   -0.0388 N.2       1 <0>        -0.2302
      9 N2          3.4502   -0.8585   -0.0368 N.pl3     1 <0>        -0.4922
     10 H1          4.3953   -0.6405   -0.0456 H         1 <0>         0.4463
     11 C8          0.6836   -3.2485   -0.0220 C.2       1 <0>         0.3537
     12 N3          1.0655   -4.5638   -0.0278 N.pl3     1 <0>        -0.5842
     13 H2          1.9757   -4.8989   -0.0347 H         1 <0>         0.4288
     14 C9         -0.0882   -5.3240   -0.0215 C.ar      1 <0>         0.0578
     15 C10        -0.3426   -6.6883   -0.0234 C.ar      1 <0>        -0.1129
     16 C11        -1.6454   -7.1409   -0.0158 C.ar      1 <0>        -0.0935
     17 C12        -2.7024   -6.2418   -0.0062 C.ar      1 <0>        -0.1260
     18 C13        -2.4721   -4.8954   -0.0042 C.ar      1 <0>        -0.0582
     19 C14        -1.1592   -4.4128   -0.0118 C.ar      1 <0>         0.0484
     20 N4         -0.6255   -3.1671   -0.0073 N.2       1 <0>        -0.4560
     21 H3         -0.9615    1.8838    0.0259 H         1 <0>         0.1317
     22 H4          1.1368    3.1638    0.0082 H         1 <0>         0.1334
     23 H5          3.2926    2.0190   -0.0197 H         1 <0>         0.1299
     24 H6         -0.9242   -0.5594    0.0083 H         1 <0>         0.1423
     25 H7          0.4761   -7.3926   -0.0312 H         1 <0>         0.1260
     26 H8         -1.8443   -8.2024   -0.0176 H         1 <0>         0.1333
     27 H9         -3.7175   -6.6104   -0.0007 H         1 <0>         0.1329
     28 H10        -3.3023   -4.2047    0.0033 H         1 <0>         0.1333
@<TRIPOS>BOND
     1    1    6 ar
     2    1    2 ar
     3    1   21 1
     4    2    3 ar
     5    2   22 1
     6    3    4 ar
     7    3   23 1
     8    4    9 1
     9    4    5 ar
    10    5    6 ar
    11    5    7 1
    12    6   24 1
    13    7    8 2
    14    7   11 1
    15    8    9 1
    16    9   10 1
    17   11   20 2
    18   11   12 1
    19   12   13 1
    20   12   14 1
    21   14   19 ar
    22   14   15 ar
    23   15   16 ar
    24   15   25 1
    25   16   17 ar
    26   16   26 1
    27   17   18 ar
    28   17   27 1
    29   18   19 ar
    30   18   28 1
    31   19   20 1
@<TRIPOS>MOLECULE
ZINC02047743
   45    48     0     0     0
SMALL
USER_CHARGES
6-(2,6-dichlorophenyl)-8-methyl-2-[(3-methylsulfanylphenyl)amino]pyrido[6,5-d]pyrimidin-7-one
@<TRIPOS>ATOM
      1 C1         -3.2149    9.9478    6.3397 C.3       1 <0>         0.0697
      2 N1         -2.5718   10.5969    5.1946 N.am      1 <0>        -0.5056
      3 C2         -2.0976    9.8322    4.1588 C.ar      1 <0>         0.4667
      4 C3         -1.4757   10.4419    3.0477 C.ar      1 <0>        -0.2757
      5 C4         -1.3364   11.8476    2.9932 C.2       1 <0>         0.0302
      6 C5         -1.8127   12.6024    4.0314 C.2       1 <0>        -0.1631
      7 C6         -2.4525   11.9382    5.1691 C.2       1 <0>         0.5568
      8 O1         -2.8794   12.6023    6.0968 O.2       1 <0>        -0.5010
      9 C7         -1.6815   14.0779    4.0044 C.ar      1 <0>        -0.0104
     10 C8         -0.5524   14.6911    4.5489 C.ar      1 <0>        -0.0065
     11 C9         -0.4345   16.0668    4.5170 C.ar      1 <0>        -0.1064
     12 C10        -1.4368   16.8371    3.9553 C.ar      1 <0>        -0.0873
     13 C11        -2.5608   16.2358    3.4182 C.ar      1 <0>        -0.1064
     14 C12        -2.6891   14.8608    3.4397 C.ar      1 <0>        -0.0064
     15 Cl1        -4.1011   14.1082    2.7661 Cl        1 <0>        -0.0503
     16 Cl2         0.7038   13.7265    5.2597 Cl        1 <0>        -0.0500
     17 C13        -1.0042    9.6238    2.0101 C.ar      1 <0>         0.2643
     18 N2         -1.1563    8.3171    2.1171 N.ar      1 <0>        -0.5670
     19 C14        -1.7515    7.7784    3.1755 C.ar      1 <0>         0.6097
     20 N3         -2.2123    8.5091    4.1791 N.ar      1 <0>        -0.5950
     21 N4         -1.8899    6.4048    3.2340 N.pl3     1 <0>        -0.6257
     22 C15        -1.5197    5.6178    2.1394 C.ar      1 <0>         0.1772
     23 C16        -1.6834    6.1025    0.8470 C.ar      1 <0>        -0.1138
     24 C17        -1.3176    5.3259   -0.2354 C.ar      1 <0>        -0.0792
     25 C18        -0.7826    4.0675   -0.0375 C.ar      1 <0>        -0.1466
     26 C19        -0.6215    3.5742    1.2521 C.ar      1 <0>        -0.0629
     27 C20        -0.9883    4.3524    2.3421 C.ar      1 <0>        -0.1252
     28 S1          0.0539    1.9663    1.5035 S.3       1 <0>        -0.1153
     29 C21         0.3690    1.3552   -0.1751 C.3       1 <0>        -0.1440
     30 H1         -2.4636    9.7144    7.0942 H         1 <0>         0.0748
     31 H2         -3.9613   10.6184    6.7655 H         1 <0>         0.0924
     32 H3         -3.6983    9.0276    6.0115 H         1 <0>         0.0952
     33 H4         -0.8618   12.3189    2.1453 H         1 <0>         0.1508
     34 H5          0.4406   16.5425    4.9347 H         1 <0>         0.1438
     35 H6         -1.3415   17.9127    3.9363 H         1 <0>         0.1454
     36 H7         -3.3400   16.8429    2.9814 H         1 <0>         0.1438
     37 H8         -0.5227   10.0538    1.1443 H         1 <0>         0.1886
     38 H9         -2.2438    5.9866    4.0344 H         1 <0>         0.4277
     39 H10        -2.0974    7.0873    0.6888 H         1 <0>         0.1382
     40 H11        -1.4455    5.7052   -1.2385 H         1 <0>         0.1308
     41 H12        -0.4935    3.4647   -0.8857 H         1 <0>         0.1250
     42 H13        -0.8598    3.9737    3.3453 H         1 <0>         0.1313
     43 H14         0.7936    0.3527   -0.1231 H         1 <0>         0.1105
     44 H15         1.0700    2.0210   -0.6785 H         1 <0>         0.0855
     45 H16        -0.5673    1.3248   -0.7324 H         1 <0>         0.0854
@<TRIPOS>BOND
     1    1    2 1
     2    1   30 1
     3    1   31 1
     4    1   32 1
     5    2    7 am
     6    2    3 1
     7    3   20 ar
     8    3    4 ar
     9    4    5 1
    10    4   17 ar
    11    5    6 2
    12    5   33 1
    13    6    7 1
    14    6    9 1
    15    7    8 2
    16    9   14 ar
    17    9   10 ar
    18   10   11 ar
    19   10   16 1
    20   11   12 ar
    21   11   34 1
    22   12   13 ar
    23   12   35 1
    24   13   14 ar
    25   13   36 1
    26   14   15 1
    27   17   18 ar
    28   17   37 1
    29   18   19 ar
    30   19   20 ar
    31   19   21 1
    32   21   22 1
    33   21   38 1
    34   22   27 ar
    35   22   23 ar
    36   23   24 ar
    37   23   39 1
    38   24   25 ar
    39   24   40 1
    40   25   26 ar
    41   25   41 1
    42   26   27 ar
    43   26   28 1
    44   27   42 1
    45   28   29 1
    46   29   43 1
    47   29   44 1
    48   29   45 1
@<TRIPOS>MOLECULE
ZINC06718723
   66    70     0     0     0
SMALL
USER_CHARGES
N-[3-(2-methoxy-2-phenyl-acetyl)-3,6,7-triazabicyclo[3.3.0]octa-7,9-dien-8-yl]-4-(4-methylpiperazin-1-yl)-benzamide
@<TRIPOS>ATOM
      1 C1          1.1558   -2.3183    1.2595 C.3       1 <0>        -0.0410
      2 C2          0.9823   -1.8889   -1.1176 C.3       1 <0>         0.0017
      3 C3          0.2156   -1.0925   -2.1760 C.3       1 <0>         0.0172
      4 N1          0.3983    0.3450   -1.9314 N.pl3     1 <0>        -0.4879
      5 C4         -0.0890    0.7150   -0.5952 C.3       1 <0>         0.0240
      6 C5          0.6778   -0.0814    0.4632 C.3       1 <0>         0.0014
      7 C6         -0.2262    1.1016   -2.9168 C.ar      1 <0>         0.1171
      8 C7         -0.9021    0.4673   -3.9555 C.ar      1 <0>        -0.1703
      9 C8         -1.5254    1.2132   -4.9296 C.ar      1 <0>        -0.0557
     10 C9         -1.4706    2.6093   -4.8809 C.ar      1 <0>        -0.1394
     11 C10        -0.7865    3.2432   -3.8393 C.ar      1 <0>        -0.0271
     12 C11        -0.1695    2.4917   -2.8657 C.ar      1 <0>        -0.1357
     13 C12        -2.1335    3.4119   -5.9259 C.2       1 <0>         0.5511
     14 O1         -2.0854    4.6262   -5.8820 O.2       1 <0>        -0.4789
     15 N2         -2.7926    2.7993   -6.9293 N.am      1 <0>        -0.6348
     16 C13        -3.4223    3.5616   -7.9218 C.2       1 <0>         0.3339
     17 C14        -4.1411    3.0562   -9.0204 C.2       1 <0>        -0.2838
     18 C15        -4.5895    4.1057   -9.7400 C.2       1 <0>         0.0781
     19 N3         -4.1745    5.2373   -9.1268 N.pl3     1 <0>        -0.4408
     20 H1         -4.3540    6.1718   -9.4341 H         1 <0>         0.4547
     21 N4         -3.4495    4.8713   -7.9863 N.2       1 <0>        -0.2469
     22 C16        -5.3666    3.6009  -10.9294 C.3       1 <0>         0.1723
     23 N5         -5.3544    2.1345  -10.8740 N.am      1 <0>        -0.6108
     24 C17        -4.5861    1.7737   -9.6769 C.3       1 <0>         0.1946
     25 C18        -5.9338    1.2878  -11.7480 C.2       1 <0>         0.5509
     26 O2         -5.7715    0.0915  -11.6318 O.2       1 <0>        -0.4985
     27 C19        -6.7834    1.8276  -12.8695 C.3       1 <0>         0.1225
     28 H2         -7.5012    2.5436  -12.4694 H         1 <0>         0.0950
     29 C20        -5.9023    2.5122  -13.8825 C.ar      1 <0>        -0.1245
     30 C21        -5.1414    1.7597  -14.7575 C.ar      1 <0>        -0.0827
     31 C22        -4.3365    2.3877  -15.6895 C.ar      1 <0>        -0.1181
     32 C23        -4.2853    3.7682  -15.7402 C.ar      1 <0>        -0.1071
     33 C24        -5.0426    4.5207  -14.8620 C.ar      1 <0>        -0.1205
     34 C25        -5.8508    3.8927  -13.9329 C.ar      1 <0>        -0.1134
     35 O3         -7.4835    0.7514  -13.4972 O.3       1 <0>        -0.3511
     36 C26        -8.7453    1.1252  -14.0539 C.3       1 <0>         0.0270
     37 H3          2.2318   -2.1485    1.2201 H         1 <0>         0.1249
     38 H4          0.7771   -2.0242    2.2384 H         1 <0>         0.1237
     39 H5          0.9484   -3.3752    1.0921 H         1 <0>         0.1236
     40 H6          0.8246   -2.9552   -1.2798 H         1 <0>         0.1394
     41 H7          2.0461   -1.6632   -1.1925 H         1 <0>         0.1411
     42 H8          0.5953   -1.3440   -3.1663 H         1 <0>         0.1318
     43 H9         -0.8447   -1.3391   -2.1193 H         1 <0>         0.0745
     44 H10         0.0688    1.7813   -0.4330 H         1 <0>         0.1307
     45 H11        -1.1527    0.4893   -0.5207 H         1 <0>         0.0727
     46 H12         1.7380    0.1652    0.4065 H         1 <0>         0.1415
     47 H13         0.2983    0.1704    1.4535 H         1 <0>         0.1395
     48 H14        -0.9409   -0.6113   -3.9946 H         1 <0>         0.1361
     49 H15        -2.0533    0.7206   -5.7327 H         1 <0>         0.1339
     50 H16        -0.7428    4.3215   -3.7987 H         1 <0>         0.1475
     51 H17         0.3591    2.9807   -2.0608 H         1 <0>         0.1377
     52 H18        -2.8310    1.8307   -6.9643 H         1 <0>         0.4200
     53 H19        -4.8943    3.9403  -11.8513 H         1 <0>         0.1019
     54 H20        -6.3933    3.9643  -10.8842 H         1 <0>         0.0943
     55 H21        -3.7159    1.1817   -9.9601 H         1 <0>         0.0792
     56 H22        -5.2131    1.2048   -8.9904 H         1 <0>         0.0792
     57 H23        -5.1783    0.6812  -14.7152 H         1 <0>         0.1304
     58 H24        -3.7451    1.7999  -16.3759 H         1 <0>         0.1272
     59 H25        -3.6539    4.2589  -16.4662 H         1 <0>         0.1260
     60 H26        -5.0026    5.5992  -14.9016 H         1 <0>         0.1273
     61 H27        -6.4422    4.4805  -13.2465 H         1 <0>         0.1243
     62 H28        -9.3904    1.5117  -13.2649 H         1 <0>         0.0465
     63 H29        -8.5949    1.8955  -14.8103 H         1 <0>         0.0480
     64 H30        -9.2132    0.2534  -14.5113 H         1 <0>         0.0967
     65 N6          0.4679   -1.5242    0.2191 N.4       1 <0>        -0.4004
     66 H31        -0.5381   -1.7261    0.2561 H         1 <0>         0.4278
@<TRIPOS>BOND
     1    1   37 1
     2    1   38 1
     3    1   39 1
     4    1   65 1
     5    2    3 1
     6    2   40 1
     7    2   41 1
     8    2   65 1
     9    3    4 1
    10    3   42 1
    11    3   43 1
    12    4    5 1
    13    4    7 1
    14    5    6 1
    15    5   44 1
    16    5   45 1
    17    6   46 1
    18    6   47 1
    19    6   65 1
    20    7   12 ar
    21    7    8 ar
    22    8    9 ar
    23    8   48 1
    24    9   10 ar
    25    9   49 1
    26   10   11 ar
    27   10   13 1
    28   11   12 ar
    29   11   50 1
    30   12   51 1
    31   13   14 2
    32   13   15 am
    33   15   16 1
    34   15   52 1
    35   16   21 2
    36   16   17 1
    37   17   24 1
    38   17   18 2
    39   18   19 1
    40   18   22 1
    41   19   20 1
    42   19   21 1
    43   22   23 1
    44   22   53 1
    45   22   54 1
    46   23   24 1
    47   23   25 am
    48   24   55 1
    49   24   56 1
    50   25   26 2
    51   25   27 1
    52   27   28 1
    53   27   29 1
    54   27   35 1
    55   29   34 ar
    56   29   30 ar
    57   30   31 ar
    58   30   57 1
    59   31   32 ar
    60   31   58 1
    61   32   33 ar
    62   32   59 1
    63   33   34 ar
    64   33   60 1
    65   34   61 1
    66   35   36 1
    67   36   62 1
    68   36   63 1
    69   36   64 1
    70   65   66 1
@<TRIPOS>MOLECULE
ZINC03938668
   78    83     0     0     0
SMALL
USER_CHARGES
(3Z)-5-[(2,6-dichlorophenyl)methylsulfonyl]-3-[[3,5-dimethyl-4-[(2R)-2-(pyrrolidin-1-ylmethyl)pyrrolidine-1-carbonyl]-1H-pyrrol-2-yl]methylene]indolin-2-one
@<TRIPOS>ATOM
      1 C1         -0.7804    4.1238    1.6079 C.3       1 <0>        -0.0960
      2 C2         -0.9726    4.6897    0.2244 C.2       1 <0>        -0.0607
      3 C3         -0.9678    6.0252   -0.1267 C.2       1 <0>        -0.0103
      4 N1         -1.1776    6.1091   -1.4877 N.pl3     1 <0>        -0.5058
      5 H1         -1.2151    7.0927   -1.9788 H         1 <0>         0.4526
      6 C4         -1.3063    4.8709   -1.9930 C.2       1 <0>         0.1214
      7 C5         -1.1916    3.9565   -0.9615 C.2       1 <0>        -0.2390
      8 C6         -1.2760    2.4895   -1.0798 C.2       1 <0>         0.6263
      9 O1         -2.3332    1.9231   -0.8791 O.2       1 <0>        -0.5312
     10 N2         -0.1814    1.7760   -1.4104 N.am      1 <0>        -0.6102
     11 C7          1.1289    2.3374   -1.7862 C.3       1 <0>         0.0945
     12 C8          2.1473    1.2140   -1.4689 C.3       1 <0>        -0.1313
     13 C9          1.3462   -0.0540   -1.8662 C.3       1 <0>        -0.1476
     14 C10        -0.0982    0.3091   -1.4621 C.3       1 <0>         0.1232
     15 H2         -0.3668   -0.0907   -0.4732 H         1 <0>         0.0985
     16 C11        -1.0811   -0.2315   -2.5027 C.3       1 <0>        -0.0300
     17 N3         -1.0687   -1.7001   -2.4715 N.4       1 <0>        -0.4055
     18 C12        -1.4282   -2.2069   -1.1224 C.3       1 <0>        -0.0070
     19 C13        -1.8742   -3.6648   -1.3986 C.3       1 <0>        -0.1422
     20 C14        -2.6181   -3.5488   -2.7488 C.3       1 <0>        -0.1420
     21 C15        -2.0804   -2.2584   -3.3947 C.3       1 <0>         0.0003
     22 C16        -1.5403    4.5341   -3.4431 C.3       1 <0>        -0.0982
     23 C17        -0.7809    7.1139    0.7528 C.2       1 <0>         0.0674
     24 C18        -0.0436    8.2091    0.3488 C.2       1 <0>        -0.1862
     25 C19         0.1315    9.4910    1.0671 C.ar      1 <0>        -0.1261
     26 C20        -0.3451    9.9774    2.2802 C.ar      1 <0>         0.0349
     27 C21         0.0020   11.2481    2.6918 C.ar      1 <0>        -0.6830
     28 C22         0.8216   12.0351    1.8996 C.ar      1 <0>         0.0160
     29 C23         1.2993   11.5622    0.6943 C.ar      1 <0>        -0.1533
     30 C24         0.9609   10.2842    0.2627 C.ar      1 <0>         0.1949
     31 N4          1.2972    9.5757   -0.8843 N.am      1 <0>        -0.6619
     32 C25         0.7421    8.3519   -0.8845 C.2       1 <0>         0.5661
     33 O2          0.8659    7.5098   -1.7560 O.2       1 <0>        -0.5064
     34 S1         -0.5977   11.8700    4.2274 S.o2      1 <0>         2.4923
     35 O3         -0.6057   13.2821    4.0685 O.2       1 <0>        -0.9142
     36 O4         -1.8068   11.1602    4.4587 O.2       1 <0>        -0.9168
     37 C26         0.6543   11.3856    5.4474 C.3       1 <0>        -0.5804
     38 C27         0.2398   11.8713    6.8125 C.ar      1 <0>        -0.0824
     39 C28         0.6370   13.1213    7.2522 C.ar      1 <0>        -0.0134
     40 C29         0.2525   13.5684    8.5039 C.ar      1 <0>        -0.1017
     41 C30        -0.5202   12.7625    9.3187 C.ar      1 <0>        -0.0801
     42 C31        -0.9129   11.5113    8.8819 C.ar      1 <0>        -0.1026
     43 C32        -0.5331   11.0650    7.6285 C.ar      1 <0>        -0.0131
     44 Cl1        -1.0260    9.4933    7.0804 Cl        1 <0>        -0.0402
     45 Cl2         1.6131   14.1310    6.2316 Cl        1 <0>        -0.0366
     46 H3         -0.6314    4.9463    2.3230 H         1 <0>         0.0714
     47 H4          0.1016    3.4666    1.6159 H         1 <0>         0.0679
     48 H5         -1.6712    3.5455    1.8945 H         1 <0>         0.0744
     49 H6          1.1249    2.5935   -2.8560 H         1 <0>         0.0745
     50 H7          1.3235    3.2432   -1.1931 H         1 <0>         0.0913
     51 H8          3.0552    1.3610   -2.0723 H         1 <0>         0.0968
     52 H9          2.4078    1.2462   -0.4007 H         1 <0>         0.0864
     53 H10         1.4517   -0.2307   -2.9468 H         1 <0>         0.0891
     54 H11         1.7351   -0.9217   -1.3131 H         1 <0>         0.0968
     55 H12        -2.0939    0.1316   -2.2738 H         1 <0>         0.1409
     56 H13        -0.7842    0.1165   -3.5031 H         1 <0>         0.1304
     57 H14        -0.5485   -2.1534   -0.4642 H         1 <0>         0.1309
     58 H15        -2.2377   -1.5913   -0.7032 H         1 <0>         0.1330
     59 H16        -0.9884   -4.3143   -1.4576 H         1 <0>         0.0978
     60 H17        -2.5276   -4.0091   -0.5834 H         1 <0>         0.1154
     61 H18        -2.3979   -4.4324   -3.3658 H         1 <0>         0.1062
     62 H19        -3.7013   -3.4894   -2.5667 H         1 <0>         0.1046
     63 H20        -2.8908   -1.5280   -3.5357 H         1 <0>         0.1285
     64 H21        -1.6106   -2.4766   -4.3651 H         1 <0>         0.1311
     65 H22        -1.6040    3.4422   -3.5602 H         1 <0>         0.0747
     66 H23        -0.7066    4.9198   -4.0482 H         1 <0>         0.0827
     67 H24        -2.4811    4.9945   -3.7792 H         1 <0>         0.0818
     68 H25        -1.2227    7.0895    1.7599 H         1 <0>         0.1616
     69 H26        -0.9843    9.3632    2.8971 H         1 <0>         0.1477
     70 H27         1.0890   13.0286    2.2281 H         1 <0>         0.1534
     71 H28         1.9375   12.1854    0.0856 H         1 <0>         0.1429
     72 H29         1.9432   10.0368   -1.6460 H         1 <0>         0.4510
     73 H30         0.7482   10.2897    5.4610 H         1 <0>         0.1539
     74 H31         1.6221   11.8332    5.1772 H         1 <0>         0.1551
     75 H32         0.5597   14.5456    8.8460 H         1 <0>         0.1501
     76 H33        -0.8169   13.1104   10.2971 H         1 <0>         0.1513
     77 H34        -1.5167   10.8820    9.5190 H         1 <0>         0.1494
     78 H35        -0.0502   -1.9971   -2.7620 H         1 <0>         0.4439
@<TRIPOS>BOND
     1    1    2 1
     2    1   46 1
     3    1   47 1
     4    1   48 1
     5    2    7 1
     6    2    3 2
     7    3    4 1
     8    3   23 1
     9    4    5 1
    10    4    6 1
    11    6    7 2
    12    6   22 1
    13    7    8 1
    14    8    9 2
    15    8   10 am
    16   10   14 1
    17   10   11 1
    18   11   12 1
    19   11   49 1
    20   11   50 1
    21   12   13 1
    22   12   51 1
    23   12   52 1
    24   13   14 1
    25   13   53 1
    26   13   54 1
    27   14   15 1
    28   14   16 1
    29   16   17 1
    30   16   55 1
    31   16   56 1
    32   17   21 1
    33   17   18 1
    34   17   78 1
    35   18   19 1
    36   18   57 1
    37   18   58 1
    38   19   20 1
    39   19   59 1
    40   19   60 1
    41   20   21 1
    42   20   61 1
    43   20   62 1
    44   21   63 1
    45   21   64 1
    46   22   65 1
    47   22   66 1
    48   22   67 1
    49   23   24 2
    50   23   68 1
    51   24   32 1
    52   24   25 1
    53   25   30 ar
    54   25   26 ar
    55   26   27 ar
    56   26   69 1
    57   27   28 ar
    58   27   34 1
    59   28   29 ar
    60   28   70 1
    61   29   30 ar
    62   29   71 1
    63   30   31 1
    64   31   32 am
    65   31   72 1
    66   32   33 2
    67   34   35 2
    68   34   36 2
    69   34   37 1
    70   37   38 1
    71   37   73 1
    72   37   74 1
    73   38   43 ar
    74   38   39 ar
    75   39   40 ar
    76   39   45 1
    77   40   41 ar
    78   40   75 1
    79   41   42 ar
    80   41   76 1
    81   42   43 ar
    82   42   77 1
    83   43   44 1
@<TRIPOS>MOLECULE
ZINC03952380
   72    74     0     0     0
SMALL
USER_CHARGES
1-[3-(2,6-dichlorophenyl)-8-(4-diethylaminobutylamino)-5,7,9-triazabicyclo[4.4.0]deca-2,4,7,9,11-pentaen-4-yl]-3-tert-butyl-urea
@<TRIPOS>ATOM
      1 C1         -4.4663    6.7451   -2.1992 C.3       1 <0>        -0.1869
      2 C2         -3.7440    7.5917   -1.1493 C.3       1 <0>        -0.0140
      3 C3         -5.7495    7.7763    0.1948 C.3       1 <0>        -0.0122
      4 C4         -5.8211    9.3045    0.1743 C.3       1 <0>        -0.1886
      5 C5         -4.2126    5.9411    0.5591 C.3       1 <0>        -0.0109
      6 C6         -2.7345    5.6035    0.7639 C.3       1 <0>        -0.1438
      7 C7         -2.5983    4.1344    1.1690 C.3       1 <0>        -0.1329
      8 C8         -1.1201    3.7968    1.3738 C.3       1 <0>         0.1393
      9 N1         -0.9897    2.3901    1.7617 N.pl3     1 <0>        -0.6988
     10 C9          0.2606    1.8528    2.0025 C.ar      1 <0>         0.5908
     11 N2          1.3286    2.6364    1.8690 N.ar      1 <0>        -0.5736
     12 C10         2.5462    2.1791    2.0797 C.ar      1 <0>         0.2660
     13 C11         2.7015    0.8330    2.4529 C.ar      1 <0>        -0.2909
     14 C12         3.9658    0.2710    2.6947 C.ar      1 <0>         0.0475
     15 C13         4.0241   -1.0651    3.0577 C.ar      1 <0>        -0.1607
     16 C14         2.8285   -1.8061    3.1708 C.ar      1 <0>         0.4876
     17 N3          1.6541   -1.2563    2.9386 N.ar      1 <0>        -0.4748
     18 C15         1.5415    0.0257    2.5863 C.ar      1 <0>         0.4312
     19 N4          0.3471    0.5830    2.3502 N.ar      1 <0>        -0.5595
     20 N5          2.8912   -3.1435    3.5349 N.am      1 <0>        -0.6592
     21 C16         1.7585   -3.8651    3.6472 C.2       1 <0>         0.6931
     22 O1          0.6818   -3.3443    3.4295 O.2       1 <0>        -0.5048
     23 N6          1.8195   -5.1642    4.0010 N.am      1 <0>        -0.7340
     24 C17         0.5883   -5.9487    4.1231 C.3       1 <0>         0.1879
     25 C18        -0.1412   -5.9656    2.7783 C.3       1 <0>        -0.1657
     26 C19         0.9349   -7.3813    4.5333 C.3       1 <0>        -0.1564
     27 C20        -0.3148   -5.3184    5.1852 C.3       1 <0>        -0.1657
     28 C21         5.3318   -1.7107    3.3246 C.ar      1 <0>        -0.0437
     29 C22         6.0299   -2.3328    2.2896 C.ar      1 <0>        -0.0133
     30 C23         7.2503   -2.9280    2.5437 C.ar      1 <0>        -0.1036
     31 C24         7.7753   -2.9171    3.8233 C.ar      1 <0>        -0.0815
     32 C25         7.0852   -2.3068    4.8551 C.ar      1 <0>        -0.1036
     33 C26         5.8664   -1.7036    4.6130 C.ar      1 <0>        -0.0132
     34 Cl1         5.0016   -0.9387    5.9094 Cl        1 <0>        -0.0433
     35 Cl2         5.3693   -2.3538    0.6844 Cl        1 <0>        -0.0434
     36 H1         -4.0065    6.9055   -3.1744 H         1 <0>         0.1057
     37 H2         -4.3908    5.6913   -1.9309 H         1 <0>         0.0804
     38 H3         -5.5162    7.0352   -2.2404 H         1 <0>         0.0800
     39 H4         -3.8394    8.6470   -1.4052 H         1 <0>         0.1289
     40 H5         -2.6893    7.3178   -1.1245 H         1 <0>         0.1296
     41 H6         -6.2651    7.3767   -0.6785 H         1 <0>         0.1321
     42 H7         -6.2262    7.4024    1.1009 H         1 <0>         0.1285
     43 H8         -6.8645    9.6196    0.1898 H         1 <0>         0.1058
     44 H9         -5.3079    9.7041    1.0489 H         1 <0>         0.0802
     45 H10        -5.3421    9.6786   -0.7305 H         1 <0>         0.0792
     46 H11        -4.6244    5.3079   -0.2268 H         1 <0>         0.1339
     47 H12        -4.7569    5.7683    1.4875 H         1 <0>         0.1302
     48 H13        -2.3227    6.2368    1.5498 H         1 <0>         0.0912
     49 H14        -2.1902    5.7764   -0.1645 H         1 <0>         0.0908
     50 H15        -3.0100    3.5012    0.3831 H         1 <0>         0.0823
     51 H16        -3.1425    3.9616    2.0974 H         1 <0>         0.0829
     52 H17        -0.7083    4.4301    2.1597 H         1 <0>         0.0712
     53 H18        -0.5759    3.9697    0.4454 H         1 <0>         0.0709
     54 H19        -1.7808    1.8359    1.8494 H         1 <0>         0.4172
     55 H20         3.4054    2.8240    1.9687 H         1 <0>         0.1807
     56 H21         4.8648    0.8621    2.6010 H         1 <0>         0.1525
     57 H22         3.7503   -3.5590    3.7086 H         1 <0>         0.4130
     58 H23         2.6786   -5.5798    4.1747 H         1 <0>         0.3948
     59 H24         0.5022   -6.4147    2.0216 H         1 <0>         0.0532
     60 H25        -1.0573   -6.5493    2.8692 H         1 <0>         0.0646
     61 H26        -0.3882   -4.9450    2.4860 H         1 <0>         0.0802
     62 H27         1.4546   -7.3693    5.4914 H         1 <0>         0.0630
     63 H28         0.0188   -7.9650    4.6242 H         1 <0>         0.0775
     64 H29         1.5783   -7.8304    3.7766 H         1 <0>         0.0630
     65 H30        -0.5618   -4.2978    4.8930 H         1 <0>         0.0802
     66 H31        -1.2309   -5.9021    5.2761 H         1 <0>         0.0646
     67 H32         0.2049   -5.3063    6.1433 H         1 <0>         0.0532
     68 H33         7.7940   -3.4061    1.7423 H         1 <0>         0.1465
     69 H34         8.7278   -3.3874    4.0178 H         1 <0>         0.1484
     70 H35         7.5004   -2.3017    5.8521 H         1 <0>         0.1466
     71 N7         -4.3291    7.3675    0.1894 N.4       1 <0>        -0.3960
     72 H36        -3.8167    7.9330    0.8763 H         1 <0>         0.4282
@<TRIPOS>BOND
     1    1    2 1
     2    1   36 1
     3    1   37 1
     4    1   38 1
     5    2   39 1
     6    2   40 1
     7    2   71 1
     8    3    4 1
     9    3   41 1
    10    3   42 1
    11    3   71 1
    12    4   43 1
    13    4   44 1
    14    4   45 1
    15    5    6 1
    16    5   46 1
    17    5   47 1
    18    5   71 1
    19    6    7 1
    20    6   48 1
    21    6   49 1
    22    7    8 1
    23    7   50 1
    24    7   51 1
    25    8    9 1
    26    8   52 1
    27    8   53 1
    28    9   10 1
    29    9   54 1
    30   10   19 ar
    31   10   11 ar
    32   11   12 ar
    33   12   13 ar
    34   12   55 1
    35   13   18 ar
    36   13   14 ar
    37   14   15 ar
    38   14   56 1
    39   15   16 ar
    40   15   28 1
    41   16   17 ar
    42   16   20 1
    43   17   18 ar
    44   18   19 ar
    45   20   21 am
    46   20   57 1
    47   21   22 2
    48   21   23 am
    49   23   24 1
    50   23   58 1
    51   24   25 1
    52   24   26 1
    53   24   27 1
    54   25   59 1
    55   25   60 1
    56   25   61 1
    57   26   62 1
    58   26   63 1
    59   26   64 1
    60   27   65 1
    61   27   66 1
    62   27   67 1
    63   28   33 ar
    64   28   29 ar
    65   29   30 ar
    66   29   35 1
    67   30   31 ar
    68   30   68 1
    69   31   32 ar
    70   31   69 1
    71   32   33 ar
    72   32   70 1
    73   33   34 1
    74   71   72 1
@<TRIPOS>MOLECULE
ZINC00155806
   36    39     0     0     0
SMALL
USER_CHARGES

@<TRIPOS>ATOM
      1 C1         -0.0168    1.3847    0.0097 C.ar      1 <0>        -0.0734
      2 C2          1.1616    2.1028    0.0023 C.ar      1 <0>        -0.1509
      3 C3          2.3808    1.4427   -0.0114 C.ar      1 <0>         0.1127
      4 C4          2.4085    0.0532   -0.0117 C.ar      1 <0>         0.0607
      5 C5          1.2174   -0.6637   -0.0015 C.ar      1 <0>         0.1096
      6 C6          0.0021   -0.0041    0.0020 C.ar      1 <0>        -0.1291
      7 C7         -1.3116   -0.7345   -0.0163 C.3       1 <0>         0.0091
      8 H1         -1.9318   -0.4037    0.8168 H         1 <0>         0.1097
      9 C8         -2.0129   -0.4571   -1.3205 C.ar      1 <0>        -0.0779
     10 C9         -2.6959    0.6838   -1.7124 C.ar      1 <0>        -0.1043
     11 C10        -3.2557    0.6821   -2.9862 C.ar      1 <0>         0.0796
     12 C11        -3.1345   -0.4159   -3.8281 C.ar      1 <0>         0.0844
     13 C12        -2.4489   -1.5604   -3.4334 C.ar      1 <0>        -0.1119
     14 C13        -1.8915   -1.5584   -2.1635 C.ar      1 <0>        -0.0767
     15 C14        -1.1086   -2.6429   -1.4764 C.3       1 <0>        -0.1092
     16 C15        -1.1367   -2.2593    0.0349 C.3       1 <0>         0.1052
     17 C16         0.1665   -2.6533    0.7137 C.3       1 <0>         0.0380
     18 O1          1.2602   -2.0251    0.0116 O.3       1 <0>        -0.2900
     19 O2         -2.2545   -2.8668    0.6855 O.3       1 <0>        -0.5371
     20 O3         -3.6985   -0.3715   -5.0648 O.3       1 <0>        -0.4881
     21 O4         -3.9361    1.7784   -3.4157 O.3       1 <0>        -0.4873
     22 O5          3.5998   -0.6047   -0.0226 O.3       1 <0>        -0.4731
     23 O6          3.5420    2.1503   -0.0247 O.3       1 <0>        -0.4824
     24 H2         -0.9619    1.9071    0.0260 H         1 <0>         0.1342
     25 H3          1.1341    3.1825    0.0068 H         1 <0>         0.1393
     26 H4         -2.7898    1.5371   -1.0570 H         1 <0>         0.1407
     27 H5         -2.3551   -2.4142   -4.0881 H         1 <0>         0.1413
     28 H6         -1.5859   -3.6108   -1.6293 H         1 <0>         0.0896
     29 H7         -0.0828   -2.6620   -1.8446 H         1 <0>         0.1013
     30 H8          0.1476   -2.3287    1.7541 H         1 <0>         0.0810
     31 H9          0.2860   -3.7359    0.6715 H         1 <0>         0.1177
     32 H10        -2.1981   -3.8303    0.7466 H         1 <0>         0.3851
     33 H11        -3.1135   -0.0237   -5.7517 H         1 <0>         0.3880
     34 H12        -3.3848    2.4308   -3.8691 H         1 <0>         0.3873
     35 H13         3.9521   -0.7949    0.8577 H         1 <0>         0.3853
     36 H14         3.8879    2.3553    0.8547 H         1 <0>         0.3918
@<TRIPOS>BOND
     1    1    6 ar
     2    1    2 ar
     3    1   24 1
     4    2    3 ar
     5    2   25 1
     6    3    4 ar
     7    3   23 1
     8    4    5 ar
     9    4   22 1
    10    5   18 1
    11    5    6 ar
    12    6    7 1
    13    7    8 1
    14    7   16 1
    15    7    9 1
    16    9   14 ar
    17    9   10 ar
    18   10   11 ar
    19   10   26 1
    20   11   12 ar
    21   11   21 1
    22   12   13 ar
    23   12   20 1
    24   13   14 ar
    25   13   27 1
    26   14   15 1
    27   15   16 1
    28   15   28 1
    29   15   29 1
    30   16   17 1
    31   16   19 1
    32   17   18 1
    33   17   30 1
    34   17   31 1
    35   19   32 1
    36   20   33 1
    37   21   34 1
    38   22   35 1
    39   23   36 1
@<TRIPOS>MOLECULE
ZINC11617039
   55    58     0     0     0
SMALL
USER_CHARGES

@<TRIPOS>ATOM
      1 H1          0.2120    6.2074    3.3921 H         1 <0>         0.1353
      2 C1         -0.6814    5.6062    3.3098 C.ar      1 <0>         0.0196
      3 C2         -1.0741    5.1311    2.1031 C.ar      1 <0>        -0.1998
      4 C3         -2.2288    4.3474    1.9606 C.ar      1 <0>         0.2426
      5 C4         -3.0111    4.0257    3.0293 C.ar      1 <0>        -0.1858
      6 C5         -2.6578    4.4884    4.3143 C.ar      1 <0>         0.1374
      7 C6         -1.4433    5.3059    4.4600 C.ar      1 <0>        -0.2352
      8 C7         -1.3367    5.6110    5.8041 C.2       1 <0>         0.1330
      9 N1         -2.3705    5.0424    6.4391 N.pl3     1 <0>        -0.3190
     10 N2         -3.1795    4.3626    5.5213 N.2       1 <0>        -0.3200
     11 C8         -2.6225    5.1281    7.8797 C.3       1 <0>         0.0831
     12 H2         -3.2434    5.9992    8.0888 H         1 <0>         0.0888
     13 H3         -3.1369    4.2268    8.2129 H         1 <0>         0.0992
     14 H4         -1.6744    5.2222    8.4094 H         1 <0>         0.0983
     15 C9         -0.2495    6.4365    6.4425 C.3       1 <0>        -0.1025
     16 H5         -0.5455    7.4855    6.4477 H         1 <0>         0.0927
     17 H6         -0.0907    6.0987    7.4666 H         1 <0>         0.0807
     18 H7          0.6740    6.3223    5.8749 H         1 <0>         0.0943
     19 H8         -3.8955    3.4210    2.8932 H         1 <0>         0.1075
     20 N3         -2.5862    3.8853    0.6908 N.pl3     1 <0>        -0.5925
     21 C10        -3.6562    3.0160    0.5454 C.ar      1 <0>         0.5430
     22 C11        -3.4766    1.6392    0.6984 C.ar      1 <0>        -0.2193
     23 C12        -4.5711    0.8111    0.5450 C.ar      1 <0>         0.2156
     24 N4         -5.7510    1.3422    0.2594 N.ar      1 <0>        -0.5411
     25 C13        -5.8925    2.6520    0.1199 C.ar      1 <0>         0.6254
     26 N5         -4.8692    3.4808    0.2639 N.ar      1 <0>        -0.5160
     27 N6         -7.1427    3.1682   -0.1788 N.pl3     1 <0>        -0.6061
     28 C14        -7.2911    4.5338   -0.4396 C.ar      1 <0>         0.0902
     29 C15        -6.2697    5.2382   -1.0645 C.ar      1 <0>        -0.0370
     30 C16        -6.4197    6.5867   -1.3210 C.ar      1 <0>        -0.1186
     31 C17        -7.5850    7.2362   -0.9562 C.ar      1 <0>         0.0334
     32 C18        -8.6034    6.5381   -0.3338 C.ar      1 <0>        -0.6606
     33 C19        -8.4623    5.1877   -0.0798 C.ar      1 <0>        -0.0140
     34 S1        -10.0857    7.3705    0.1294 S.o2      1 <0>         2.7024
     35 O1        -10.5091    8.1093   -1.0082 O.2       1 <0>        -0.9461
     36 O2        -10.9137    6.4040    0.7615 O.2       1 <0>        -0.9598
     37 N7         -9.6818    8.4799    1.2907 N.pl3     1 <0>        -1.2481
     38 C20        -7.7450    8.7080   -1.2374 C.3       1 <0>        -0.1567
     39 H9         -8.1929    8.8433   -2.2218 H         1 <0>         0.1090
     40 H10        -8.3897    9.1545   -0.4804 H         1 <0>         0.0769
     41 H11        -6.7680    9.1908   -1.2132 H         1 <0>         0.0924
     42 H12        -4.4665   -0.2581    0.6563 H         1 <0>         0.2280
     43 H13        -2.5039    1.2316    0.9310 H         1 <0>         0.1988
     44 C21        -1.8301    4.3196   -0.4864 C.3       1 <0>         0.0917
     45 H14        -1.0078    3.6271   -0.6659 H         1 <0>         0.0746
     46 H15        -2.4881    4.3354   -1.3553 H         1 <0>         0.0729
     47 H16        -1.4320    5.3196   -0.3140 H         1 <0>         0.0953
     48 H17        -0.4834    5.3620    1.2289 H         1 <0>         0.1346
     49 H18        -7.9152    2.5823   -0.2071 H         1 <0>         0.4391
     50 H19        -5.3592    4.7318   -1.3490 H         1 <0>         0.1427
     51 H20        -5.6260    7.1349   -1.8068 H         1 <0>         0.1482
     52 H21        -9.2599    4.6421    0.4024 H         1 <0>         0.1564
     53 H22        -8.7604    8.5635    1.5820 H         1 <0>         0.4174
     54 H23       -10.3667    9.0460    1.6797 H         1 <0>         0.4270
     55 H24        -6.5221    0.7638    0.1506 H         1 <0>         0.4504
@<TRIPOS>BOND
     1    1    2 1
     2    2    7 ar
     3    2    3 ar
     4    3    4 ar
     5    3   48 1
     6    4    5 ar
     7    4   20 1
     8    5    6 ar
     9    5   19 1
    10    6   10 2
    11    6    7 ar
    12    7    8 2
    13    8    9 1
    14    8   15 1
    15    9   10 1
    16    9   11 1
    17   11   12 1
    18   11   13 1
    19   11   14 1
    20   15   16 1
    21   15   17 1
    22   15   18 1
    23   20   21 1
    24   20   44 1
    25   21   26 ar
    26   21   22 ar
    27   22   23 ar
    28   22   43 1
    29   23   24 ar
    30   23   42 1
    31   24   25 ar
    32   24   55 1
    33   25   26 ar
    34   25   27 1
    35   27   28 1
    36   27   49 1
    37   28   33 ar
    38   28   29 ar
    39   29   30 ar
    40   29   50 1
    41   30   31 ar
    42   30   51 1
    43   31   32 ar
    44   31   38 1
    45   32   33 ar
    46   32   34 1
    47   33   52 1
    48   34   35 2
    49   34   36 2
    50   34   37 1
    51   37   53 1
    52   37   54 1
    53   38   39 1
    54   38   40 1
    55   38   41 1
    56   44   45 1
    57   44   46 1
    58   44   47 1
@<TRIPOS>MOLECULE
ZINC34885047
   54    57     0     0     0
SMALL
USER_CHARGES

@<TRIPOS>ATOM
      1 C1          0.1956   -8.1849    0.9094 C.3       1 <0>        -0.0785
      2 C2          0.1293   -6.7057    0.6288 C.2       1 <0>         0.0885
      3 C3          0.1319   -5.6909    1.5895 C.2       1 <0>        -0.2739
      4 C4          0.0607   -4.4980    0.9369 C.2       1 <0>         0.3068
      5 N1          0.0151   -4.7636   -0.3942 N.pl3     1 <0>        -0.4950
      6 N2          0.0654   -6.1540   -0.5558 N.2       1 <0>        -0.2801
      7 H1         -0.0392   -4.1072   -1.1063 H         1 <0>         0.4357
      8 N3          0.0383   -3.2359    1.5267 N.pl3     1 <0>        -0.6259
      9 C5         -0.0499   -3.1163    2.9062 C.ar      1 <0>         0.4764
     10 C6         -0.1829   -1.8625    3.4985 C.ar      1 <0>        -0.3500
     11 C7         -0.2684   -1.7891    4.8868 C.ar      1 <0>         0.4670
     12 N4         -0.2207   -2.9110    5.5990 N.ar      1 <0>        -0.5905
     13 C8         -0.0933   -4.0907    5.0014 C.ar      1 <0>         0.4457
     14 N5         -0.0141   -4.1975    3.6794 N.ar      1 <0>        -0.5725
     15 C9         -0.0437   -5.3108    5.8245 C.2       1 <0>        -0.1368
     16 C10        -0.0261   -6.5180    5.2356 C.2       1 <0>        -0.0158
     17 C11        -0.0947   -7.7396    6.0570 C.ar      1 <0>        -0.0835
     18 C12        -0.1840   -7.6460    7.4485 C.ar      1 <0>        -0.1003
     19 C13        -0.2478   -8.7936    8.2106 C.ar      1 <0>        -0.1231
     20 C14        -0.2236  -10.0356    7.6008 C.ar      1 <0>        -0.1032
     21 C15        -0.1348  -10.1361    6.2234 C.ar      1 <0>        -0.1213
     22 C16        -0.0766   -8.9972    5.4478 C.ar      1 <0>        -0.0908
     23 N6         -0.4010   -0.5618    5.5181 N.pl3     1 <0>        -0.6188
     24 C17        -0.2758   -0.4454    6.9792 C.3       1 <0>         0.1037
     25 C18         0.7164    0.6792    7.2935 C.3       1 <0>        -0.0227
     26 N7          0.2862    1.9120    6.6219 N.4       1 <0>        -0.3852
     27 C19         0.3403    1.7332    5.1655 C.3       1 <0>        -0.0217
     28 C20        -0.6649    0.6617    4.7452 C.3       1 <0>         0.0996
     29 C21         1.1746    3.0152    7.0113 C.3       1 <0>        -0.0471
     30 H2         -0.8145   -8.5793    1.0198 H         1 <0>         0.0807
     31 H3          0.6944   -8.6897    0.0821 H         1 <0>         0.0762
     32 H4          0.7547   -8.3554    1.8294 H         1 <0>         0.0794
     33 H5          0.1811   -5.8284    2.6596 H         1 <0>         0.1832
     34 H6          0.0843   -2.4408    0.9729 H         1 <0>         0.4221
     35 H7         -0.2185   -0.9676    2.8949 H         1 <0>         0.1410
     36 H8         -0.0216   -5.2351    6.9016 H         1 <0>         0.1430
     37 H9          0.0384   -6.5933    4.1601 H         1 <0>         0.1401
     38 H10        -0.2026   -6.6774    7.9258 H         1 <0>         0.1261
     39 H11        -0.3164   -8.7229    9.2861 H         1 <0>         0.1262
     40 H12        -0.2738  -10.9309    8.2027 H         1 <0>         0.1261
     41 H13        -0.1161  -11.1088    5.7544 H         1 <0>         0.1287
     42 H14        -0.0122   -9.0771    4.3727 H         1 <0>         0.1300
     43 H15        -1.2475   -0.2082    7.4123 H         1 <0>         0.0911
     44 H16         0.0927   -1.3848    7.3912 H         1 <0>         0.1398
     45 H17         0.7492    0.8444    8.3704 H         1 <0>         0.1444
     46 H18         1.7080    0.3988    6.9383 H         1 <0>         0.1323
     47 H19         0.0960    2.6751    4.6743 H         1 <0>         0.1450
     48 H20         1.3433    1.4209    4.8747 H         1 <0>         0.1335
     49 H21        -0.5535    0.4539    3.6810 H         1 <0>         0.1288
     50 H22        -1.6766    1.0126    4.9489 H         1 <0>         0.0961
     51 H23         2.1975    2.7788    6.7180 H         1 <0>         0.1218
     52 H24         0.8564    3.9311    6.5134 H         1 <0>         0.1255
     53 H25         1.1293    3.1543    8.0915 H         1 <0>         0.1264
     54 H26        -0.6592    2.1315    6.8977 H         1 <0>         0.4258
@<TRIPOS>BOND
     1    1    2 1
     2    1   30 1
     3    1   31 1
     4    1   32 1
     5    2    3 1
     6    2    6 2
     7    3   33 1
     8    3    4 2
     9    4    8 1
    10    4    5 1
    11    5    7 1
    12    5    6 1
    13    8    9 1
    14    8   34 1
    15    9   14 ar
    16    9   10 ar
    17   10   11 ar
    18   10   35 1
    19   11   12 ar
    20   11   23 1
    21   12   13 ar
    22   13   14 ar
    23   13   15 1
    24   15   16 2
    25   15   36 1
    26   16   17 1
    27   16   37 1
    28   17   22 ar
    29   17   18 ar
    30   18   19 ar
    31   18   38 1
    32   19   20 ar
    33   19   39 1
    34   20   21 ar
    35   20   40 1
    36   21   22 ar
    37   21   41 1
    38   22   42 1
    39   23   28 1
    40   23   24 1
    41   24   25 1
    42   24   43 1
    43   24   44 1
    44   25   26 1
    45   25   45 1
    46   25   46 1
    47   26   27 1
    48   26   29 1
    49   26   54 1
    50   27   28 1
    51   27   47 1
    52   27   48 1
    53   28   49 1
    54   28   50 1
    55   29   51 1
    56   29   52 1
    57   29   53 1
@<TRIPOS>MOLECULE
ZINC34885047
   55    58     0     0     0
SMALL
USER_CHARGES

@<TRIPOS>ATOM
      1 C1          0.7214   -0.2663   -2.4222 C.3       1 <0>        -0.0896
      2 C2          0.7310   -0.8132   -1.0180 C.2       1 <0>         0.1183
      3 C3          0.2120   -2.0476   -0.6184 C.2       1 <0>        -0.2385
      4 C4          0.4140   -2.1711    0.7225 C.2       1 <0>         0.2867
      5 N1          1.0419   -1.0437    1.1458 N.pl3     1 <0>        -0.5013
      6 N2          1.2317   -0.2152    0.0324 N.2       1 <0>        -0.2605
      7 H1          1.3135   -0.8484    2.0563 H         1 <0>         0.4322
      8 N3          0.0439   -3.2554    1.5154 N.pl3     1 <0>        -0.6090
      9 C5          0.1546   -3.1750    2.8961 C.ar      1 <0>         0.4957
     10 C6          0.1324   -1.9371    3.5347 C.ar      1 <0>        -0.3535
     11 C7          0.2461   -1.9033    4.9224 C.ar      1 <0>         0.5251
     12 N4          0.3713   -3.0463    5.5904 N.ar      1 <0>        -0.5525
     13 C8          0.3887   -4.2099    4.9493 C.ar      1 <0>         0.5207
     14 N5          0.2776   -4.2790    3.6270 N.ar      1 <0>        -0.5647
     15 C9          0.5296   -5.4543    5.7239 C.2       1 <0>        -0.2363
     16 C10         0.6385   -5.4039    7.0618 C.2       1 <0>         0.0998
     17 C11         0.7794   -6.6492    7.8370 C.ar      1 <0>        -0.1304
     18 C12         0.8059   -7.8841    7.1832 C.ar      1 <0>        -0.0787
     19 C13         0.9380   -9.0454    7.9153 C.ar      1 <0>        -0.1241
     20 C14         1.0442   -8.9899    9.2940 C.ar      1 <0>        -0.0698
     21 C15         1.0183   -7.7708    9.9483 C.ar      1 <0>        -0.1245
     22 C16         0.8930   -6.6008    9.2290 C.ar      1 <0>        -0.0687
     23 N6          0.2292   -0.6931    5.5989 N.pl3     1 <0>        -0.5876
     24 C17         0.5614   -0.6220    7.0302 C.3       1 <0>         0.0889
     25 C18         1.6111    0.4759    7.2312 C.3       1 <0>        -0.0237
     26 N7          1.1165    1.7352    6.6605 N.4       1 <0>        -0.3873
     27 C19         0.9612    1.5985    5.2068 C.3       1 <0>        -0.0238
     28 C20        -0.1153    0.5570    4.9042 C.3       1 <0>         0.0845
     29 C21         2.0737    2.8112    6.9499 C.3       1 <0>        -0.0496
     30 H2         -0.1921    0.3062   -2.5829 H         1 <0>         0.0915
     31 H3          1.5862    0.3815   -2.5657 H         1 <0>         0.0851
     32 H4          0.7632   -1.0911   -3.1336 H         1 <0>         0.0909
     33 H5         -0.2649   -2.7744   -1.2592 H         1 <0>         0.1692
     34 H6         -0.2912   -4.0664    1.1020 H         1 <0>         0.4507
     35 H7          0.0299   -1.0244    2.9665 H         1 <0>         0.1793
     36 H8          0.5453   -6.4075    5.2163 H         1 <0>         0.1645
     37 H9          0.6228   -4.4507    7.5694 H         1 <0>         0.1470
     38 H10         0.7228   -7.9289    6.1073 H         1 <0>         0.1294
     39 H11         0.9583  -10.0004    7.4115 H         1 <0>         0.1370
     40 H12         1.1475   -9.9026    9.8621 H         1 <0>         0.1375
     41 H13         1.1014   -7.7353   11.0245 H         1 <0>         0.1378
     42 H14         0.8778   -5.6498    9.7406 H         1 <0>         0.1330
     43 H15        -0.3345   -0.3813    7.6026 H         1 <0>         0.1122
     44 H16         0.9646   -1.5792    7.3607 H         1 <0>         0.1449
     45 H17         1.7987    0.6087    8.2967 H         1 <0>         0.1566
     46 H18         2.5368    0.1895    6.7320 H         1 <0>         0.1374
     47 H19         0.6699    2.5584    4.7805 H         1 <0>         0.1589
     48 H20         1.9066    1.2781    4.7689 H         1 <0>         0.1387
     49 H21        -0.1592    0.3788    3.8297 H         1 <0>         0.1301
     50 H22        -1.0806    0.9187    5.2582 H         1 <0>         0.1200
     51 H23         3.0399    2.5664    6.5087 H         1 <0>         0.1254
     52 H24         1.7077    3.7467    6.5267 H         1 <0>         0.1318
     53 H25         2.1839    2.9191    8.0289 H         1 <0>         0.1322
     54 H26         0.2241    1.9623    7.0730 H         1 <0>         0.4301
     55 H27         0.2900   -5.1446    3.1895 H         1 <0>         0.4509
@<TRIPOS>BOND
     1    1    2 1
     2    1   30 1
     3    1   31 1
     4    1   32 1
     5    2    3 1
     6    2    6 2
     7    3   33 1
     8    3    4 2
     9    4    8 1
    10    4    5 1
    11    5    7 1
    12    5    6 1
    13    8    9 1
    14    8   34 1
    15    9   14 ar
    16    9   10 ar
    17   10   11 ar
    18   10   35 1
    19   11   12 ar
    20   11   23 1
    21   12   13 ar
    22   13   14 ar
    23   13   15 1
    24   14   55 1
    25   15   16 2
    26   15   36 1
    27   16   17 1
    28   16   37 1
    29   17   22 ar
    30   17   18 ar
    31   18   19 ar
    32   18   38 1
    33   19   20 ar
    34   19   39 1
    35   20   21 ar
    36   20   40 1
    37   21   22 ar
    38   21   41 1
    39   22   42 1
    40   23   28 1
    41   23   24 1
    42   24   25 1
    43   24   43 1
    44   24   44 1
    45   25   26 1
    46   25   45 1
    47   25   46 1
    48   26   27 1
    49   26   29 1
    50   26   54 1
    51   27   28 1
    52   27   47 1
    53   27   48 1
    54   28   49 1
    55   28   50 1
    56   29   51 1
    57   29   52 1
    58   29   53 1
@<TRIPOS>MOLECULE
ZINC34885047
   55    58     0     0     0
SMALL
USER_CHARGES

@<TRIPOS>ATOM
      1 C1          0.7372   -0.2667   -2.4212 C.3       1 <0>        -0.1308
      2 C2          0.7435   -0.8136   -1.0170 C.2       1 <0>         0.2826
      3 C3          0.2224   -2.0474   -0.6184 C.2       1 <0>        -0.2481
      4 C4          0.4217   -2.1712    0.7229 C.2       1 <0>         0.4500
      5 N1          1.0500   -1.0445    1.1473 N.pl3     1 <0>        -0.4632
      6 N2          1.2428   -0.2161    0.0343 N.pl3     1 <0>        -0.3667
      7 N3          0.0489   -3.2551    1.5150 N.pl3     1 <0>        -0.6164
      8 C5          0.1571   -3.1749    2.8959 C.ar      1 <0>         0.4695
      9 C6          0.1350   -1.9370    3.5345 C.ar      1 <0>        -0.3443
     10 C7          0.2461   -1.9033    4.9224 C.ar      1 <0>         0.5141
     11 N4          0.3689   -3.0464    5.5906 N.ar      1 <0>        -0.5388
     12 C8          0.3862   -4.2100    4.9495 C.ar      1 <0>         0.5195
     13 N5          0.2775   -4.2790    3.6270 N.ar      1 <0>        -0.5664
     14 C9          0.5243   -5.4546    5.7243 C.2       1 <0>        -0.2414
     15 C10         0.6307   -5.4044    7.0624 C.2       1 <0>         0.1062
     16 C11         0.7689   -6.6499    7.8379 C.ar      1 <0>        -0.1314
     17 C12         0.7953   -7.8847    7.1841 C.ar      1 <0>        -0.0784
     18 C13         0.9248   -9.0462    7.9165 C.ar      1 <0>        -0.1260
     19 C14         1.0285   -8.9908    9.2953 C.ar      1 <0>        -0.0689
     20 C15         1.0026   -7.7718    9.9496 C.ar      1 <0>        -0.1241
     21 C16         0.8799   -6.6016    9.2301 C.ar      1 <0>        -0.0654
     22 N6          0.2292   -0.6931    5.5989 N.pl3     1 <0>        -0.5319
     23 C17         0.5615   -0.6236    7.0299 C.3       1 <0>         0.1037
     24 C18         1.6253    0.4609    7.2305 C.3       1 <0>         0.0354
     25 N7          1.1532    1.7207    6.6405 N.3       1 <0>        -0.5413
     26 C19         0.9694    1.5932    5.1886 C.3       1 <0>         0.0348
     27 C20        -0.1154    0.5559    4.9030 C.3       1 <0>         0.1032
     28 C21         2.0657    2.8265    6.9606 C.3       1 <0>         0.0210
     29 H1         -0.1754    0.3068   -2.5837 H         1 <0>         0.1328
     30 H2          1.6030    0.3802   -2.5631 H         1 <0>         0.1112
     31 H3          0.7794   -1.0915   -3.1326 H         1 <0>         0.1328
     32 H4         -0.2541   -2.7737   -1.2602 H         1 <0>         0.2144
     33 H5         -0.2863   -4.0658    1.1010 H         1 <0>         0.4654
     34 H6          0.0345   -1.0241    2.9661 H         1 <0>         0.1704
     35 H7          0.5400   -6.4078    5.2168 H         1 <0>         0.1646
     36 H8          0.6151   -4.4512    7.5700 H         1 <0>         0.1502
     37 H9          0.7142   -7.9295    6.1081 H         1 <0>         0.1285
     38 H10         0.9450  -10.0013    7.4126 H         1 <0>         0.1364
     39 H11         1.1297   -9.9036    9.8636 H         1 <0>         0.1374
     40 H12         1.0836   -7.7363   11.0260 H         1 <0>         0.1386
     41 H13         0.8647   -5.6505    9.7417 H         1 <0>         0.1356
     42 H14        -0.3316   -0.3705    7.6013 H         1 <0>         0.1068
     43 H15         0.9519   -1.5854    7.3624 H         1 <0>         0.1142
     44 H16         1.8036    0.6029    8.2964 H         1 <0>         0.1111
     45 H17         2.5518    0.1561    6.7438 H         1 <0>         0.0456
     46 H18         0.6720    2.5562    4.7737 H         1 <0>         0.1081
     47 H19         1.9050    1.2725    4.7304 H         1 <0>         0.0409
     48 H20        -0.1723    0.3735    3.8298 H         1 <0>         0.0837
     49 H21        -1.0748    0.9246    5.2659 H         1 <0>         0.1158
     50 H22         3.0571    2.6054    6.5653 H         1 <0>         0.0334
     51 H23         1.6925    3.7470    6.5117 H         1 <0>         0.0800
     52 H24         2.1244    2.9476    8.0422 H         1 <0>         0.0840
     53 H25         0.2899   -5.1446    3.1895 H         1 <0>         0.4506
     54 H26         1.3201   -0.8495    2.0583 H         1 <0>         0.4677
     55 H27         1.6717    0.6539    0.0421 H         1 <0>         0.4835
@<TRIPOS>BOND
     1    1    2 1
     2    1   29 1
     3    1   30 1
     4    1   31 1
     5    2    3 1
     6    2    6 2
     7    3   32 1
     8    3    4 2
     9    4    7 1
    10    4    5 1
    11    5   54 1
    12    5    6 1
    13    6   55 1
    14    7    8 1
    15    7   33 1
    16    8   13 ar
    17    8    9 ar
    18    9   10 ar
    19    9   34 1
    20   10   11 ar
    21   10   22 1
    22   11   12 ar
    23   12   13 ar
    24   12   14 1
    25   13   53 1
    26   14   15 2
    27   14   35 1
    28   15   16 1
    29   15   36 1
    30   16   21 ar
    31   16   17 ar
    32   17   18 ar
    33   17   37 1
    34   18   19 ar
    35   18   38 1
    36   19   20 ar
    37   19   39 1
    38   20   21 ar
    39   20   40 1
    40   21   41 1
    41   22   27 1
    42   22   23 1
    43   23   24 1
    44   23   42 1
    45   23   43 1
    46   24   25 1
    47   24   44 1
    48   24   45 1
    49   25   26 1
    50   25   28 1
    51   26   27 1
    52   26   46 1
    53   26   47 1
    54   27   48 1
    55   27   49 1
    56   28   50 1
    57   28   51 1
    58   28   52 1
@<TRIPOS>MOLECULE
ZINC01486219
   63    66     0     0     0
SMALL
USER_CHARGES
3-(2,6-dichlorophenyl)-8-[4-(2-diethylaminoethoxy)phenyl]amino-5-methyl-5,7,9-triazabicyclo[4.4.0]deca-2,7,9,11-tetraen-4-one
@<TRIPOS>ATOM
      1 C1          4.3966   -4.7837   -2.5468 C.3       1 <0>        -0.1870
      2 C2          2.8964   -4.6021   -2.7861 C.3       1 <0>        -0.0162
      3 C3          2.4461   -6.8910   -2.1372 C.3       1 <0>        -0.0118
      4 C4          1.8425   -7.2999   -3.4823 C.3       1 <0>        -0.1890
      5 C5          2.4154   -5.1324   -0.4731 C.3       1 <0>        -0.0017
      6 C6          1.8626   -3.7372   -0.1755 C.3       1 <0>         0.0258
      7 O1          0.4386   -3.7538   -0.2937 O.3       1 <0>        -0.3284
      8 C7         -0.2140   -2.5840   -0.0593 C.ar      1 <0>         0.0962
      9 C8         -1.5967   -2.5300   -0.1569 C.ar      1 <0>        -0.1190
     10 C9         -2.2601   -1.3423    0.0800 C.ar      1 <0>        -0.0693
     11 C10        -1.5427   -0.2019    0.4166 C.ar      1 <0>         0.1456
     12 C11        -0.1586   -0.2569    0.5145 C.ar      1 <0>        -0.1051
     13 C12         0.5033   -1.4453    0.2768 C.ar      1 <0>        -0.1797
     14 N1         -2.2146    1.0029    0.6565 N.pl3     1 <0>        -0.6299
     15 C13        -3.4618    0.9918    1.2505 C.ar      1 <0>         0.6044
     16 N2         -3.9572   -0.1650    1.6772 N.ar      1 <0>        -0.5742
     17 C14        -5.1437   -0.2299    2.2512 C.ar      1 <0>         0.2632
     18 C15        -5.8809    0.9543    2.4052 C.ar      1 <0>        -0.2686
     19 C16        -7.1573    0.9487    3.0126 C.2       1 <0>         0.0223
     20 C17        -7.8369    2.1304    3.1401 C.2       1 <0>        -0.1517
     21 C18        -7.2276    3.3671    2.6461 C.2       1 <0>         0.5544
     22 O2         -7.8250    4.4230    2.7559 O.2       1 <0>        -0.4939
     23 N3         -6.0096    3.3430    2.0714 N.am      1 <0>        -0.5055
     24 C19        -5.3213    2.1634    1.9394 C.ar      1 <0>         0.4667
     25 N4         -4.1173    2.1350    1.3785 N.ar      1 <0>        -0.5922
     26 C20        -5.4137    4.5888    1.5828 C.3       1 <0>         0.0688
     27 C21        -9.1768    2.1577    3.7717 C.ar      1 <0>        -0.0161
     28 C22       -10.3226    1.9980    2.9915 C.ar      1 <0>        -0.0058
     29 C23       -11.5685    2.0201    3.5872 C.ar      1 <0>        -0.1054
     30 C24       -11.6824    2.2097    4.9527 C.ar      1 <0>        -0.0846
     31 C25       -10.5507    2.3740    5.7310 C.ar      1 <0>        -0.1053
     32 C26        -9.2987    2.3491    5.1486 C.ar      1 <0>        -0.0060
     33 Cl1        -7.8797    2.5560    6.1271 Cl        1 <0>        -0.0505
     34 Cl2       -10.1822    1.7665    1.2768 Cl        1 <0>        -0.0510
     35 H1          4.9531   -4.1230   -3.2115 H         1 <0>         0.1068
     36 H2          4.6315   -4.5389   -1.5110 H         1 <0>         0.0793
     37 H3          4.6739   -5.8185   -2.7475 H         1 <0>         0.0822
     38 H4          2.6589   -4.8621   -3.8177 H         1 <0>         0.1316
     39 H5          2.6219   -3.5637   -2.6008 H         1 <0>         0.1265
     40 H6          3.5263   -7.0339   -2.1651 H         1 <0>         0.1326
     41 H7          2.0186   -7.5058   -1.3452 H         1 <0>         0.1298
     42 H8          2.0860   -8.3423   -3.6879 H         1 <0>         0.1065
     43 H9          0.7598   -7.1800   -3.4463 H         1 <0>         0.0812
     44 H10         2.2519   -6.6689   -4.2712 H         1 <0>         0.0791
     45 H11         3.4910   -5.1423   -0.2968 H         1 <0>         0.1506
     46 H12         1.9336   -5.8608    0.1791 H         1 <0>         0.1410
     47 H13         2.2779   -3.0226   -0.8861 H         1 <0>         0.0853
     48 H14         2.1397   -3.4450    0.8374 H         1 <0>         0.1080
     49 H15        -2.1544   -3.4170   -0.4187 H         1 <0>         0.1368
     50 H16        -3.3362   -1.2993   -0.0007 H         1 <0>         0.1474
     51 H17         0.4000    0.6295    0.7766 H         1 <0>         0.1342
     52 H18         1.5798   -1.4882    0.3529 H         1 <0>         0.1308
     53 H19        -1.8044    1.8453    0.4058 H         1 <0>         0.4284
     54 H20        -5.5388   -1.1742    2.5955 H         1 <0>         0.1893
     55 H21        -7.5900    0.0261    3.3703 H         1 <0>         0.1521
     56 H22        -5.7018    4.7463    0.5434 H         1 <0>         0.0759
     57 H23        -5.7679    5.4230    2.1883 H         1 <0>         0.0941
     58 H24        -4.3278    4.5242    1.6530 H         1 <0>         0.0949
     59 H25       -12.4560    1.8924    2.9851 H         1 <0>         0.1450
     60 H26       -12.6591    2.2300    5.4131 H         1 <0>         0.1471
     61 H27       -10.6465    2.5224    6.7965 H         1 <0>         0.1451
     62 N5          2.1179   -5.4728   -1.8803 N.4       1 <0>        -0.3969
     63 H28         1.1169   -5.3253   -2.0547 H         1 <0>         0.4358
@<TRIPOS>BOND
     1    1    2 1
     2    1   35 1
     3    1   36 1
     4    1   37 1
     5    2   38 1
     6    2   39 1
     7    2   62 1
     8    3    4 1
     9    3   40 1
    10    3   41 1
    11    3   62 1
    12    4   42 1
    13    4   43 1
    14    4   44 1
    15    5    6 1
    16    5   45 1
    17    5   46 1
    18    5   62 1
    19    6    7 1
    20    6   47 1
    21    6   48 1
    22    7    8 1
    23    8   13 ar
    24    8    9 ar
    25    9   10 ar
    26    9   49 1
    27   10   11 ar
    28   10   50 1
    29   11   12 ar
    30   11   14 1
    31   12   13 ar
    32   12   51 1
    33   13   52 1
    34   14   15 1
    35   14   53 1
    36   15   25 ar
    37   15   16 ar
    38   16   17 ar
    39   17   18 ar
    40   17   54 1
    41   18   24 ar
    42   18   19 1
    43   19   20 2
    44   19   55 1
    45   20   21 1
    46   20   27 1
    47   21   22 2
    48   21   23 am
    49   23   24 1
    50   23   26 1
    51   24   25 ar
    52   26   56 1
    53   26   57 1
    54   26   58 1
    55   27   32 ar
    56   27   28 ar
    57   28   29 ar
    58   28   34 1
    59   29   30 ar
    60   29   59 1
    61   30   31 ar
    62   30   60 1
    63   31   32 ar
    64   31   61 1
    65   32   33 1
    66   62   63 1
@<TRIPOS>MOLECULE
ZINC38995988
   51    55     0     0     0
SMALL
USER_CHARGES

@<TRIPOS>ATOM
      1 C1         -0.0167    1.3832    0.0096 C.ar      1 <0>        -0.0900
      2 C2          1.1624    2.0986    0.0022 C.ar      1 <0>        -0.1093
      3 C3          2.3769    1.4282   -0.0129 C.ar      1 <0>         0.0585
      4 C4          2.4020    0.0222   -0.0207 C.ar      1 <0>         0.0556
      5 C5          1.1969   -0.6870   -0.0127 C.ar      1 <0>        -0.0377
      6 C6          0.0021   -0.0041    0.0020 C.ar      1 <0>        -0.0874
      7 C7         -1.2962   -0.7693    0.0108 C.3       1 <0>         0.0982
      8 N1         -1.7317   -1.0105   -1.3713 N.3       1 <0>        -0.5319
      9 C8         -2.0812    0.2506   -2.0413 C.3       1 <0>         0.0140
     10 C9         -2.4711   -0.0400   -3.4930 C.3       1 <0>         0.0628
     11 O1         -3.5484   -0.9803   -3.5128 O.3       1 <0>        -0.3858
     12 C10        -3.2423   -2.2203   -2.8694 C.3       1 <0>         0.0630
     13 C11        -2.8603   -1.9518   -1.4114 C.3       1 <0>         0.0170
     14 N2          3.7040   -0.3552   -0.0358 N.2       1 <0>        -0.4791
     15 C12         4.4709    0.7083   -0.0379 C.2       1 <0>         0.3677
     16 N3          3.6969    1.8375   -0.0241 N.pl3     1 <0>        -0.5827
     17 C13         5.9482    0.6906   -0.0529 C.2       1 <0>         0.1128
     18 C14         6.7655   -0.4629   -0.0734 C.2       1 <0>         0.0625
     19 C15         8.0574   -0.0542   -0.0820 C.2       1 <0>         0.0467
     20 N4          8.0646    1.3049   -0.0675 N.pl3     1 <0>        -0.4518
     21 H1          8.8531    1.8699   -0.0696 H         1 <0>         0.4522
     22 N5          6.7361    1.7481   -0.0552 N.2       1 <0>        -0.2610
     23 N6          6.3179   -1.7953   -0.0825 N.am      1 <0>        -0.6484
     24 C16         7.2097   -2.8056   -0.1024 C.2       1 <0>         0.7112
     25 O2          8.4015   -2.5644   -0.1124 O.2       1 <0>        -0.5835
     26 N7          6.7806   -4.0832   -0.1111 N.am      1 <0>        -0.7107
     27 C17         7.7500   -5.1814   -0.1326 C.3       1 <0>         0.0984
     28 C18         7.4710   -6.3514   -1.0782 C.3       1 <0>        -0.1941
     29 C19         7.3013   -6.5309    0.4317 C.3       1 <0>        -0.1895
     30 H2         -0.9613    1.9065    0.0260 H         1 <0>         0.1292
     31 H3          1.1404    3.1784    0.0078 H         1 <0>         0.1265
     32 H4          1.2037   -1.7669   -0.0185 H         1 <0>         0.1329
     33 H5         -1.1522   -1.7232    0.5181 H         1 <0>         0.0877
     34 H6         -2.0559   -0.1898    0.5352 H         1 <0>         0.0479
     35 H7         -2.9207    0.7164   -1.5252 H         1 <0>         0.0435
     36 H8         -1.2233    0.9227   -2.0224 H         1 <0>         0.0909
     37 H9         -2.7857    0.8844   -3.9773 H         1 <0>         0.0978
     38 H10        -1.6147   -0.4564   -4.0234 H         1 <0>         0.0598
     39 H11        -4.1148   -2.8728   -2.9028 H         1 <0>         0.0988
     40 H12        -2.4084   -2.7001   -3.3817 H         1 <0>         0.0605
     41 H13        -2.5711   -2.8874   -0.9327 H         1 <0>         0.0882
     42 H14        -3.7122   -1.5212   -0.8852 H         1 <0>         0.0444
     43 H15         8.9269   -0.6946   -0.0972 H         1 <0>         0.2141
     44 H16         5.3672   -1.9876   -0.0745 H         1 <0>         0.4224
     45 H17         5.8299   -4.2755   -0.1031 H         1 <0>         0.4015
     46 H18         8.7902   -4.8932    0.0188 H         1 <0>         0.1414
     47 H19         6.5663   -6.3041   -1.6842 H         1 <0>         0.0976
     48 H20         8.3279   -6.8332   -1.5492 H         1 <0>         0.1039
     49 H21         8.0465   -7.1307    0.9541 H         1 <0>         0.1053
     50 H22         6.2849   -6.6016    0.8191 H         1 <0>         0.0980
     51 H23         4.0155    2.7537   -0.0227 H         1 <0>         0.4299
@<TRIPOS>BOND
     1    1    6 ar
     2    1    2 ar
     3    1   30 1
     4    2    3 ar
     5    2   31 1
     6    3   16 1
     7    3    4 ar
     8    4    5 ar
     9    4   14 1
    10    5    6 ar
    11    5   32 1
    12    6    7 1
    13    7    8 1
    14    7   33 1
    15    7   34 1
    16    8   13 1
    17    8    9 1
    18    9   10 1
    19    9   35 1
    20    9   36 1
    21   10   11 1
    22   10   37 1
    23   10   38 1
    24   11   12 1
    25   12   13 1
    26   12   39 1
    27   12   40 1
    28   13   41 1
    29   13   42 1
    30   14   15 2
    31   15   16 1
    32   15   17 1
    33   16   51 1
    34   17   22 2
    35   17   18 1
    36   18   19 2
    37   18   23 1
    38   19   20 1
    39   19   43 1
    40   20   21 1
    41   20   22 1
    42   23   24 am
    43   23   44 1
    44   24   25 2
    45   24   26 am
    46   26   27 1
    47   26   45 1
    48   27   29 1
    49   27   28 1
    50   27   46 1
    51   28   29 1
    52   28   47 1
    53   28   48 1
    54   29   49 1
    55   29   50 1
@<TRIPOS>MOLECULE
ZINC22449469
   74    78     0     0     0
SMALL
USER_CHARGES

@<TRIPOS>ATOM
      1 C1          1.6200   -1.5857   -4.2133 C.3       1 <0>        -0.0457
      2 N1          1.1042   -2.2979   -3.0366 N.4       1 <0>        -0.3891
      3 C2          0.6210   -3.6248   -3.4407 C.3       1 <0>        -0.0013
      4 C3          0.0663   -4.3599   -2.2185 C.3       1 <0>         0.0260
      5 N2          1.1250   -4.4920   -1.2077 N.3       1 <0>        -0.5236
      6 C4          1.6361   -3.1722   -0.8115 C.3       1 <0>         0.0190
      7 C5          2.1778   -2.4469   -2.0453 C.3       1 <0>         0.0004
      8 C6          0.6468   -5.2437   -0.0397 C.3       1 <0>         0.0382
      9 C7          1.8119   -5.5712    0.8583 C.2       1 <0>         0.5151
     10 O1          2.9305   -5.2135    0.5552 O.2       1 <0>        -0.5111
     11 N3          1.6108   -6.2614    1.9984 N.am      1 <0>        -0.5638
     12 C8          0.2491   -6.6000    2.4192 C.3       1 <0>         0.0714
     13 C9          2.7039   -6.6550    2.7807 C.ar      1 <0>         0.0880
     14 C10         3.4772   -5.6979    3.4248 C.ar      1 <0>        -0.0594
     15 C11         4.5546   -6.0855    4.1955 C.ar      1 <0>        -0.1576
     16 C12         4.8653   -7.4333    4.3273 C.ar      1 <0>         0.2055
     17 C13         4.0913   -8.3905    3.6832 C.ar      1 <0>        -0.1610
     18 C14         3.0108   -8.0027    2.9168 C.ar      1 <0>        -0.0724
     19 N4          5.9572   -7.8262    5.1077 N.pl3     1 <0>        -0.6661
     20 C15         6.3653   -9.1334    5.1054 C.2       1 <0>         0.3219
     21 C16         6.3952   -9.8552    6.2951 C.2       1 <0>        -0.2136
     22 C17         6.9454  -11.2087    6.5011 C.ar      1 <0>        -0.0552
     23 C18         7.5608  -12.1327    5.6578 C.ar      1 <0>        -0.0866
     24 C19         7.9740  -13.3370    6.1503 C.ar      1 <0>        -0.0786
     25 C20         7.7818  -13.6478    7.5020 C.ar      1 <0>        -0.0930
     26 C21         7.1664  -12.7290    8.3549 C.ar      1 <0>        -0.0681
     27 C22         6.7458  -11.5064    7.8599 C.ar      1 <0>         0.1311
     28 N5          6.1180  -10.4193    8.4558 N.am      1 <0>        -0.6517
     29 C23         5.9079   -9.4383    7.5621 C.2       1 <0>         0.5643
     30 O2          5.3815   -8.3650    7.7999 O.2       1 <0>        -0.5077
     31 C24         8.2305  -14.9501    8.0268 C.2       1 <0>         0.5078
     32 O3          8.0650  -15.2223    9.1995 O.2       1 <0>        -0.4988
     33 O4          8.8243  -15.8390    7.2060 O.3       1 <0>        -0.3474
     34 C25         9.2338  -17.0810    7.7821 C.3       1 <0>         0.0336
     35 C26         6.7731   -9.7761    3.8428 C.ar      1 <0>        -0.0960
     36 C27         6.1914  -10.9850    3.4502 C.ar      1 <0>        -0.0837
     37 C28         6.5780  -11.5802    2.2679 C.ar      1 <0>        -0.1219
     38 C29         7.5393  -10.9837    1.4707 C.ar      1 <0>        -0.0938
     39 C30         8.1197   -9.7868    1.8528 C.ar      1 <0>        -0.1198
     40 C31         7.7392   -9.1768    3.0296 C.ar      1 <0>        -0.0769
     41 H1          2.4418   -2.1530   -4.6501 H         1 <0>         0.1233
     42 H2          0.8234   -1.4750   -4.9491 H         1 <0>         0.1241
     43 H3          1.9775   -0.6004   -3.9138 H         1 <0>         0.1242
     44 H4         -0.1666   -3.5132   -4.1859 H         1 <0>         0.1374
     45 H5          1.4451   -4.1976   -3.8661 H         1 <0>         0.1387
     46 H6         -0.7667   -3.7942   -1.8010 H         1 <0>         0.0624
     47 H7         -0.2787   -5.3503   -2.5154 H         1 <0>         0.1251
     48 H8          0.8290   -2.5869   -0.3708 H         1 <0>         0.0569
     49 H9          2.4363   -3.2960   -0.0819 H         1 <0>         0.1392
     50 H10         2.9939   -3.0257   -2.4778 H         1 <0>         0.1396
     51 H11         2.5444   -1.4620   -1.7560 H         1 <0>         0.1359
     52 H12        -0.0767   -4.6408    0.5091 H         1 <0>         0.0780
     53 H13         0.1728   -6.1675   -0.3713 H         1 <0>         0.1196
     54 H14        -0.0313   -7.5661    1.9996 H         1 <0>         0.0664
     55 H15         0.2070   -6.6504    3.5072 H         1 <0>         0.0835
     56 H16        -0.4417   -5.8353    2.0639 H         1 <0>         0.0741
     57 H17         3.2356   -4.6503    3.3224 H         1 <0>         0.1234
     58 H18         5.1564   -5.3412    4.6958 H         1 <0>         0.1317
     59 H19         4.3328   -9.4382    3.7852 H         1 <0>         0.1304
     60 H20         2.4064   -8.7470    2.4197 H         1 <0>         0.1270
     61 H21         6.4255   -7.1729    5.6506 H         1 <0>         0.4225
     62 H22         7.7103  -11.8958    4.6148 H         1 <0>         0.1426
     63 H23         8.4499  -14.0521    5.4956 H         1 <0>         0.1460
     64 H24         7.0188  -12.9715    9.3969 H         1 <0>         0.1450
     65 H25         5.8689  -10.3731    9.3921 H         1 <0>         0.4213
     66 H26         9.6960  -17.7023    7.0150 H         1 <0>         0.1062
     67 H27         9.9531  -16.8923    8.5790 H         1 <0>         0.0634
     68 H28         8.3646  -17.5957    8.1915 H         1 <0>         0.0633
     69 H29         5.4414  -11.4518    4.0714 H         1 <0>         0.1312
     70 H30         6.1297  -12.5145    1.9634 H         1 <0>         0.1329
     71 H31         7.8383  -11.4548    0.5460 H         1 <0>         0.1291
     72 H32         8.8692   -9.3272    1.2256 H         1 <0>         0.1298
     73 H33         8.1894   -8.2403    3.3241 H         1 <0>         0.1256
     74 H34         0.3438   -1.7723   -2.6321 H         1 <0>         0.4216
@<TRIPOS>BOND
     1    1    2 1
     2    1   41 1
     3    1   42 1
     4    1   43 1
     5    2    7 1
     6    2    3 1
     7    2   74 1
     8    3    4 1
     9    3   44 1
    10    3   45 1
    11    4    5 1
    12    4   46 1
    13    4   47 1
    14    5    6 1
    15    5    8 1
    16    6    7 1
    17    6   48 1
    18    6   49 1
    19    7   50 1
    20    7   51 1
    21    8    9 1
    22    8   52 1
    23    8   53 1
    24    9   10 2
    25    9   11 am
    26   11   12 1
    27   11   13 1
    28   12   54 1
    29   12   55 1
    30   12   56 1
    31   13   18 ar
    32   13   14 ar
    33   14   15 ar
    34   14   57 1
    35   15   16 ar
    36   15   58 1
    37   16   17 ar
    38   16   19 1
    39   17   18 ar
    40   17   59 1
    41   18   60 1
    42   19   20 1
    43   19   61 1
    44   20   21 2
    45   20   35 1
    46   21   29 1
    47   21   22 1
    48   22   27 ar
    49   22   23 ar
    50   23   24 ar
    51   23   62 1
    52   24   25 ar
    53   24   63 1
    54   25   26 ar
    55   25   31 1
    56   26   27 ar
    57   26   64 1
    58   27   28 1
    59   28   29 am
    60   28   65 1
    61   29   30 2
    62   31   32 2
    63   31   33 1
    64   33   34 1
    65   34   66 1
    66   34   67 1
    67   34   68 1
    68   35   40 ar
    69   35   36 ar
    70   36   37 ar
    71   36   69 1
    72   37   38 ar
    73   37   70 1
    74   38   39 ar
    75   38   71 1
    76   39   40 ar
    77   39   72 1
    78   40   73 1
@<TRIPOS>MOLECULE
ZINC22449469
   74    78     0     0     0
SMALL
USER_CHARGES

@<TRIPOS>ATOM
      1 C1          1.8905   -1.2340   -4.0590 C.3       1 <0>        -0.0458
      2 N1          1.3432   -1.9811   -2.9188 N.4       1 <0>        -0.3890
      3 C2          0.8615   -3.2907   -3.3776 C.3       1 <0>        -0.0014
      4 C3          0.2741   -4.0618   -2.1935 C.3       1 <0>         0.0262
      5 N2          1.3081   -4.2342   -1.1633 N.3       1 <0>        -0.5238
      6 C4          1.8177   -2.9316   -0.7121 C.3       1 <0>         0.0192
      7 C5          2.3924   -2.1698   -1.9084 C.3       1 <0>         0.0003
      8 C6          0.7983   -5.0207   -0.0322 C.3       1 <0>         0.0382
      9 C7          1.9402   -5.3854    0.8812 C.2       1 <0>         0.5153
     10 O1          3.0677   -5.0255    0.6160 O.2       1 <0>        -0.5102
     11 N3          1.7084   -6.1114    1.9929 N.am      1 <0>        -0.5650
     12 C8          0.3349   -6.4504    2.3732 C.3       1 <0>         0.0715
     13 C9          2.7808   -6.5416    2.7845 C.ar      1 <0>         0.0916
     14 C10         3.5480   -5.6144    3.4777 C.ar      1 <0>        -0.0599
     15 C11         4.6051   -6.0381    4.2575 C.ar      1 <0>        -0.1595
     16 C12         4.9014   -7.3924    4.3493 C.ar      1 <0>         0.1982
     17 C13         4.1335   -8.3198    3.6561 C.ar      1 <0>        -0.1559
     18 C14         3.0733   -7.8959    2.8806 C.ar      1 <0>        -0.0721
     19 N4          5.9727   -7.8219    5.1389 N.pl3     1 <0>        -0.6763
     20 C15         6.3653   -9.1334    5.1054 C.2       1 <0>         0.3268
     21 C16         6.3747   -9.8871    6.2755 C.2       1 <0>        -0.2173
     22 C17         5.8714   -9.4788    7.6010 C.ar      1 <0>        -0.0582
     23 C18         5.2751   -8.3148    8.0839 C.ar      1 <0>        -0.0826
     24 C19         4.9077   -8.2295    9.3960 C.ar      1 <0>        -0.0794
     25 C20         5.1278   -9.3094   10.2598 C.ar      1 <0>        -0.0935
     26 C21         5.7244  -10.4797    9.7858 C.ar      1 <0>        -0.0677
     27 C22         6.0986  -10.5706    8.4560 C.ar      1 <0>         0.1336
     28 N5          6.6987  -11.5836    7.7179 N.am      1 <0>        -0.6522
     29 C23         6.8650  -11.2099    6.4381 C.2       1 <0>         0.5658
     30 O2          7.3595  -11.8945    5.5593 O.2       1 <0>        -0.4960
     31 C24         4.7285   -9.2103   11.6753 C.2       1 <0>         0.5076
     32 O3          4.9184  -10.1459   12.4271 O.2       1 <0>        -0.4977
     33 O4          4.1530   -8.0820   12.1357 O.3       1 <0>        -0.3483
     34 C25         3.7917   -8.0554   13.5180 C.3       1 <0>         0.0336
     35 C26         6.7781   -9.7469    3.8300 C.ar      1 <0>        -0.0992
     36 C27         7.7088   -9.1031    3.0096 C.ar      1 <0>        -0.0767
     37 C28         8.0901   -9.6831    1.8180 C.ar      1 <0>        -0.1285
     38 C29         7.5536  -10.8996    1.4337 C.ar      1 <0>        -0.0915
     39 C30         6.6315  -11.5430    2.2407 C.ar      1 <0>        -0.1238
     40 C31         6.2450  -10.9781    3.4378 C.ar      1 <0>        -0.0444
     41 H1          2.7189   -1.7923   -4.4952 H         1 <0>         0.1234
     42 H2          1.1121   -1.0939   -4.8090 H         1 <0>         0.1241
     43 H3          2.2468   -0.2616   -3.7190 H         1 <0>         0.1243
     44 H4          0.0922   -3.1493   -4.1367 H         1 <0>         0.1375
     45 H5          1.6919   -3.8547   -3.8024 H         1 <0>         0.1388
     46 H6         -0.5649   -3.5046   -1.7769 H         1 <0>         0.0625
     47 H7         -0.0698   -5.0395   -2.5308 H         1 <0>         0.1252
     48 H8          1.0041   -2.3558   -0.2710 H         1 <0>         0.0569
     49 H9          2.6000   -3.0849    0.0314 H         1 <0>         0.1391
     50 H10         3.2149   -2.7396   -2.3408 H         1 <0>         0.1397
     51 H11         2.7581   -1.1975   -1.5783 H         1 <0>         0.1360
     52 H12         0.0659   -4.4313    0.5194 H         1 <0>         0.0781
     53 H13         0.3267   -5.9299   -0.4050 H         1 <0>         0.1197
     54 H14         0.0548   -7.3992    1.9155 H         1 <0>         0.0665
     55 H15         0.2690   -6.5368    3.4578 H         1 <0>         0.0836
     56 H16        -0.3411   -5.6676    2.0294 H         1 <0>         0.0743
     57 H17         3.3176   -4.5617    3.4063 H         1 <0>         0.1240
     58 H18         5.2021   -5.3170    4.7959 H         1 <0>         0.1324
     59 H19         4.3638   -9.3725    3.7270 H         1 <0>         0.1315
     60 H20         2.4736   -8.6172    2.3452 H         1 <0>         0.1276
     61 H21         6.4376   -7.1909    5.7103 H         1 <0>         0.4197
     62 H22         5.1041   -7.4803    7.4200 H         1 <0>         0.1318
     63 H23         4.4466   -7.3269    9.7687 H         1 <0>         0.1453
     64 H24         5.8937  -11.3109   10.4544 H         1 <0>         0.1456
     65 H25         6.9586  -12.4463    8.0773 H         1 <0>         0.4220
     66 H26         3.3396   -7.0928   13.7569 H         1 <0>         0.1059
     67 H27         3.0773   -8.8530   13.7222 H         1 <0>         0.0634
     68 H28         4.6825   -8.2002   14.1292 H         1 <0>         0.0637
     69 H29         8.1281   -8.1536    3.3081 H         1 <0>         0.1218
     70 H30         8.8088   -9.1866    1.1829 H         1 <0>         0.1266
     71 H31         7.8557  -11.3489    0.4992 H         1 <0>         0.1258
     72 H32         6.2171  -12.4921    1.9342 H         1 <0>         0.1277
     73 H33         5.5290  -11.4837    4.0688 H         1 <0>         0.1222
     74 H34         0.5767   -1.4639   -2.5148 H         1 <0>         0.4215
@<TRIPOS>BOND
     1    1    2 1
     2    1   41 1
     3    1   42 1
     4    1   43 1
     5    2    7 1
     6    2    3 1
     7    2   74 1
     8    3    4 1
     9    3   44 1
    10    3   45 1
    11    4    5 1
    12    4   46 1
    13    4   47 1
    14    5    6 1
    15    5    8 1
    16    6    7 1
    17    6   48 1
    18    6   49 1
    19    7   50 1
    20    7   51 1
    21    8    9 1
    22    8   52 1
    23    8   53 1
    24    9   10 2
    25    9   11 am
    26   11   12 1
    27   11   13 1
    28   12   54 1
    29   12   55 1
    30   12   56 1
    31   13   18 ar
    32   13   14 ar
    33   14   15 ar
    34   14   57 1
    35   15   16 ar
    36   15   58 1
    37   16   17 ar
    38   16   19 1
    39   17   18 ar
    40   17   59 1
    41   18   60 1
    42   19   20 1
    43   19   61 1
    44   20   21 2
    45   20   35 1
    46   21   29 1
    47   21   22 1
    48   22   27 ar
    49   22   23 ar
    50   23   24 ar
    51   23   62 1
    52   24   25 ar
    53   24   63 1
    54   25   26 ar
    55   25   31 1
    56   26   27 ar
    57   26   64 1
    58   27   28 1
    59   28   29 am
    60   28   65 1
    61   29   30 2
    62   31   32 2
    63   31   33 1
    64   33   34 1
    65   34   66 1
    66   34   67 1
    67   34   68 1
    68   35   40 ar
    69   35   36 ar
    70   36   37 ar
    71   36   69 1
    72   37   38 ar
    73   37   70 1
    74   38   39 ar
    75   38   71 1
    76   39   40 ar
    77   39   72 1
    78   40   73 1
@<TRIPOS>MOLECULE
ZINC22449469
   74    78     0     0     0
SMALL
USER_CHARGES
methyl (3Z)-3-[[[4-[methyl-[2-(4-methylpiperazin-1-yl)acetyl]amino]phenyl]amino]-phenyl-methylene]-2-oxo-indoline-6-carboxylate
@<TRIPOS>ATOM
      1 C1          0.1652    5.0587   11.0404 C.3       1 <0>         0.0170
      2 N1         -0.6347    3.9333   10.5391 N.3       1 <0>        -0.5443
      3 C2         -2.0308    4.3361   10.3193 C.3       1 <0>         0.0236
      4 C3         -2.8461    3.1196    9.8748 C.3       1 <0>         0.0014
      5 N2         -2.2617    2.5640    8.6461 N.4       1 <0>        -0.3901
      6 C4         -0.8656    2.1612    8.8658 C.3       1 <0>        -0.0065
      7 C5         -0.0503    3.3777    9.3105 C.3       1 <0>         0.0276
      8 C6         -3.0617    1.4385    8.1448 C.3       1 <0>        -0.0258
      9 C7         -2.5819    1.0548    6.7688 C.2       1 <0>         0.5001
     10 O1         -1.6638    1.6593    6.2560 O.2       1 <0>        -0.5159
     11 N3         -3.1730    0.0397    6.1077 N.am      1 <0>        -0.5369
     12 C8         -4.3571   -0.6115    6.6732 C.3       1 <0>         0.0561
     13 C9         -2.6550   -0.3923    4.8802 C.ar      1 <0>         0.0686
     14 C10        -2.1981   -1.6963    4.7398 C.ar      1 <0>        -0.0707
     15 C11        -1.6877   -2.1223    3.5303 C.ar      1 <0>        -0.1615
     16 C12        -1.6311   -1.2466    2.4531 C.ar      1 <0>         0.2147
     17 C13        -2.0829    0.0594    2.5955 C.ar      1 <0>        -0.1620
     18 C14        -2.5981    0.4835    3.8037 C.ar      1 <0>        -0.0511
     19 N4         -1.1140   -1.6781    1.2275 N.pl3     1 <0>        -0.6878
     20 C15        -1.1902   -0.8653    0.1280 C.2       1 <0>         0.3236
     21 C16        -0.0287   -0.4841   -0.5375 C.2       1 <0>        -0.2114
     22 C17         1.3623   -0.7433   -0.1192 C.ar      1 <0>        -0.0646
     23 C18         1.9295   -1.3932    0.9760 C.ar      1 <0>        -0.0818
     24 C19         3.2872   -1.4754    1.0932 C.ar      1 <0>        -0.0834
     25 C20         4.1134   -0.9070    0.1160 C.ar      1 <0>        -0.0924
     26 C21         3.5550   -0.2533   -0.9845 C.ar      1 <0>        -0.0705
     27 C22         2.1787   -0.1681   -1.1078 C.ar      1 <0>         0.1323
     28 N5          1.3573    0.4066   -2.0702 N.am      1 <0>        -0.6654
     29 C23         0.0617    0.2348   -1.7588 C.2       1 <0>         0.5711
     30 O2         -0.8834    0.6280   -2.4204 O.2       1 <0>        -0.4973
     31 C24         5.5786   -0.9986    0.2497 C.2       1 <0>         0.5077
     32 O3          6.2979   -0.5058   -0.5967 O.2       1 <0>        -0.4988
     33 O4          6.1203   -1.6288    1.3107 O.3       1 <0>        -0.3540
     34 C25         7.5699   -1.6805    1.3771 C.3       1 <0>         0.0322
     35 C26        -2.5026   -0.3941   -0.3509 C.ar      1 <0>        -0.0949
     36 C27        -2.7281    0.9706   -0.5522 C.ar      1 <0>        -0.0530
     37 C28        -3.9568    1.4035   -1.0044 C.ar      1 <0>        -0.1214
     38 C29        -4.9686    0.4914   -1.2491 C.ar      1 <0>        -0.0933
     39 C30        -4.7543   -0.8609   -1.0475 C.ar      1 <0>        -0.1255
     40 C31        -3.5293   -1.3092   -0.6001 C.ar      1 <0>        -0.0791
     41 H1         -0.2936    5.4546   11.9584 H         1 <0>         0.0842
     42 H2          0.2021    5.8507   10.2779 H         1 <0>         0.0400
     43 H3          1.1863    4.7136   11.2602 H         1 <0>         0.0849
     44 H4         -2.4485    4.7366   11.2548 H         1 <0>         0.1258
     45 H5         -2.0706    5.1104    9.5390 H         1 <0>         0.0617
     46 H6         -2.8290    2.3572   10.6675 H         1 <0>         0.1380
     47 H7         -3.8852    3.4250    9.6822 H         1 <0>         0.1378
     48 H8         -0.8259    1.3868    9.6460 H         1 <0>         0.1317
     49 H9         -0.4479    1.7608    7.9303 H         1 <0>         0.1492
     50 H10        -0.0673    4.1411    8.5187 H         1 <0>         0.0627
     51 H11         0.9888    3.0732    9.5039 H         1 <0>         0.1239
     52 H12        -2.9527    0.5800    8.8238 H         1 <0>         0.1598
     53 H13        -4.1200    1.7345    8.0949 H         1 <0>         0.1615
     54 H14        -4.6947   -1.4102    5.9963 H         1 <0>         0.0999
     55 H15        -5.1605    0.1300    6.7948 H         1 <0>         0.0772
     56 H16        -4.1053   -1.0434    7.6530 H         1 <0>         0.0761
     57 H17        -2.2418   -2.3769    5.5772 H         1 <0>         0.1304
     58 H18        -1.3321   -3.1362    3.4211 H         1 <0>         0.1365
     59 H19        -2.0349    0.7416    1.7597 H         1 <0>         0.1323
     60 H20        -2.9528    1.4976    3.9134 H         1 <0>         0.1242
     61 H21        -0.6461   -2.6703    1.1467 H         1 <0>         0.4459
     62 H22         1.2948   -1.8325    1.7313 H         1 <0>         0.1305
     63 H23         3.7250   -1.9799    1.9418 H         1 <0>         0.1438
     64 H24         4.1946    0.1846   -1.7366 H         1 <0>         0.1452
     65 H25         1.8006    0.9148   -2.9392 H         1 <0>         0.4486
     66 H26         7.8763   -2.2190    2.2860 H         1 <0>         0.1072
     67 H27         7.9724   -0.6571    1.4039 H         1 <0>         0.0669
     68 H28         7.9590   -2.2045    0.4917 H         1 <0>         0.0678
     69 H29        -1.9408    1.6840   -0.3578 H         1 <0>         0.1196
     70 H30        -4.1315    2.4573   -1.1637 H         1 <0>         0.1271
     71 H31        -5.9301    0.8367   -1.5995 H         1 <0>         0.1266
     72 H32        -5.5485   -1.5668   -1.2404 H         1 <0>         0.1279
     73 H33        -3.3634   -2.3649   -0.4432 H         1 <0>         0.1225
     74 H34        -2.2711    3.3521    7.8788 H         1 <0>         0.4460
@<TRIPOS>BOND
     1    1    2 1
     2    1   41 1
     3    1   42 1
     4    1   43 1
     5    2    7 1
     6    2    3 1
     7    3    4 1
     8    3   44 1
     9    3   45 1
    10    4    5 1
    11    4   46 1
    12    4   47 1
    13    5    6 1
    14    5    8 1
    15    5   74 1
    16    6    7 1
    17    6   48 1
    18    6   49 1
    19    7   50 1
    20    7   51 1
    21    8    9 1
    22    8   52 1
    23    8   53 1
    24    9   10 2
    25    9   11 am
    26   11   12 1
    27   11   13 1
    28   12   54 1
    29   12   55 1
    30   12   56 1
    31   13   18 ar
    32   13   14 ar
    33   14   15 ar
    34   14   57 1
    35   15   16 ar
    36   15   58 1
    37   16   17 ar
    38   16   19 1
    39   17   18 ar
    40   17   59 1
    41   18   60 1
    42   19   20 1
    43   19   61 1
    44   20   21 2
    45   20   35 1
    46   21   29 1
    47   21   22 1
    48   22   27 ar
    49   22   23 ar
    50   23   24 ar
    51   23   62 1
    52   24   25 ar
    53   24   63 1
    54   25   26 ar
    55   25   31 1
    56   26   27 ar
    57   26   64 1
    58   27   28 1
    59   28   29 am
    60   28   65 1
    61   29   30 2
    62   31   32 2
    63   31   33 1
    64   33   34 1
    65   34   66 1
    66   34   67 1
    67   34   68 1
    68   35   40 ar
    69   35   36 ar
    70   36   37 ar
    71   36   69 1
    72   37   38 ar
    73   37   70 1
    74   38   39 ar
    75   38   71 1
    76   39   40 ar
    77   39   72 1
    78   40   73 1
