@<TRIPOS>MOLECULE
ZINC13474785
   63    67     0     0     0
SMALL
USER_CHARGES

@<TRIPOS>ATOM
      1 C1         -2.1246    1.3061   -5.4588 C.3       1 <0>         0.0239
      2 O1         -2.0667   -0.1208   -5.5091 O.3       1 <0>        -0.3002
      3 C2         -0.8829   -0.7027   -5.1790 C.ar      1 <0>         0.1156
      4 C3          0.1763    0.0798   -4.8158 C.ar      1 <0>        -0.1419
      5 C4          1.3954   -0.5183   -4.4752 C.ar      1 <0>        -0.1517
      6 C5          1.5241   -1.9290   -4.5090 C.ar      1 <0>         0.1777
      7 C6          0.4256   -2.7116   -4.8848 C.ar      1 <0>        -0.1830
      8 C7         -0.7646   -2.0992   -5.2096 C.ar      1 <0>         0.1606
      9 O2         -1.8337   -2.8563   -5.5691 O.3       1 <0>        -0.2971
     10 C8         -1.6504   -4.2735   -5.5810 C.3       1 <0>         0.0201
     11 N1          2.7036   -2.4771   -4.1769 N.ar      1 <0>        -0.5096
     12 C9          3.7149   -1.7180   -3.8285 C.ar      1 <0>         0.3107
     13 N2          3.6413   -0.3971   -3.7826 N.ar      1 <0>        -0.5396
     14 C10         2.5229    0.2460   -4.0910 C.ar      1 <0>         0.4677
     15 N3          2.4606    1.6231   -4.0392 N.pl3     1 <0>        -0.6596
     16 C11         1.9700    2.3048   -2.8332 C.3       1 <0>         0.1330
     17 C12         3.0387    3.2996   -2.3635 C.3       1 <0>         0.1145
     18 N4          3.4622    4.1113   -3.5131 N.am      1 <0>        -0.6209
     19 C13         3.9528    3.4297   -4.7192 C.3       1 <0>         0.0940
     20 C14         2.8894    2.4350   -5.1867 C.3       1 <0>         0.1337
     21 C15         3.4014    5.4568   -3.4625 C.2       1 <0>         0.7098
     22 O3          3.1198    6.0137   -2.4190 O.2       1 <0>        -0.5683
     23 N5          3.6527    6.1848   -4.5685 N.am      1 <0>        -0.6809
     24 C16         3.7821    7.5772   -4.4764 C.ar      1 <0>         0.1309
     25 C17         3.1691    8.2644   -3.4373 C.ar      1 <0>        -0.0986
     26 C18         3.2969    9.6363   -3.3471 C.ar      1 <0>        -0.1707
     27 C19         4.0378   10.3281   -4.2944 C.ar      1 <0>         0.1023
     28 C20         4.6503    9.6419   -5.3332 C.ar      1 <0>        -0.1232
     29 C21         4.5282    8.2692   -5.4209 C.ar      1 <0>        -0.1151
     30 O4          4.1634   11.6789   -4.2051 O.3       1 <0>        -0.2607
     31 C22         3.6606   12.2948   -3.1032 C.ar      1 <0>         0.0843
     32 C23         4.3611   12.2581   -1.9060 C.ar      1 <0>        -0.1315
     33 C24         3.8477   12.8850   -0.7872 C.ar      1 <0>        -0.1050
     34 C25         2.6369   13.5487   -0.8597 C.ar      1 <0>        -0.1186
     35 C26         1.9365   13.5864   -2.0513 C.ar      1 <0>        -0.1056
     36 C27         2.4484   12.9664   -3.1746 C.ar      1 <0>        -0.1237
     37 H1         -1.9050    1.6432   -4.4457 H         1 <0>         0.0580
     38 H2         -1.3906    1.7240   -6.1478 H         1 <0>         0.0575
     39 H3         -3.1222    1.6396   -5.7445 H         1 <0>         0.1064
     40 H4          0.0737    1.1546   -4.7918 H         1 <0>         0.1486
     41 H5          0.5096   -3.7879   -4.9153 H         1 <0>         0.1554
     42 H6         -1.3739   -4.6125   -4.5827 H         1 <0>         0.0621
     43 H7         -2.5786   -4.7573   -5.8850 H         1 <0>         0.1077
     44 H8         -0.8589   -4.5315   -6.2846 H         1 <0>         0.0620
     45 H9          4.6495   -2.1919   -3.5670 H         1 <0>         0.1963
     46 H10         1.0488    2.8396   -3.0644 H         1 <0>         0.0667
     47 H11         1.7831    1.5713   -2.0488 H         1 <0>         0.0849
     48 H12         2.6219    3.9472   -1.5922 H         1 <0>         0.1045
     49 H13         3.8948    2.7556   -1.9646 H         1 <0>         0.0762
     50 H14         4.1397    4.1631   -5.5035 H         1 <0>         0.0839
     51 H15         4.8741    2.8949   -4.4879 H         1 <0>         0.0830
     52 H16         3.3096    1.7875   -5.9563 H         1 <0>         0.0850
     53 H17         2.0352    2.9792   -5.5894 H         1 <0>         0.0665
     54 H18         3.7439    5.7451   -5.4282 H         1 <0>         0.4059
     55 H19         2.5921    7.7260   -2.7000 H         1 <0>         0.1646
     56 H20         2.8198   10.1710   -2.5391 H         1 <0>         0.1299
     57 H21         5.2266   10.1809   -6.0706 H         1 <0>         0.1365
     58 H22         5.0089    7.7346   -6.2268 H         1 <0>         0.1327
     59 H23         5.3068   11.7395   -1.8487 H         1 <0>         0.1300
     60 H24         4.3924   12.8564    0.1449 H         1 <0>         0.1305
     61 H25         2.2372   14.0382    0.0161 H         1 <0>         0.1287
     62 H26         0.9908   14.1052   -2.1052 H         1 <0>         0.1314
     63 H27         1.9036   13.0006   -4.1065 H         1 <0>         0.1317
@<TRIPOS>BOND
     1    1    2 1
     2    1   37 1
     3    1   38 1
     4    1   39 1
     5    2    3 1
     6    3    8 ar
     7    3    4 ar
     8    4    5 ar
     9    4   40 1
    10    5   14 ar
    11    5    6 ar
    12    6    7 ar
    13    6   11 ar
    14    7    8 ar
    15    7   41 1
    16    8    9 1
    17    9   10 1
    18   10   42 1
    19   10   43 1
    20   10   44 1
    21   11   12 ar
    22   12   13 ar
    23   12   45 1
    24   13   14 ar
    25   14   15 1
    26   15   20 1
    27   15   16 1
    28   16   17 1
    29   16   46 1
    30   16   47 1
    31   17   18 1
    32   17   48 1
    33   17   49 1
    34   18   19 1
    35   18   21 am
    36   19   20 1
    37   19   50 1
    38   19   51 1
    39   20   52 1
    40   20   53 1
    41   21   22 2
    42   21   23 am
    43   23   24 1
    44   23   54 1
    45   24   29 ar
    46   24   25 ar
    47   25   26 ar
    48   25   55 1
    49   26   27 ar
    50   26   56 1
    51   27   28 ar
    52   27   30 1
    53   28   29 ar
    54   28   57 1
    55   29   58 1
    56   30   31 1
    57   31   36 ar
    58   31   32 ar
    59   32   33 ar
    60   32   59 1
    61   33   34 ar
    62   33   60 1
    63   34   35 ar
    64   34   61 1
    65   35   36 ar
    66   35   62 1
    67   36   63 1
@<TRIPOS>MOLECULE
ZINC13474785
   64    68     0     0     0
SMALL
USER_CHARGES

@<TRIPOS>ATOM
      1 C1         -2.1246    1.3061   -5.4588 C.3       1 <0>         0.0152
      2 O1         -2.0667   -0.1208   -5.5091 O.3       1 <0>        -0.2837
      3 C2         -0.8829   -0.7027   -5.1790 C.ar      1 <0>         0.1374
      4 C3          0.1763    0.0798   -4.8158 C.ar      1 <0>        -0.1240
      5 C4          1.3954   -0.5183   -4.4752 C.ar      1 <0>        -0.1342
      6 C5          1.5241   -1.9290   -4.5090 C.ar      1 <0>         0.1852
      7 C6          0.4256   -2.7116   -4.8848 C.ar      1 <0>        -0.2356
      8 C7         -0.7646   -2.0992   -5.2096 C.ar      1 <0>         0.2285
      9 O2         -1.8337   -2.8563   -5.5691 O.3       1 <0>        -0.2724
     10 C8         -1.6504   -4.2735   -5.5810 C.3       1 <0>         0.0100
     11 N1          2.7036   -2.4771   -4.1769 N.ar      1 <0>        -0.5056
     12 C9          3.7148   -1.7180   -3.8281 C.ar      1 <0>         0.4113
     13 N2          3.6411   -0.3972   -3.7821 N.ar      1 <0>        -0.5127
     14 C10         2.5229    0.2460   -4.0910 C.ar      1 <0>         0.5628
     15 N3          2.4606    1.6231   -4.0392 N.pl3     1 <0>        -0.6689
     16 C11         1.9700    2.3048   -2.8332 C.3       1 <0>         0.1266
     17 C12         3.0387    3.2996   -2.3635 C.3       1 <0>         0.1144
     18 N4          3.4622    4.1113   -3.5131 N.am      1 <0>        -0.6269
     19 C13         3.9528    3.4297   -4.7192 C.3       1 <0>         0.0932
     20 C14         2.8894    2.4350   -5.1867 C.3       1 <0>         0.1273
     21 C15         3.4014    5.4568   -3.4625 C.2       1 <0>         0.7099
     22 O3          3.1198    6.0137   -2.4190 O.2       1 <0>        -0.5601
     23 N5          3.6527    6.1848   -4.5685 N.am      1 <0>        -0.6776
     24 C16         3.7821    7.5772   -4.4764 C.ar      1 <0>         0.1208
     25 C17         3.1691    8.2644   -3.4373 C.ar      1 <0>        -0.0966
     26 C18         3.2969    9.6363   -3.3471 C.ar      1 <0>        -0.1715
     27 C19         4.0378   10.3281   -4.2944 C.ar      1 <0>         0.1096
     28 C20         4.6503    9.6419   -5.3332 C.ar      1 <0>        -0.1237
     29 C21         4.5282    8.2692   -5.4209 C.ar      1 <0>        -0.1115
     30 O4          4.1634   11.6789   -4.2051 O.3       1 <0>        -0.2586
     31 C22         3.6606   12.2948   -3.1032 C.ar      1 <0>         0.0808
     32 C23         4.3611   12.2581   -1.9060 C.ar      1 <0>        -0.1313
     33 C24         3.8477   12.8850   -0.7872 C.ar      1 <0>        -0.1047
     34 C25         2.6369   13.5487   -0.8597 C.ar      1 <0>        -0.1164
     35 C26         1.9365   13.5864   -2.0513 C.ar      1 <0>        -0.1050
     36 C27         2.4484   12.9664   -3.1746 C.ar      1 <0>        -0.1228
     37 H1         -1.9050    1.6432   -4.4457 H         1 <0>         0.0675
     38 H2         -1.3906    1.7240   -6.1478 H         1 <0>         0.0671
     39 H3         -3.1222    1.6396   -5.7444 H         1 <0>         0.1209
     40 H4          0.0737    1.1546   -4.7918 H         1 <0>         0.1728
     41 H5          0.5096   -3.7879   -4.9153 H         1 <0>         0.1743
     42 H6         -1.3739   -4.6125   -4.5827 H         1 <0>         0.0718
     43 H7         -2.5786   -4.7573   -5.8849 H         1 <0>         0.1244
     44 H8         -0.8589   -4.5315   -6.2845 H         1 <0>         0.0717
     45 H9          4.6493   -2.1919   -3.5663 H         1 <0>         0.2445
     46 H10         1.0488    2.8396   -3.0644 H         1 <0>         0.0826
     47 H11         1.7831    1.5713   -2.0488 H         1 <0>         0.0906
     48 H12         2.6219    3.9472   -1.5922 H         1 <0>         0.1138
     49 H13         3.8948    2.7556   -1.9646 H         1 <0>         0.0788
     50 H14         4.1397    4.1631   -5.5035 H         1 <0>         0.0934
     51 H15         4.8741    2.8949   -4.4879 H         1 <0>         0.0853
     52 H16         3.3096    1.7875   -5.9563 H         1 <0>         0.0906
     53 H17         2.0352    2.9792   -5.5894 H         1 <0>         0.0833
     54 H18         3.7439    5.7451   -5.4282 H         1 <0>         0.4047
     55 H19         2.5921    7.7260   -2.7000 H         1 <0>         0.1631
     56 H20         2.8198   10.1710   -2.5391 H         1 <0>         0.1317
     57 H21         5.2266   10.1809   -6.0706 H         1 <0>         0.1385
     58 H22         5.0089    7.7346   -6.2268 H         1 <0>         0.1326
     59 H23         5.3068   11.7395   -1.8487 H         1 <0>         0.1299
     60 H24         4.3924   12.8564    0.1449 H         1 <0>         0.1313
     61 H25         2.2372   14.0382    0.0161 H         1 <0>         0.1300
     62 H26         0.9908   14.1052   -2.1052 H         1 <0>         0.1325
     63 H27         1.9036   13.0006   -4.1065 H         1 <0>         0.1321
     64 H28         2.8087   -3.4412   -4.1948 H         1 <0>         0.4514
@<TRIPOS>BOND
     1    1    2 1
     2    1   37 1
     3    1   38 1
     4    1   39 1
     5    2    3 1
     6    3    8 ar
     7    3    4 ar
     8    4    5 ar
     9    4   40 1
    10    5   14 ar
    11    5    6 ar
    12    6    7 ar
    13    6   11 ar
    14    7    8 ar
    15    7   41 1
    16    8    9 1
    17    9   10 1
    18   10   42 1
    19   10   43 1
    20   10   44 1
    21   11   12 ar
    22   11   64 1
    23   12   13 ar
    24   12   45 1
    25   13   14 ar
    26   14   15 1
    27   15   20 1
    28   15   16 1
    29   16   17 1
    30   16   46 1
    31   16   47 1
    32   17   18 1
    33   17   48 1
    34   17   49 1
    35   18   19 1
    36   18   21 am
    37   19   20 1
    38   19   50 1
    39   19   51 1
    40   20   52 1
    41   20   53 1
    42   21   22 2
    43   21   23 am
    44   23   24 1
    45   23   54 1
    46   24   29 ar
    47   24   25 ar
    48   25   26 ar
    49   25   55 1
    50   26   27 ar
    51   26   56 1
    52   27   28 ar
    53   27   30 1
    54   28   29 ar
    55   28   57 1
    56   29   58 1
    57   30   31 1
    58   31   36 ar
    59   31   32 ar
    60   32   33 ar
    61   32   59 1
    62   33   34 ar
    63   33   60 1
    64   34   35 ar
    65   34   61 1
    66   35   36 ar
    67   35   62 1
    68   36   63 1
@<TRIPOS>MOLECULE
ZINC12568108
   29    31     0     0     0
SMALL
USER_CHARGES
(3E)-3-[(4-hydroxyphenyl)methylene]indolin-2-one
@<TRIPOS>ATOM
      1 C1          2.0786    5.2758    0.1250 C.ar      1 <0>        -0.1417
      2 C2          1.5681    6.5571    0.2510 C.ar      1 <0>        -0.0792
      3 C3          0.2058    6.7675    0.3197 C.ar      1 <0>        -0.1386
      4 C4         -0.6701    5.6882    0.2764 C.ar      1 <0>         0.1455
      5 C5         -0.1494    4.3934    0.1527 C.ar      1 <0>        -0.1093
      6 C6          1.2246    4.1925    0.0755 C.ar      1 <0>        -0.0685
      7 C7         -1.3117    3.4763    0.1302 C.2       1 <0>        -0.1578
      8 C8         -1.2945    2.1159    0.0197 C.2       1 <0>         0.0279
      9 C9         -0.0495    1.4245   -0.3273 C.ar      1 <0>        -0.0978
     10 C10         0.7712    1.9231   -1.3484 C.ar      1 <0>        -0.0683
     11 C11         1.9318    1.2688   -1.6723 C.ar      1 <0>        -0.1534
     12 C12         2.2950    0.1123   -0.9904 C.ar      1 <0>         0.1250
     13 C13         1.4850   -0.3869    0.0240 C.ar      1 <0>        -0.1498
     14 C14         0.3220    0.2588    0.3568 C.ar      1 <0>        -0.0717
     15 O1          3.4447   -0.5312   -1.3157 O.3       1 <0>        -0.4981
     16 C15        -2.4898    4.3502    0.2594 C.2       1 <0>         0.5608
     17 O2         -3.6515    3.9867    0.2877 O.2       1 <0>        -0.5008
     18 N1         -2.0569    5.6199    0.3401 N.am      1 <0>        -0.6545
     19 H1          3.1462    5.1242    0.0651 H         1 <0>         0.1303
     20 H2          2.2421    7.4001    0.2891 H         1 <0>         0.1324
     21 H3         -0.1801    7.7712    0.4198 H         1 <0>         0.1287
     22 H4          1.6218    3.1930   -0.0223 H         1 <0>         0.1373
     23 H5         -2.1983    1.5490    0.1879 H         1 <0>         0.1482
     24 H6          0.4898    2.8206   -1.8791 H         1 <0>         0.1338
     25 H7          2.5650    1.6520   -2.4589 H         1 <0>         0.1354
     26 H8          1.7723   -1.2851    0.5503 H         1 <0>         0.1348
     27 H9         -0.3062   -0.1298    1.1446 H         1 <0>         0.1348
     28 H10         3.3378   -1.2049   -2.0011 H         1 <0>         0.3956
     29 H11        -2.6384    6.3909    0.4313 H         1 <0>         0.4192
@<TRIPOS>BOND
     1    1    6 ar
     2    1    2 ar
     3    1   19 1
     4    2    3 ar
     5    2   20 1
     6    3    4 ar
     7    3   21 1
     8    4   18 1
     9    4    5 ar
    10    5    6 ar
    11    5    7 1
    12    6   22 1
    13    7    8 2
    14    7   16 1
    15    8    9 1
    16    8   23 1
    17    9   14 ar
    18    9   10 ar
    19   10   11 ar
    20   10   24 1
    21   11   12 ar
    22   11   25 1
    23   12   13 ar
    24   12   15 1
    25   13   14 ar
    26   13   26 1
    27   14   27 1
    28   15   28 1
    29   16   17 2
    30   16   18 am
    31   18   29 1
@<TRIPOS>MOLECULE
ZINC24044436
   76    80     0     0     0
SMALL
USER_CHARGES
1-[5-tert-butyl-2-(p-tolyl)pyrazol-3-yl]-3-[4-(2-morpholinoethoxy)-1-naphthyl]urea
@<TRIPOS>ATOM
      1 C1          3.3307    9.5387   -0.3298 C.3       1 <0>        -0.1193
      2 C2          2.0898    8.6848   -0.2813 C.ar      1 <0>        -0.0892
      3 C3          0.9612    9.0673   -0.9828 C.ar      1 <0>        -0.0934
      4 C4         -0.1775    8.2868   -0.9403 C.ar      1 <0>        -0.1062
      5 C5         -0.1884    7.1174   -0.1919 C.ar      1 <0>         0.1564
      6 C6          0.9444    6.7392    0.5163 C.ar      1 <0>        -0.1500
      7 C7          2.0821    7.5207    0.4649 C.ar      1 <0>        -0.0924
      8 N1         -1.3424    6.3233   -0.1469 N.pl3     1 <0>        -0.3448
      9 C8         -1.3788    4.9645   -0.0790 C.2       1 <0>         0.3309
     10 C9         -2.6878    4.5925   -0.0483 C.2       1 <0>        -0.2629
     11 C10        -3.4651    5.7529   -0.1047 C.2       1 <0>         0.1115
     12 N2         -2.6643    6.7861   -0.1672 N.2       1 <0>        -0.2779
     13 C11        -4.9712    5.8052   -0.0954 C.3       1 <0>         0.0134
     14 C12        -5.4824    5.5257    1.3193 C.3       1 <0>        -0.1388
     15 C13        -5.4360    7.1933   -0.5406 C.3       1 <0>        -0.1390
     16 C14        -5.5242    4.7499   -1.0553 C.3       1 <0>        -0.1399
     17 N3         -0.2771    4.1104   -0.0417 N.am      1 <0>        -0.6731
     18 C15        -0.4603    2.7771    0.0314 C.2       1 <0>         0.7165
     19 O1         -1.5862    2.3190    0.0649 O.2       1 <0>        -0.5445
     20 N4          0.6045    1.9516    0.0675 N.am      1 <0>        -0.6819
     21 C16         0.4162    0.5655    0.0407 C.ar      1 <0>         0.1254
     22 C17        -0.6813    0.0024    0.6542 C.ar      1 <0>        -0.0743
     23 C18        -0.8835   -1.3742    0.6299 C.ar      1 <0>        -0.2061
     24 C19         0.0048   -2.2051    0.0082 C.ar      1 <0>         0.1395
     25 C20         1.1426   -1.6672   -0.6254 C.ar      1 <0>        -0.0565
     26 C21         1.3517   -0.2661   -0.6096 C.ar      1 <0>        -0.0251
     27 C22         2.4862    0.2686   -1.2409 C.ar      1 <0>        -0.1232
     28 C23         3.3687   -0.5639   -1.8588 C.ar      1 <0>        -0.0971
     29 C24         3.1636   -1.9422   -1.8742 C.ar      1 <0>        -0.1313
     30 C25         2.0750   -2.4951   -1.2724 C.ar      1 <0>        -0.0739
     31 O2         -0.2080   -3.5475    0.0012 O.3       1 <0>        -0.2916
     32 C26        -1.3823   -4.0216    0.6634 C.3       1 <0>         0.0605
     33 C27        -1.4510   -5.5459    0.5508 C.3       1 <0>         0.0539
     34 N5         -0.3065   -6.1409    1.2538 N.3       1 <0>        -0.5287
     35 C28        -0.1978   -7.5776    0.9617 C.3       1 <0>         0.0167
     36 C29         1.0390   -8.1436    1.6645 C.3       1 <0>         0.0615
     37 O3          0.9456   -7.8818    3.0674 O.3       1 <0>        -0.3849
     38 C30         0.8389   -6.4921    3.3879 C.3       1 <0>         0.0625
     39 C31        -0.3999   -5.9094    2.7026 C.3       1 <0>         0.0120
     40 H1          3.1476   10.4156   -0.9682 H         1 <0>         0.0687
     41 H2          4.1639    8.9515   -0.7434 H         1 <0>         0.0732
     42 H3          3.5863    9.8722    0.6868 H         1 <0>         0.0734
     43 H4          0.9703    9.9770   -1.5648 H         1 <0>         0.1335
     44 H5         -1.0587    8.5861   -1.4884 H         1 <0>         0.1355
     45 H6          0.9374    5.8324    1.1029 H         1 <0>         0.1262
     46 H7          2.9651    7.2245    1.0118 H         1 <0>         0.1343
     47 H8         -3.0598    3.5802    0.0092 H         1 <0>         0.1784
     48 H9         -6.5817    5.5639    1.3261 H         1 <0>         0.0656
     49 H10        -5.0849    6.2845    2.0094 H         1 <0>         0.0565
     50 H11        -5.1481    4.5278    1.6395 H         1 <0>         0.0614
     51 H12        -6.5353    7.2315   -0.5338 H         1 <0>         0.0604
     52 H13        -5.0684    7.3943   -1.5577 H         1 <0>         0.0568
     53 H14        -5.0385    7.9519    0.1496 H         1 <0>         0.0614
     54 H15        -6.6235    4.7882   -1.0484 H         1 <0>         0.0647
     55 H16        -5.1900    3.7520   -0.7351 H         1 <0>         0.0637
     56 H17        -5.1566    4.9509   -2.0724 H         1 <0>         0.0570
     57 H18         0.7414    4.5248   -0.0719 H         1 <0>         0.4294
     58 H19         1.6215    2.3677    0.1180 H         1 <0>         0.4280
     59 H20        -1.3959    0.6376    1.1566 H         1 <0>         0.1450
     60 H21        -1.7537   -1.7925    1.1139 H         1 <0>         0.1296
     61 H22         2.6580    1.3348   -1.2361 H         1 <0>         0.1222
     62 H23         4.2405   -0.1501   -2.3437 H         1 <0>         0.1243
     63 H24         3.8790   -2.5810   -2.3706 H         1 <0>         0.1250
     64 H25         1.9286   -3.5650   -1.2926 H         1 <0>         0.1353
     65 H26        -1.3465   -3.7335    1.7244 H         1 <0>         0.0659
     66 H27        -2.2726   -3.5787    0.1931 H         1 <0>         0.0716
     67 H28        -2.3868   -5.9052    1.0039 H         1 <0>         0.0605
     68 H29        -1.4216   -5.8370   -0.5096 H         1 <0>         0.0912
     69 H30        -1.0977   -8.0949    1.3258 H         1 <0>         0.0437
     70 H31        -0.1044   -7.7249   -0.1244 H         1 <0>         0.0891
     71 H32         1.0925   -9.2291    1.4949 H         1 <0>         0.1001
     72 H33         1.9424   -7.6643    1.2595 H         1 <0>         0.0618
     73 H34         0.7475   -6.3731    4.4776 H         1 <0>         0.0994
     74 H35         1.7375   -5.9645    3.0355 H         1 <0>         0.0616
     75 H36        -0.4553   -4.8284    2.8983 H         1 <0>         0.0869
     76 H37        -1.3031   -6.3997    3.0948 H         1 <0>         0.0443
@<TRIPOS>BOND
     1    1    2 1
     2    1   40 1
     3    1   41 1
     4    1   42 1
     5    2    7 ar
     6    2    3 ar
     7    3    4 ar
     8    3   43 1
     9    4    5 ar
    10    4   44 1
    11    5    6 ar
    12    5    8 1
    13    6    7 ar
    14    6   45 1
    15    7   46 1
    16    8   12 1
    17    8    9 1
    18    9   10 2
    19    9   17 1
    20   10   11 1
    21   10   47 1
    22   11   12 2
    23   11   13 1
    24   13   14 1
    25   13   15 1
    26   13   16 1
    27   14   48 1
    28   14   49 1
    29   14   50 1
    30   15   51 1
    31   15   52 1
    32   15   53 1
    33   16   54 1
    34   16   55 1
    35   16   56 1
    36   17   18 am
    37   17   57 1
    38   18   19 2
    39   18   20 am
    40   20   21 1
    41   20   58 1
    42   21   26 ar
    43   21   22 ar
    44   22   23 ar
    45   22   59 1
    46   23   24 ar
    47   23   60 1
    48   24   25 ar
    49   24   31 1
    50   25   30 ar
    51   25   26 ar
    52   26   27 ar
    53   27   28 ar
    54   27   61 1
    55   28   29 ar
    56   28   62 1
    57   29   30 ar
    58   29   63 1
    59   30   64 1
    60   31   32 1
    61   32   33 1
    62   32   65 1
    63   32   66 1
    64   33   34 1
    65   33   67 1
    66   33   68 1
    67   34   39 1
    68   34   35 1
    69   35   36 1
    70   35   69 1
    71   35   70 1
    72   36   37 1
    73   36   71 1
    74   36   72 1
    75   37   38 1
    76   38   39 1
    77   38   73 1
    78   38   74 1
    79   39   75 1
    80   39   76 1
@<TRIPOS>MOLECULE
ZINC34633957
   32    35     0     0     0
SMALL
USER_CHARGES

@<TRIPOS>ATOM
      1 C1         -0.0143    1.3784   -0.0483 C.ar      1 <0>        -0.1488
      2 C2          1.1681    2.0822    0.1079 C.ar      1 <0>        -0.0588
      3 C3          2.3771    1.4200    0.1651 C.ar      1 <0>        -0.1422
      4 C4          2.4194    0.0321    0.0663 C.ar      1 <0>         0.1618
      5 C5          1.2217   -0.6754   -0.0911 C.ar      1 <0>        -0.1625
      6 C6          0.0080    0.0019   -0.1480 C.ar      1 <0>        -0.0260
      7 C7          1.5787   -2.1121   -0.1655 C.2       1 <0>         0.1803
      8 N1          0.7682   -3.1254   -0.3117 N.2       1 <0>        -0.2625
      9 O1         -0.6268   -2.9066   -0.4182 O.3       1 <0>        -0.3794
     10 C8          3.0518   -2.1494   -0.0386 C.2       1 <0>         0.3106
     11 C9          3.8487   -3.2858   -0.0526 C.2       1 <0>        -0.2144
     12 C10         3.4076   -4.6940    0.0398 C.ar      1 <0>        -0.0494
     13 C11         2.1588   -5.2966    0.1617 C.ar      1 <0>        -0.1198
     14 C12         2.0666   -6.6738    0.2263 C.ar      1 <0>         0.0771
     15 C13         3.2147   -7.4503    0.1703 C.ar      1 <0>        -0.1208
     16 C14         4.4567   -6.8608    0.0496 C.ar      1 <0>        -0.1076
     17 C15         4.5692   -5.4766   -0.0174 C.ar      1 <0>         0.1283
     18 N2          5.6750   -4.6423   -0.1374 N.am      1 <0>        -0.6463
     19 C16         5.3104   -3.3492   -0.1688 C.2       1 <0>         0.5709
     20 O2          6.0621   -2.3960   -0.2723 O.2       1 <0>        -0.5204
     21 F1          0.8574   -7.2646    0.3445 F         1 <0>        -0.1377
     22 N3          3.4857   -0.8575    0.0946 N.pl3     1 <0>        -0.6144
     23 H1         -0.9554    1.9068   -0.0877 H         1 <0>         0.1365
     24 H2          1.1436    3.1591    0.1854 H         1 <0>         0.1384
     25 H3          3.2928    1.9796    0.2865 H         1 <0>         0.1352
     26 H4         -0.9139   -0.5475   -0.2695 H         1 <0>         0.1392
     27 H5         -1.1450   -3.7162   -0.5237 H         1 <0>         0.4151
     28 H6          1.2660   -4.6905    0.2058 H         1 <0>         0.1753
     29 H7          3.1360   -8.5262    0.2221 H         1 <0>         0.1430
     30 H8          5.3433   -7.4761    0.0070 H         1 <0>         0.1384
     31 H9          6.5918   -4.9538   -0.1952 H         1 <0>         0.4210
     32 H10         4.4148   -0.5979    0.1954 H         1 <0>         0.4399
@<TRIPOS>BOND
     1    1    6 ar
     2    1    2 ar
     3    1   23 1
     4    2    3 ar
     5    2   24 1
     6    3    4 ar
     7    3   25 1
     8    4   22 1
     9    4    5 ar
    10    5    6 ar
    11    5    7 1
    12    6   26 1
    13    7    8 2
    14    7   10 1
    15    8    9 1
    16    9   27 1
    17   10   11 2
    18   10   22 1
    19   11   19 1
    20   11   12 1
    21   12   17 ar
    22   12   13 ar
    23   13   14 ar
    24   13   28 1
    25   14   15 ar
    26   14   21 1
    27   15   16 ar
    28   15   29 1
    29   16   17 ar
    30   16   30 1
    31   17   18 1
    32   18   19 am
    33   18   31 1
    34   19   20 2
    35   22   32 1
@<TRIPOS>MOLECULE
ZINC01661760
   33    36     0     0     0
SMALL
NO_CHARGES

@<TRIPOS>ATOM
      1 C1         -0.0168    1.3885    0.0097 C.ar      1 <0>        -0.0975
      2 C2          1.1670    2.0942    0.0022 C.ar      1 <0>        -0.0849
      3 C3          2.3877    1.4300   -0.0135 C.ar      1 <0>        -0.0425
      4 C4          2.4244    0.0400   -0.0218 C.ar      1 <0>         0.0462
      5 C5          1.2097   -0.6720   -0.0136 C.ar      1 <0>        -0.2092
      6 C6          0.0021   -0.0041    0.0020 C.ar      1 <0>        -0.0305
      7 C7          1.5961   -2.1091   -0.0262 C.2       1 <0>         0.4018
      8 O1          0.8671   -3.0787   -0.0245 O.2       1 <0>        -0.3613
      9 C8          3.0863   -2.0810   -0.0414 C.2       1 <0>         0.0800
     10 C9          3.9915   -3.2858   -0.0579 C.3       1 <0>        -0.0168
     11 C10         5.4408   -2.8587   -0.0975 C.ar      1 <0>        -0.0824
     12 C11         6.1792   -2.1349   -1.0066 C.ar      1 <0>         0.0199
     13 C12         7.5215   -1.8947   -0.7704 C.ar      1 <0>        -0.4726
     14 C13         8.1159   -2.3833    0.3789 C.ar      1 <0>        -0.0017
     15 C14         7.3783   -3.1088    1.2913 C.ar      1 <0>        -0.0935
     16 C15         6.0261   -3.3547    1.0603 C.ar      1 <0>         0.2851
     17 N1          5.0830   -4.0496    1.8183 N.am      1 <0>        -0.5426
     18 C16         3.8707   -4.0579    1.2387 C.2       1 <0>         0.5203
     19 O2          2.8681   -4.5844    1.6729 O.2       1 <0>        -0.3680
     20 S1          8.4709   -0.9694   -1.9310 S.o2      1 <0>         2.6470
     21 O3          9.8375   -1.4605   -1.8459 O.2       1 <0>        -1.0122
     22 O4          7.8875   -1.2105   -3.2416 O.2       1 <0>        -1.0122
     23 O5          8.3704    0.4282   -1.5403 O.3       1 <0>        -1.0012
     24 N2          3.4689   -0.8476   -0.0379 N.2       1 <0>        -0.3552
     25 H1         -0.9594    1.9155    0.0260 H         1 <0>         0.1474
     26 H2          1.1458    3.1739    0.0082 H         1 <0>         0.1491
     27 H3          3.3087    1.9941   -0.0197 H         1 <0>         0.1490
     28 H4         -0.9244   -0.5590    0.0083 H         1 <0>         0.1417
     29 H5          5.7115   -1.7553   -1.9031 H         1 <0>         0.1860
     30 H6          9.1635   -2.1961    0.5628 H         1 <0>         0.1929
     31 H7          7.8498   -3.4873    2.1862 H         1 <0>         0.1809
     32 H8          5.2798   -4.4776    2.6662 H         1 <0>         0.4460
     33 H9          3.7568   -3.9270   -0.9076 H         1 <0>         0.1911
@<TRIPOS>BOND
     1    1    6 ar
     2    1    2 ar
     3    1   25 1
     4    2    3 ar
     5    2   26 1
     6    3    4 ar
     7    3   27 1
     8    4    5 ar
     9    4   24 1
    10    5    6 ar
    11    5    7 1
    12    6   28 1
    13    7    8 2
    14    7    9 1
    15    9   24 2
    16    9   10 1
    17   10   18 1
    18   10   11 1
    19   10   33 1
    20   11   16 ar
    21   11   12 ar
    22   12   13 ar
    23   12   29 1
    24   13   14 ar
    25   13   20 1
    26   14   15 ar
    27   14   30 1
    28   15   16 ar
    29   15   31 1
    30   16   17 1
    31   17   18 am
    32   17   32 1
    33   18   19 2
    34   20   21 2
    35   20   22 2
    36   20   23 1
@<TRIPOS>MOLECULE
ZINC01661760
   32    35     0     0     0
SMALL
USER_CHARGES

@<TRIPOS>ATOM
      1 C1         -0.0167    1.3810    0.0096 C.ar      1 <0>        -0.1552
      2 C2          1.1698    2.0922    0.0021 C.ar      1 <0>        -0.0822
      3 C3          2.3879    1.4369   -0.0135 C.ar      1 <0>        -0.1092
      4 C4          2.4316    0.0419   -0.0219 C.ar      1 <0>         0.1238
      5 C5          1.2160   -0.6755   -0.0137 C.ar      1 <0>        -0.2467
      6 C6          0.0021   -0.0041    0.0020 C.ar      1 <0>        -0.0313
      7 C7          1.5937   -2.1060   -0.0257 C.2       1 <0>         0.3784
      8 O1          0.8595   -3.0723   -0.0237 O.2       1 <0>        -0.3866
      9 C8          3.0913   -2.0862   -0.0407 C.2       1 <0>         0.3404
     10 N1          3.4775   -0.8309   -0.0375 N.2       1 <0>        -0.4667
     11 C9          3.9392   -3.2185   -0.0554 C.2       1 <0>        -0.4076
     12 C10         4.4633   -3.9181   -1.2434 C.ar      1 <0>        -0.0220
     13 C11         4.3180   -3.7259   -2.6152 C.ar      1 <0>        -0.0281
     14 C12         4.9542   -4.5760   -3.4950 C.ar      1 <0>        -0.6697
     15 C13         5.7346   -5.6177   -3.0181 C.ar      1 <0>        -0.0615
     16 C14         5.8858   -5.8187   -1.6614 C.ar      1 <0>        -0.1488
     17 C15         5.2535   -4.9721   -0.7589 C.ar      1 <0>         0.0960
     18 N2          5.2219   -4.9294    0.6255 N.pl3     1 <0>        -0.6252
     19 H1          5.6874   -5.5497    1.2081 H         1 <0>         0.3954
     20 C16         4.4544   -3.8965    1.0531 C.2       1 <0>         0.4816
     21 O2          4.2222   -3.5761    2.3436 O.3       1 <0>        -0.7076
     22 S1          4.7740   -4.3378   -5.2315 S.o2      1 <0>         2.7072
     23 O3          4.8861   -5.6489   -5.8516 O.2       1 <0>        -1.0776
     24 O4          3.4616   -3.7472   -5.4429 O.2       1 <0>        -1.0743
     25 O5          5.8448   -3.4460   -5.6488 O.3       1 <0>        -1.0759
     26 H2         -0.9599    1.9069    0.0260 H         1 <0>         0.1263
     27 H3          1.1449    3.1719    0.0082 H         1 <0>         0.1276
     28 H4          3.3062    2.0053   -0.0196 H         1 <0>         0.1315
     29 H5         -0.9244   -0.5590    0.0083 H         1 <0>         0.1253
     30 H6          3.7097   -2.9151   -2.9881 H         1 <0>         0.1145
     31 H7          6.2286   -6.2785   -3.7150 H         1 <0>         0.1217
     32 H8          6.4957   -6.6339   -1.3010 H         1 <0>         0.1064
@<TRIPOS>BOND
     1    1    6 ar
     2    1    2 ar
     3    1   26 1
     4    2    3 ar
     5    2   27 1
     6    3    4 ar
     7    3   28 1
     8    4   10 1
     9    4    5 ar
    10    5    6 ar
    11    5    7 1
    12    6   29 1
    13    7    8 2
    14    7    9 1
    15    9   10 2
    16    9   11 1
    17   11   20 2
    18   11   12 1
    19   12   17 ar
    20   12   13 ar
    21   13   14 ar
    22   13   30 1
    23   14   15 ar
    24   14   22 1
    25   15   16 ar
    26   15   31 1
    27   16   17 ar
    28   16   32 1
    29   17   18 1
    30   18   19 1
    31   18   20 1
    32   20   21 1
    33   22   23 2
    34   22   24 2
    35   22   25 1
@<TRIPOS>MOLECULE
ZINC01661760
   33    36     0     0     0
SMALL
USER_CHARGES
3-(3-hydroxy-1H-indol-2-yl)-2-oxo-indole-5-sulfonic acid
@<TRIPOS>ATOM
      1 C1          2.5834    2.3675   -3.4097 C.ar      1 <0>        -0.1784
      2 C2          3.7496    2.9775   -2.9658 C.ar      1 <0>        -0.0327
      3 C3          4.0114    3.1002   -1.6166 C.ar      1 <0>        -0.1664
      4 C4          3.1029    2.6105   -0.6840 C.ar      1 <0>         0.2077
      5 C5          1.9191    1.9920   -1.1373 C.ar      1 <0>        -0.2352
      6 C6          1.6748    1.8787   -2.5167 C.ar      1 <0>         0.0044
      7 C7          1.1803    1.5904   -0.0007 C.2       1 <0>         0.3668
      8 C8          1.9663    1.9989    1.1675 C.2       1 <0>         0.1739
      9 N1          3.1180    2.6034    0.6985 N.pl3     1 <0>        -0.6427
     10 H1          3.9690    3.0404    1.2415 H         1 <0>         0.4631
     11 C9          1.6207    1.8114    2.4945 C.2       1 <0>        -0.1122
     12 C10         2.3838    2.2011    3.6912 C.ar      1 <0>        -0.1534
     13 C11         3.6011    2.8482    3.8879 C.ar      1 <0>         0.0357
     14 C12         4.0529    3.0809    5.1727 C.ar      1 <0>        -0.6850
     15 C13         3.2967    2.6782    6.2620 C.ar      1 <0>         0.0176
     16 C14         2.0840    2.0402    6.0859 C.ar      1 <0>        -0.1669
     17 C15         1.6036    1.7930    4.7983 C.ar      1 <0>         0.1780
     18 N2          0.4648    1.1950    4.3570 N.am      1 <0>        -0.6477
     19 C16         0.3902    1.1612    3.0398 C.2       1 <0>         0.5629
     20 O1         -0.5214    0.6842    2.3836 O.2       1 <0>        -0.4663
     21 S1          5.5962    3.8920    5.4271 S.o2      1 <0>         2.6987
     22 O2          5.8524    4.6544    4.2556 O.2       1 <0>        -1.0570
     23 O3          5.5385    4.4785    6.7202 O.2       1 <0>        -1.0526
     24 O4          6.6676    2.8126    5.4865 O.3       1 <0>        -1.0732
     25 O5         -0.0110    0.9628    0.0073 O.3       1 <0>        -0.4331
     26 H2          2.3942    2.2797   -4.4694 H         1 <0>         0.1324
     27 H3          4.4591    3.3602   -3.6845 H         1 <0>         0.1363
     28 H4          4.9220    3.5767   -1.2845 H         1 <0>         0.1386
     29 H5          0.7698    1.4063   -2.8691 H         1 <0>         0.1342
     30 H6          4.1917    3.1624    3.0400 H         1 <0>         0.1275
     31 H7          3.6600    2.8658    7.2616 H         1 <0>         0.1463
     32 H8          1.5067    1.7327    6.9453 H         1 <0>         0.1325
     33 H9         -0.2678    0.8061    5.0796 H         1 <0>         0.4459
@<TRIPOS>BOND
     1    1    6 ar
     2    1    2 ar
     3    1   26 1
     4    2    3 ar
     5    2   27 1
     6    3    4 ar
     7    3   28 1
     8    4    9 1
     9    4    5 ar
    10    5    6 ar
    11    5    7 1
    12    6   29 1
    13    7    8 2
    14    7   25 1
    15    8    9 1
    16    8   11 1
    17    9   10 1
    18   11   19 1
    19   11   12 2
    20   12   17 ar
    21   12   13 ar
    22   13   14 ar
    23   13   30 1
    24   14   15 ar
    25   14   21 1
    26   15   16 ar
    27   15   31 1
    28   16   17 ar
    29   16   32 1
    30   17   18 2
    31   18   19 am
    32   18   33 1
    33   19   20 2
    34   21   22 2
    35   21   23 2
    36   21   24 1
@<TRIPOS>MOLECULE
ZINC14806670
   36    39     0     0     0
SMALL
USER_CHARGES

@<TRIPOS>ATOM
      1 C1          0.2964    1.5846   -0.5012 C.ar      1 <0>        -0.1587
      2 C2          0.9375    1.9014    0.6887 C.ar      1 <0>         0.0013
      3 C3          1.8696    1.0439    1.2366 C.ar      1 <0>        -0.1555
      4 C4          2.1759   -0.1524    0.5963 C.ar      1 <0>         0.2253
      5 C5          1.5235   -0.4709   -0.6110 C.ar      1 <0>        -0.2059
      6 C6          0.5789    0.4167   -1.1495 C.ar      1 <0>         0.0109
      7 C7          2.0128   -1.7283   -1.0473 C.2       1 <0>         0.3792
      8 C8          2.9963   -2.1575   -0.0428 C.2       1 <0>         0.1377
      9 N1          3.0539   -1.1711    0.9232 N.pl3     1 <0>        -0.5897
     10 H1          3.6224   -1.1896    1.7089 H         1 <0>         0.4493
     11 C9          3.7274   -3.3302   -0.0607 C.2       1 <0>        -0.0284
     12 C10         5.1890   -3.4869    0.0352 C.ar      1 <0>        -0.1747
     13 C11         6.2461   -2.5909    0.1647 C.ar      1 <0>         0.0690
     14 C12         7.5421   -3.0657    0.2297 C.ar      1 <0>        -0.6796
     15 C13         7.7902   -4.4276    0.1658 C.ar      1 <0>         0.0610
     16 C14         6.7536   -5.3312    0.0373 C.ar      1 <0>        -0.1589
     17 C15         5.4342   -4.8778   -0.0302 C.ar      1 <0>         0.1960
     18 N2          4.2545   -5.5424   -0.1548 N.am      1 <0>        -0.6228
     19 C16         3.2158   -4.7283   -0.1753 C.2       1 <0>         0.5552
     20 O1          2.0450   -5.0595   -0.2737 O.2       1 <0>        -0.4705
     21 S1          8.8839   -1.9356    0.3937 S.o2      1 <0>         2.6854
     22 O2         10.0320   -2.5455   -0.2590 O.2       1 <0>        -1.0467
     23 O3          8.4790   -0.7012   -0.2608 O.2       1 <0>        -1.0534
     24 O4          9.1058   -1.7474    1.8190 O.3       1 <0>        -1.0474
     25 N3          1.6454   -2.4025   -2.1704 N.pl3     1 <0>        -0.4591
     26 O5          0.5842   -1.9169   -2.9724 O.3       1 <0>        -0.2793
     27 H2         -0.4339    2.2644   -0.9146 H         1 <0>         0.1484
     28 H3          0.7045    2.8289    1.1906 H         1 <0>         0.1530
     29 H4          2.3618    1.3020    2.1627 H         1 <0>         0.1523
     30 H5          0.0765    0.1763   -2.0748 H         1 <0>         0.1468
     31 H6          6.0543   -1.5292    0.2139 H         1 <0>         0.1476
     32 H7          8.8073   -4.7871    0.2169 H         1 <0>         0.1611
     33 H8          6.9635   -6.3895   -0.0111 H         1 <0>         0.1487
     34 H9          2.1103   -3.2159   -2.4217 H         1 <0>         0.4428
     35 H10         0.3961   -2.4624   -3.7483 H         1 <0>         0.4248
     36 H11         4.1839   -6.5078   -0.2174 H         1 <0>         0.4347
@<TRIPOS>BOND
     1    1    6 ar
     2    1    2 ar
     3    1   27 1
     4    2    3 ar
     5    2   28 1
     6    3    4 ar
     7    3   29 1
     8    4    9 1
     9    4    5 ar
    10    5    6 ar
    11    5    7 1
    12    6   30 1
    13    7    8 2
    14    7   25 1
    15    8    9 1
    16    8   11 1
    17    9   10 1
    18   11   19 1
    19   11   12 2
    20   12   17 ar
    21   12   13 ar
    22   13   14 ar
    23   13   31 1
    24   14   15 ar
    25   14   21 1
    26   15   16 ar
    27   15   32 1
    28   16   17 ar
    29   16   33 1
    30   17   18 2
    31   18   19 am
    32   18   36 1
    33   19   20 2
    34   21   22 2
    35   21   23 2
    36   21   24 1
    37   25   26 1
    38   25   34 1
    39   26   35 1
@<TRIPOS>MOLECULE
ZINC58638454
   36    39     0     0     0
SMALL
USER_CHARGES

@<TRIPOS>ATOM
      1 C1          1.0856   -0.4596    0.7542 C.ar      1 <0>        -0.0832
      2 C2          2.2742    0.2440    0.7408 C.ar      1 <0>        -0.1072
      3 C3          2.3814    1.4102   -0.0062 C.ar      1 <0>         0.1804
      4 C4          1.2919    1.8655   -0.7379 C.ar      1 <0>        -0.1496
      5 C5          0.1054    1.1571   -0.7204 C.ar      1 <0>        -0.0148
      6 C6          0.0026   -0.0047    0.0253 C.ar      1 <0>        -0.1319
      7 Cl1        -1.2573    1.7249   -1.6338 Cl        1 <0>        -0.0755
      8 N1          3.5827    2.1243   -0.0212 N.pl3     1 <0>        -0.6509
      9 C7          4.7876    1.4521    0.0681 C.ar      1 <0>         0.4153
     10 C8          6.0341    2.2096    0.1758 C.ar      1 <0>        -0.0765
     11 C9          6.0766    3.6057    0.1939 C.ar      1 <0>        -0.1369
     12 C10         7.2943    4.2214    0.2981 C.ar      1 <0>         0.0773
     13 N2          8.4194    3.5315    0.3811 N.ar      1 <0>        -0.4714
     14 C11         8.4464    2.2147    0.3695 C.ar      1 <0>         0.1272
     15 C12         7.2551    1.5004    0.2664 C.ar      1 <0>        -0.0441
     16 C13         7.1958    0.0359    0.2463 C.ar      1 <0>        -0.1077
     17 C14         8.3565   -0.7366    0.3320 C.ar      1 <0>        -0.1123
     18 C15         8.2776   -2.0965    0.3119 C.ar      1 <0>        -0.0757
     19 C16         7.0321   -2.7341    0.2047 C.ar      1 <0>        -0.1079
     20 C17         5.8644   -1.9869    0.1182 C.ar      1 <0>        -0.0623
     21 C18         5.9309   -0.5872    0.1382 C.ar      1 <0>         0.1355
     22 N3          4.8025    0.1408    0.0611 N.ar      1 <0>        -0.5111
     23 C19         6.9625   -4.2076    0.1833 C.2       1 <0>         0.5195
     24 O1          7.9882   -4.8693    0.2588 O.co2     1 <0>        -0.6816
     25 O2          5.8791   -4.7673    0.0900 O.co2     1 <0>        -0.6793
     26 H1          1.0036   -1.3687    1.3314 H         1 <0>         0.1366
     27 H2          3.1195   -0.1121    1.3110 H         1 <0>         0.1448
     28 H3          1.3719    2.7720   -1.3194 H         1 <0>         0.1316
     29 H4         -0.9254   -0.5569    0.0374 H         1 <0>         0.1318
     30 H5          3.5711    3.0914   -0.0942 H         1 <0>         0.4165
     31 H6          5.1685    4.1865    0.1268 H         1 <0>         0.1362
     32 H7          7.3377    5.3004    0.3126 H         1 <0>         0.1575
     33 H8          9.3884    1.6910    0.4392 H         1 <0>         0.1690
     34 H9          9.3193   -0.2543    0.4140 H         1 <0>         0.1236
     35 H10         9.1791   -2.6874    0.3786 H         1 <0>         0.1360
     36 H11         4.9085   -2.4828    0.0363 H         1 <0>         0.1412
@<TRIPOS>BOND
     1    1    6 ar
     2    1    2 ar
     3    1   26 1
     4    2    3 ar
     5    2   27 1
     6    3    4 ar
     7    3    8 1
     8    4    5 ar
     9    4   28 1
    10    5    6 ar
    11    5    7 1
    12    6   29 1
    13    8    9 1
    14    8   30 1
    15    9   22 ar
    16    9   10 ar
    17   10   15 ar
    18   10   11 ar
    19   11   12 ar
    20   11   31 1
    21   12   13 ar
    22   12   32 1
    23   13   14 ar
    24   14   15 ar
    25   14   33 1
    26   15   16 ar
    27   16   21 ar
    28   16   17 ar
    29   17   18 ar
    30   17   34 1
    31   18   19 ar
    32   18   35 1
    33   19   20 ar
    34   19   23 1
    35   20   21 ar
    36   20   36 1
    37   21   22 ar
    38   23   24 2
    39   23   25 1
@<TRIPOS>MOLECULE
ZINC03966243
   84    88     0     0     0
SMALL
USER_CHARGES
N-(4-isopropoxyphenyl)-4-[6-methoxy-7-[3-(1-piperidyl)propoxy]quinazolin-4-yl]-piperazine-1-carboxamide
@<TRIPOS>ATOM
      1 C1          6.7701    4.5264   -1.2575 C.3       1 <0>        -0.1499
      2 C2          6.4967    3.0958   -0.7889 C.3       1 <0>         0.0769
      3 C3          7.4744    2.7298    0.3295 C.3       1 <0>        -0.1825
      4 O1          5.1571    3.0025   -0.3001 O.3       1 <0>        -0.3102
      5 C4          4.5717    1.7757   -0.3338 C.ar      1 <0>         0.1230
      6 C5          5.3083    0.6665   -0.7228 C.ar      1 <0>        -0.1923
      7 C6          4.7144   -0.5798   -0.7568 C.ar      1 <0>        -0.0743
      8 C7          3.3799   -0.7224   -0.4016 C.ar      1 <0>         0.1159
      9 C8          2.6432    0.3881   -0.0124 C.ar      1 <0>        -0.1027
     10 C9          3.2383    1.6338    0.0213 C.ar      1 <0>        -0.1355
     11 N1          2.7765   -1.9869   -0.4364 N.am      1 <0>        -0.6831
     12 C10         3.4836   -3.0808   -0.0903 C.2       1 <0>         0.7095
     13 O2          4.6669   -2.9820    0.1717 O.2       1 <0>        -0.5659
     14 N2          2.8793   -4.2842   -0.0346 N.am      1 <0>        -0.6302
     15 C11         1.4784   -4.4454   -0.4527 C.3       1 <0>         0.1163
     16 C12         1.4049   -5.6100   -1.4530 C.3       1 <0>         0.0464
     17 N3          2.0146   -6.8039   -0.8522 N.pl3     1 <0>        -0.4805
     18 C13         3.4424   -6.5929   -0.5788 C.3       1 <0>         0.0482
     19 C14         3.6012   -5.4698    0.4515 C.3       1 <0>         0.1328
     20 C15         1.8226   -7.9122   -1.6510 C.ar      1 <0>         0.3962
     21 C16         0.6195   -8.6545   -1.5866 C.ar      1 <0>        -0.1386
     22 C17        -0.4268   -8.2967   -0.7272 C.ar      1 <0>        -0.1287
     23 C18        -1.5707   -9.0425   -0.7073 C.ar      1 <0>         0.1093
     24 C19        -1.7117  -10.1606   -1.5416 C.ar      1 <0>         0.1588
     25 C20        -0.6998  -10.5302   -2.3993 C.ar      1 <0>        -0.1794
     26 C21         0.4818   -9.7794   -2.4366 C.ar      1 <0>         0.1794
     27 N4          1.4973  -10.0975   -3.2547 N.ar      1 <0>        -0.5194
     28 C22         2.5920   -9.3751   -3.2679 C.ar      1 <0>         0.3256
     29 N5          2.7631   -8.3137   -2.4959 N.ar      1 <0>        -0.5577
     30 O3         -2.8592  -10.8868   -1.5038 O.3       1 <0>        -0.2941
     31 C23        -2.9427  -12.0141   -2.3780 C.3       1 <0>         0.0564
     32 C24        -4.2971  -12.7020   -2.1952 C.3       1 <0>        -0.1506
     33 C25        -4.3865  -13.9090   -3.1312 C.3       1 <0>        -0.0020
     34 C26        -5.8040  -15.1525   -1.6130 C.3       1 <0>        -0.0079
     35 C27        -7.2186  -15.7022   -1.4158 C.3       1 <0>        -0.1471
     36 C28        -7.5007  -16.7656   -2.4807 C.3       1 <0>        -0.1398
     37 C29        -7.3247  -16.1452   -3.8695 C.3       1 <0>        -0.1477
     38 C30        -5.9070  -15.5827   -3.9956 C.3       1 <0>        -0.0015
     39 O4         -2.5839   -8.6973    0.1313 O.3       1 <0>        -0.3038
     40 C31        -2.3802   -7.5484    0.9564 C.3       1 <0>         0.0216
     41 H1          6.6397    5.2137   -0.4216 H         1 <0>         0.0680
     42 H2          7.7918    4.5976   -1.6304 H         1 <0>         0.0781
     43 H3          6.0735    4.7871   -2.0543 H         1 <0>         0.0652
     44 H4          6.6271    2.4085   -1.6248 H         1 <0>         0.0735
     45 H5          7.2796    1.7107    0.6634 H         1 <0>         0.0633
     46 H6          8.4962    2.8010   -0.0433 H         1 <0>         0.0733
     47 H7          7.3440    3.4171    1.1654 H         1 <0>         0.0686
     48 H8          6.3476    0.7769   -0.9947 H         1 <0>         0.1332
     49 H9          5.2879   -1.4432   -1.0601 H         1 <0>         0.1408
     50 H10         1.6050    0.2778    0.2637 H         1 <0>         0.1308
     51 H11         2.6653    2.4978    0.3240 H         1 <0>         0.1354
     52 H12         1.8499   -2.0748   -0.7096 H         1 <0>         0.4030
     53 H13         0.8598   -4.6663    0.4171 H         1 <0>         0.0856
     54 H14         1.1308   -3.5290   -0.9296 H         1 <0>         0.0889
     55 H15         1.9431   -5.3458   -2.3633 H         1 <0>         0.0616
     56 H16         0.3620   -5.8162   -1.6938 H         1 <0>         0.0941
     57 H17         3.9521   -6.3150   -1.5013 H         1 <0>         0.0689
     58 H18         3.8770   -7.5117   -0.1852 H         1 <0>         0.0954
     59 H19         4.6578   -5.2309    0.5728 H         1 <0>         0.1082
     60 H20         3.1850   -5.7851    1.4083 H         1 <0>         0.0782
     61 H21        -0.3280   -7.4373   -0.0806 H         1 <0>         0.1573
     62 H22        -0.8167  -11.3925   -3.0389 H         1 <0>         0.1519
     63 H23         3.3895   -9.6593   -3.9384 H         1 <0>         0.1992
     64 H24        -2.8407  -11.6812   -3.4109 H         1 <0>         0.0778
     65 H25        -2.1435  -12.7168   -2.1421 H         1 <0>         0.0777
     66 H26        -4.3991  -13.0349   -1.1623 H         1 <0>         0.1002
     67 H27        -5.0963  -11.9993   -2.4311 H         1 <0>         0.1003
     68 H28        -4.2845  -13.5761   -4.1641 H         1 <0>         0.1340
     69 H29        -3.5873  -14.6117   -2.8953 H         1 <0>         0.1355
     70 H30        -5.0816  -15.9614   -1.5040 H         1 <0>         0.1310
     71 H31        -5.6051  -14.3849   -0.8651 H         1 <0>         0.1299
     72 H32        -7.9407  -14.8913   -1.5110 H         1 <0>         0.0877
     73 H33        -7.3012  -16.1486   -0.4248 H         1 <0>         0.1122
     74 H34        -8.5225  -17.1289   -2.3709 H         1 <0>         0.0942
     75 H35        -6.8042  -17.5956   -2.3615 H         1 <0>         0.0818
     76 H36        -8.0484  -15.3413   -4.0033 H         1 <0>         0.0877
     77 H37        -7.4825  -16.9083   -4.6316 H         1 <0>         0.1125
     78 H38        -5.7830  -15.1275   -4.9782 H         1 <0>         0.1289
     79 H39        -5.1842  -16.3896   -3.8752 H         1 <0>         0.1307
     80 H40        -3.2625   -7.3845    1.5752 H         1 <0>         0.1075
     81 H41        -1.5126   -7.7098    1.5962 H         1 <0>         0.0622
     82 H42        -2.2103   -6.6748    0.3272 H         1 <0>         0.0599
     83 N6         -5.7075  -14.5479   -2.9586 N.4       1 <0>        -0.3926
     84 H43        -6.4386  -13.8336   -3.0559 H         1 <0>         0.4277
@<TRIPOS>BOND
     1    1    2 1
     2    1   41 1
     3    1   42 1
     4    1   43 1
     5    2    3 1
     6    2    4 1
     7    2   44 1
     8    3   45 1
     9    3   46 1
    10    3   47 1
    11    4    5 1
    12    5   10 ar
    13    5    6 ar
    14    6    7 ar
    15    6   48 1
    16    7    8 ar
    17    7   49 1
    18    8    9 ar
    19    8   11 1
    20    9   10 ar
    21    9   50 1
    22   10   51 1
    23   11   12 am
    24   11   52 1
    25   12   13 2
    26   12   14 am
    27   14   19 1
    28   14   15 1
    29   15   16 1
    30   15   53 1
    31   15   54 1
    32   16   17 1
    33   16   55 1
    34   16   56 1
    35   17   18 1
    36   17   20 1
    37   18   19 1
    38   18   57 1
    39   18   58 1
    40   19   59 1
    41   19   60 1
    42   20   29 ar
    43   20   21 ar
    44   21   26 ar
    45   21   22 ar
    46   22   23 ar
    47   22   61 1
    48   23   24 ar
    49   23   39 1
    50   24   25 ar
    51   24   30 1
    52   25   26 ar
    53   25   62 1
    54   26   27 ar
    55   27   28 ar
    56   28   29 ar
    57   28   63 1
    58   30   31 1
    59   31   32 1
    60   31   64 1
    61   31   65 1
    62   32   33 1
    63   32   66 1
    64   32   67 1
    65   33   68 1
    66   33   69 1
    67   33   83 1
    68   34   35 1
    69   34   70 1
    70   34   71 1
    71   34   83 1
    72   35   36 1
    73   35   72 1
    74   35   73 1
    75   36   37 1
    76   36   74 1
    77   36   75 1
    78   37   38 1
    79   37   76 1
    80   37   77 1
    81   38   78 1
    82   38   79 1
    83   38   83 1
    84   39   40 1
    85   40   80 1
    86   40   81 1
    87   40   82 1
    88   83   84 1
@<TRIPOS>MOLECULE
ZINC01493878
   48    50     0     0     0
SMALL
USER_CHARGES

@<TRIPOS>ATOM
      1 C1         -1.0955   -5.0083   -6.9234 C.3       1 <0>         0.0847
      2 N1         -1.5520   -4.3038   -5.7228 N.am      1 <0>        -0.7137
      3 C2         -1.8827   -5.0004   -4.6175 C.2       1 <0>         0.5696
      4 O1         -1.8023   -6.2129   -4.6168 O.2       1 <0>        -0.5284
      5 C3         -2.3445   -4.2878   -3.4031 C.ar      1 <0>         0.1129
      6 C4         -2.6788   -5.0128   -2.2640 C.ar      1 <0>        -0.1883
      7 C5         -3.1110   -4.3279   -1.1310 C.ar      1 <0>         0.1595
      8 C6         -3.1903   -2.9389   -1.1877 C.ar      1 <0>        -0.1766
      9 C7         -2.8404   -2.2885   -2.3571 C.ar      1 <0>         0.1349
     10 N2         -2.4302   -2.9626   -3.4105 N.ar      1 <0>        -0.4815
     11 O2         -3.4471   -4.9979    0.0005 O.3       1 <0>        -0.2437
     12 C8         -3.4462   -6.3570   -0.0383 C.ar      1 <0>         0.0568
     13 C9         -2.2447   -7.0505   -0.0178 C.ar      1 <0>        -0.1074
     14 C10        -2.2431   -8.4307   -0.0577 C.ar      1 <0>        -0.1009
     15 C11        -3.4442   -9.1246   -0.1179 C.ar      1 <0>         0.1671
     16 C12        -4.6464   -8.4301   -0.1379 C.ar      1 <0>        -0.1272
     17 C13        -4.6469   -7.0500   -0.0928 C.ar      1 <0>        -0.0940
     18 N3         -3.4432  -10.5252   -0.1588 N.am      1 <0>        -0.6776
     19 C14        -2.5108  -11.2187    0.5239 C.2       1 <0>         0.7077
     20 O3         -1.6217  -10.6297    1.1080 O.2       1 <0>        -0.5493
     21 N4         -2.5639  -12.5649    0.5593 N.am      1 <0>        -0.6795
     22 C15        -1.6655  -13.2800    1.3600 C.ar      1 <0>         0.1700
     23 C16        -1.2529  -12.7583    2.5792 C.ar      1 <0>        -0.0742
     24 C17        -0.3670  -13.4659    3.3674 C.ar      1 <0>        -0.0871
     25 C18         0.1097  -14.6941    2.9434 C.ar      1 <0>        -0.0077
     26 C19        -0.2993  -15.2159    1.7290 C.ar      1 <0>        -0.1564
     27 C20        -1.1898  -14.5147    0.9394 C.ar      1 <0>        -0.0879
     28 C21         0.2222  -16.5533    1.2702 C.3       1 <0>         0.5112
     29 F1         -0.3299  -16.8663    0.0234 F         1 <0>        -0.1743
     30 F2          1.6160  -16.4983    1.1626 F         1 <0>        -0.1671
     31 F3         -0.1354  -17.5367    2.1987 F         1 <0>        -0.1677
     32 Cl1         1.2234  -15.5812    3.9366 Cl        1 <0>        -0.0394
     33 H1         -0.8760   -4.2843   -7.7081 H         1 <0>         0.0803
     34 H2         -0.1948   -5.5764   -6.6909 H         1 <0>         0.0631
     35 H3         -1.8761   -5.6883   -7.2645 H         1 <0>         0.0629
     36 H4         -1.6162   -3.3359   -5.7233 H         1 <0>         0.4141
     37 H5         -2.6047   -6.0902   -2.2584 H         1 <0>         0.1546
     38 H6         -3.5217   -2.3755   -0.3280 H         1 <0>         0.1523
     39 H7         -2.9005   -1.2112   -2.4052 H         1 <0>         0.1747
     40 H8         -1.3104   -6.5106    0.0290 H         1 <0>         0.1364
     41 H9         -1.3078   -8.9704   -0.0424 H         1 <0>         0.1514
     42 H10        -5.5809   -8.9693   -0.1851 H         1 <0>         0.1386
     43 H11        -5.5820   -6.5098   -0.1039 H         1 <0>         0.1400
     44 H12        -4.1137  -10.9957   -0.6785 H         1 <0>         0.4131
     45 H13        -3.2246  -13.0383    0.0299 H         1 <0>         0.4146
     46 H14        -1.6244  -11.7997    2.9103 H         1 <0>         0.1546
     47 H15        -0.0456  -13.0604    4.3154 H         1 <0>         0.1524
     48 H16        -1.5123  -14.9245   -0.0064 H         1 <0>         0.1525
@<TRIPOS>BOND
     1    1    2 1
     2    1   33 1
     3    1   34 1
     4    1   35 1
     5    2    3 am
     6    2   36 1
     7    3    4 2
     8    3    5 1
     9    5   10 ar
    10    5    6 ar
    11    6    7 ar
    12    6   37 1
    13    7    8 ar
    14    7   11 1
    15    8    9 ar
    16    8   38 1
    17    9   10 ar
    18    9   39 1
    19   11   12 1
    20   12   17 ar
    21   12   13 ar
    22   13   14 ar
    23   13   40 1
    24   14   15 ar
    25   14   41 1
    26   15   16 ar
    27   15   18 1
    28   16   17 ar
    29   16   42 1
    30   17   43 1
    31   18   19 am
    32   18   44 1
    33   19   20 2
    34   19   21 am
    35   21   22 1
    36   21   45 1
    37   22   27 ar
    38   22   23 ar
    39   23   24 ar
    40   23   46 1
    41   24   25 ar
    42   24   47 1
    43   25   26 ar
    44   25   32 1
    45   26   27 ar
    46   26   28 1
    47   27   48 1
    48   28   29 1
    49   28   30 1
    50   28   31 1
@<TRIPOS>MOLECULE
ZINC21982951
   60    63     0     0     0
SMALL
USER_CHARGES

@<TRIPOS>ATOM
      1 C1         -2.0700    1.6928    0.2333 C.3       1 <0>        -0.1170
      2 C2         -1.6482    0.2604    0.0301 C.ar      1 <0>        -0.0813
      3 C3         -1.8479   -0.3525   -1.1919 C.ar      1 <0>        -0.1034
      4 C4         -1.4615   -1.6665   -1.3798 C.ar      1 <0>        -0.0990
      5 C5         -0.8738   -2.3725   -0.3459 C.ar      1 <0>        -0.1046
      6 C6         -0.6714   -1.7660    0.8791 C.ar      1 <0>        -0.0220
      7 C7         -1.0534   -0.4428    1.0688 C.ar      1 <0>         0.1347
      8 N1         -0.8441    0.1769    2.3055 N.am      1 <0>        -0.6659
      9 C8         -1.2819   -0.4110    3.4365 C.2       1 <0>         0.6018
     10 O1         -1.7689   -1.5261    3.3939 O.2       1 <0>        -0.4722
     11 C9         -1.1720    0.2905    4.7149 C.2       1 <0>        -0.2635
     12 C10        -1.5472   -0.1201    5.9866 C.2       1 <0>         0.1512
     13 N2         -1.3262    0.7270    6.9599 N.2       1 <0>        -0.5510
     14 C11        -0.7756    1.9070    6.7361 C.2       1 <0>         0.2513
     15 S1         -0.5107    1.9100    5.0742 S.3       1 <0>         0.2445
     16 N3         -0.4817    2.8997    7.6498 N.pl3     1 <0>        -0.5870
     17 C12        -0.6908    2.6801    9.0050 C.ar      1 <0>         0.4543
     18 C13        -1.0534    1.4192    9.4679 C.ar      1 <0>        -0.2926
     19 C14        -1.2512    1.2508   10.8352 C.ar      1 <0>         0.4935
     20 N4         -1.0875    2.2952   11.6453 N.ar      1 <0>        -0.5328
     21 C15        -0.7435    3.4737   11.1677 C.ar      1 <0>         0.4541
     22 N5         -0.5417    3.6719    9.8809 N.ar      1 <0>        -0.5672
     23 C16        -0.5694    4.6273   12.1217 C.3       1 <0>        -0.1251
     24 N6         -1.6138    0.0143   11.3464 N.pl3     1 <0>        -0.5370
     25 C17        -2.0559   -0.1253   12.7422 C.3       1 <0>         0.1090
     26 C18        -3.3866   -0.8852   12.7576 C.3       1 <0>         0.0383
     27 N7         -3.2335   -2.1493   12.0251 N.3       1 <0>        -0.5289
     28 C19        -2.9165   -1.9105   10.6107 C.3       1 <0>         0.0343
     29 C20        -1.5725   -1.1917   10.5056 C.3       1 <0>         0.1057
     30 C21        -4.4334   -2.9856   12.1619 C.3       1 <0>         0.0545
     31 C22        -4.1483   -4.3816   11.6043 C.3       1 <0>         0.0776
     32 O2         -3.1500   -5.0191   12.4038 O.3       1 <0>        -0.5606
     33 Cl1         0.0658   -2.6526    2.1768 Cl        1 <0>        -0.0453
     34 H1         -1.2464    2.3553   -0.0328 H         1 <0>         0.0773
     35 H2         -2.9308    1.9112   -0.3987 H         1 <0>         0.0785
     36 H3         -2.3379    1.8478    1.2784 H         1 <0>         0.0640
     37 H4         -2.3069    0.1956   -2.0014 H         1 <0>         0.1372
     38 H5         -1.6193   -2.1430   -2.3361 H         1 <0>         0.1391
     39 H6         -0.5731   -3.3989   -0.4959 H         1 <0>         0.1403
     40 H7         -0.3838    1.0296    2.3489 H         1 <0>         0.4083
     41 H8         -1.9972   -1.0858    6.1634 H         1 <0>         0.2027
     42 H9         -0.1293    3.7505    7.3451 H         1 <0>         0.4460
     43 H10        -1.1784    0.5927    8.7841 H         1 <0>         0.2218
     44 H11         0.4644    4.6619   12.4652 H         1 <0>         0.1245
     45 H12        -0.8146    5.5596   11.6130 H         1 <0>         0.1071
     46 H13        -1.2322    4.4948   12.9768 H         1 <0>         0.1273
     47 H14        -1.3096   -0.6823   13.3087 H         1 <0>         0.0989
     48 H15        -2.1929    0.8619   13.1834 H         1 <0>         0.1094
     49 H16        -3.6740   -1.0944   13.7880 H         1 <0>         0.1036
     50 H17        -4.1569   -0.2794   12.2806 H         1 <0>         0.0428
     51 H18        -2.8631   -2.8634   10.0841 H         1 <0>         0.1043
     52 H19        -3.6935   -1.2904   10.1636 H         1 <0>         0.0450
     53 H20        -1.3900   -0.9091    9.4688 H         1 <0>         0.1029
     54 H21        -0.7788   -1.8532   10.8529 H         1 <0>         0.1042
     55 H22        -4.7041   -3.0633   13.2149 H         1 <0>         0.0912
     56 H23        -5.2561   -2.5340   11.6075 H         1 <0>         0.0533
     57 H24        -5.0627   -4.9745   11.6240 H         1 <0>         0.0547
     58 H25        -3.7921   -4.2970   10.5776 H         1 <0>         0.0454
     59 H26        -2.9188   -5.9101   12.1076 H         1 <0>         0.3805
     60 H27        -0.2852    4.5531    9.5669 H         1 <0>         0.4414
@<TRIPOS>BOND
     1    1    2 1
     2    1   34 1
     3    1   35 1
     4    1   36 1
     5    2    7 ar
     6    2    3 ar
     7    3    4 ar
     8    3   37 1
     9    4    5 ar
    10    4   38 1
    11    5    6 ar
    12    5   39 1
    13    6    7 ar
    14    6   33 1
    15    7    8 1
    16    8    9 am
    17    8   40 1
    18    9   10 2
    19    9   11 1
    20   11   15 1
    21   11   12 2
    22   12   13 1
    23   12   41 1
    24   13   14 2
    25   14   15 1
    26   14   16 1
    27   16   17 1
    28   16   42 1
    29   17   22 ar
    30   17   18 ar
    31   18   19 ar
    32   18   43 1
    33   19   20 ar
    34   19   24 1
    35   20   21 ar
    36   21   22 ar
    37   21   23 1
    38   22   60 1
    39   23   44 1
    40   23   45 1
    41   23   46 1
    42   24   29 1
    43   24   25 1
    44   25   26 1
    45   25   47 1
    46   25   48 1
    47   26   27 1
    48   26   49 1
    49   26   50 1
    50   27   28 1
    51   27   30 1
    52   28   29 1
    53   28   51 1
    54   28   52 1
    55   29   53 1
    56   29   54 1
    57   30   31 1
    58   30   55 1
    59   30   56 1
    60   31   32 1
    61   31   57 1
    62   31   58 1
    63   32   59 1
@<TRIPOS>MOLECULE
ZINC21982951
   60    63     0     0     0
SMALL
USER_CHARGES

@<TRIPOS>ATOM
      1 C1          3.2739    6.6585    1.8418 C.3       1 <0>        -0.1168
      2 C2          2.5810    7.9910    1.9663 C.ar      1 <0>        -0.0823
      3 C3          2.8983    9.0189    1.0995 C.ar      1 <0>        -0.1038
      4 C4          2.2635   10.2419    1.2126 C.ar      1 <0>        -0.1008
      5 C5          1.3088   10.4411    2.1933 C.ar      1 <0>        -0.1049
      6 C6          0.9869    9.4175    3.0639 C.ar      1 <0>        -0.0226
      7 C7          1.6192    8.1849    2.9486 C.ar      1 <0>         0.1373
      8 N1          1.2913    7.1440    3.8238 N.am      1 <0>        -0.6678
      9 C8          1.3128    7.3511    5.1554 C.2       1 <0>         0.6036
     10 O1          1.5184    8.4680    5.5945 O.2       1 <0>        -0.4759
     11 C9          1.0891    6.2346    6.0728 C.2       1 <0>        -0.2694
     12 C10         1.0619    6.2190    7.4604 C.2       1 <0>         0.1522
     13 N2          0.8357    5.0596    8.0247 N.2       1 <0>        -0.5060
     14 C11         0.6446    3.9678    7.3056 C.2       1 <0>         0.2464
     15 S1          0.7674    4.5141    5.7185 S.3       1 <0>         0.2029
     16 N3          0.3973    2.6842    7.7505 N.pl3     1 <0>        -0.5650
     17 C12         0.2197    2.4414    9.1063 C.ar      1 <0>         0.4999
     18 C13        -0.1342    1.1736    9.5555 C.ar      1 <0>        -0.3181
     19 C14        -0.3003    0.9817   10.9244 C.ar      1 <0>         0.4940
     20 N4         -0.1157    2.0114   11.7481 N.ar      1 <0>        -0.5712
     21 C15         0.2193    3.1978   11.2829 C.ar      1 <0>         0.4509
     22 N5          0.3911    3.4178    9.9956 N.ar      1 <0>        -0.4879
     23 C16         0.4179    4.3344   12.2523 C.3       1 <0>        -0.1253
     24 N6         -0.6531   -0.2629   11.4224 N.pl3     1 <0>        -0.5744
     25 C17        -0.9639   -0.4449   12.8484 C.3       1 <0>         0.1013
     26 C18        -2.3114   -1.1652   12.9649 C.3       1 <0>         0.0387
     27 N7         -2.2712   -2.4031   12.1749 N.3       1 <0>        -0.5277
     28 C19        -2.0835   -2.1176   10.7462 C.3       1 <0>         0.0305
     29 C20        -0.7325   -1.4351   10.5377 C.3       1 <0>         0.1149
     30 C21        -3.4796   -3.2085   12.3965 C.3       1 <0>         0.0543
     31 C22        -3.2958   -4.5889   11.7629 C.3       1 <0>         0.0774
     32 O2         -2.2472   -5.2869   12.4378 O.3       1 <0>        -0.5615
     33 Cl1        -0.2110    9.6681    4.2952 Cl        1 <0>        -0.0453
     34 H1          2.7121    6.0191    1.1609 H         1 <0>         0.0767
     35 H2          4.2810    6.8077    1.4524 H         1 <0>         0.0779
     36 H3          3.3298    6.1850    2.8220 H         1 <0>         0.0648
     37 H4          3.6435    8.8670    0.3327 H         1 <0>         0.1365
     38 H5          2.5139   11.0437    0.5337 H         1 <0>         0.1383
     39 H6          0.8148   11.3976    2.2790 H         1 <0>         0.1396
     40 H7          1.0484    6.2731    3.4723 H         1 <0>         0.4083
     41 H8          1.2191    7.1147    8.0430 H         1 <0>         0.1979
     42 H9          0.3477    1.9521    7.1161 H         1 <0>         0.4525
     43 H10        -0.2767    0.3593    8.8606 H         1 <0>         0.1835
     44 H11         1.4596    4.3615   12.5720 H         1 <0>         0.1250
     45 H12         0.1626    5.2758   11.7656 H         1 <0>         0.1301
     46 H13        -0.2249    4.1881   13.1203 H         1 <0>         0.1049
     47 H14        -0.1857   -1.0458   13.3190 H         1 <0>         0.1119
     48 H15        -1.0251    0.5276   13.3369 H         1 <0>         0.0843
     49 H16        -2.5057   -1.4068   14.0099 H         1 <0>         0.1076
     50 H17        -3.1034   -0.5184   12.5874 H         1 <0>         0.0465
     51 H18        -2.1124   -3.0499   10.1822 H         1 <0>         0.1076
     52 H19        -2.8786   -1.4576   10.3996 H         1 <0>         0.0467
     53 H20        -0.6409   -1.1170    9.4992 H         1 <0>         0.1034
     54 H21         0.0684   -2.1330   10.7819 H         1 <0>         0.1075
     55 H22        -3.6507   -3.3200   13.4672 H         1 <0>         0.0925
     56 H23        -4.3362   -2.7111   11.9416 H         1 <0>         0.0553
     57 H24        -4.2233   -5.1548   11.8494 H         1 <0>         0.0565
     58 H25        -3.0370   -4.4741   10.7103 H         1 <0>         0.0456
     59 H26        -2.0752   -6.1719   12.0881 H         1 <0>         0.3821
     60 H27        -0.2297    1.8867   12.7033 H         1 <0>         0.4392
@<TRIPOS>BOND
     1    1    2 1
     2    1   34 1
     3    1   35 1
     4    1   36 1
     5    2    7 ar
     6    2    3 ar
     7    3    4 ar
     8    3   37 1
     9    4    5 ar
    10    4   38 1
    11    5    6 ar
    12    5   39 1
    13    6    7 ar
    14    6   33 1
    15    7    8 1
    16    8    9 am
    17    8   40 1
    18    9   10 2
    19    9   11 1
    20   11   15 1
    21   11   12 2
    22   12   13 1
    23   12   41 1
    24   13   14 2
    25   14   15 1
    26   14   16 1
    27   16   17 1
    28   16   42 1
    29   17   18 ar
    30   17   22 ar
    31   18   43 1
    32   18   19 ar
    33   19   24 1
    34   19   20 ar
    35   20   60 1
    36   20   21 ar
    37   21   23 1
    38   21   22 ar
    39   23   44 1
    40   23   45 1
    41   23   46 1
    42   24   29 1
    43   24   25 1
    44   25   26 1
    45   25   47 1
    46   25   48 1
    47   26   27 1
    48   26   49 1
    49   26   50 1
    50   27   28 1
    51   27   30 1
    52   28   29 1
    53   28   51 1
    54   28   52 1
    55   29   53 1
    56   29   54 1
    57   30   31 1
    58   30   55 1
    59   30   56 1
    60   31   32 1
    61   31   57 1
    62   31   58 1
    63   32   59 1
@<TRIPOS>MOLECULE
ZINC21982951
   59    62     0     0     0
SMALL
USER_CHARGES

@<TRIPOS>ATOM
      1 C1          3.4106    6.6420    1.8847 C.3       1 <0>        -0.1165
      2 C2          2.6976    7.9659    1.9845 C.ar      1 <0>        -0.0852
      3 C3          3.0204    8.9921    1.1176 C.ar      1 <0>        -0.1055
      4 C4          2.3672   10.2073    1.2080 C.ar      1 <0>        -0.1070
      5 C5          1.3885   10.4004    2.1660 C.ar      1 <0>        -0.1064
      6 C6          1.0609    9.3785    3.0365 C.ar      1 <0>        -0.0243
      7 C7          1.7118    8.1536    2.9438 C.ar      1 <0>         0.1460
      8 N1          1.3783    7.1144    3.8189 N.am      1 <0>        -0.6734
      9 C8          1.3676    7.3308    5.1492 C.2       1 <0>         0.6131
     10 O1          1.5489    8.4533    5.5848 O.2       1 <0>        -0.4899
     11 C9          1.1384    6.2176    6.0693 C.2       1 <0>        -0.3092
     12 C10         1.0807    6.2111    7.4561 C.2       1 <0>         0.1722
     13 N2          0.8573    5.0526    8.0233 N.2       1 <0>        -0.5180
     14 C11         0.6966    3.9535    7.3079 C.2       1 <0>         0.3121
     15 S1          0.8472    4.4907    5.7202 S.3       1 <0>         0.1340
     16 N3          0.4564    2.6698    7.7563 N.pl3     1 <0>        -0.5904
     17 C12         0.2490    2.4343    9.1091 C.ar      1 <0>         0.4412
     18 C13        -0.1036    1.1661    9.5586 C.ar      1 <0>        -0.3412
     19 C14        -0.3003    0.9817   10.9244 C.ar      1 <0>         0.4686
     20 N4         -0.1450    2.0186   11.7452 N.ar      1 <0>        -0.5923
     21 C15         0.1898    3.2050   11.2799 C.ar      1 <0>         0.3946
     22 N5          0.3901    3.4182    9.9956 N.ar      1 <0>        -0.5459
     23 C16         0.3546    4.3498   12.2460 C.3       1 <0>        -0.0834
     24 N6         -0.6531   -0.2629   11.4224 N.pl3     1 <0>        -0.5966
     25 C17        -1.0693   -0.4249   12.8237 C.3       1 <0>         0.1300
     26 C18        -2.3993   -1.1856   12.8517 C.3       1 <0>         0.0401
     27 N7         -2.2595   -2.4378   12.0965 N.3       1 <0>        -0.5276
     28 C19        -1.9688   -2.1765   10.6804 C.3       1 <0>         0.0363
     29 C20        -0.6270   -1.4554   10.5619 C.3       1 <0>         0.1269
     30 C21        -3.4565   -3.2768   12.2420 C.3       1 <0>         0.0537
     31 C22        -3.1814   -4.6636   11.6572 C.3       1 <0>         0.0792
     32 O2         -2.1684   -5.3132   12.4279 O.3       1 <0>        -0.5589
     33 Cl1        -0.1672    9.6214    4.2392 Cl        1 <0>        -0.0433
     34 H1          2.8725    5.9906    1.1961 H         1 <0>         0.0754
     35 H2          4.4240    6.8020    1.5166 H         1 <0>         0.0754
     36 H3          3.4510    6.1760    2.8692 H         1 <0>         0.0676
     37 H4          3.7844    8.8450    0.3685 H         1 <0>         0.1337
     38 H5          2.6220   11.0077    0.5292 H         1 <0>         0.1350
     39 H6          0.8801   11.3508    2.2339 H         1 <0>         0.1371
     40 H7          1.1547    6.2381    3.4683 H         1 <0>         0.4085
     41 H8          1.2132    7.1127    8.0357 H         1 <0>         0.1884
     42 H9          0.4325    1.9325    7.1264 H         1 <0>         0.4387
     43 H10        -0.2220    0.3459    8.8660 H         1 <0>         0.1413
     44 H11         1.3882    4.3890   12.5900 H         1 <0>         0.0870
     45 H12         0.1021    5.2855   11.7470 H         1 <0>         0.0890
     46 H13        -0.3072    4.2031   13.0995 H         1 <0>         0.0846
     47 H14        -0.3126   -0.9904   13.3674 H         1 <0>         0.0744
     48 H15        -1.1984    0.5551   13.2831 H         1 <0>         0.1008
     49 H16        -2.6676   -1.4113   13.8837 H         1 <0>         0.0903
     50 H17        -3.1785   -0.5727   12.3986 H         1 <0>         0.0372
     51 H18        -1.9249   -3.1208   10.1378 H         1 <0>         0.0905
     52 H19        -2.7540   -1.5497   10.2576 H         1 <0>         0.0380
     53 H20        -0.4638   -1.1563    9.5265 H         1 <0>         0.0877
     54 H21         0.1731   -2.1219   10.8840 H         1 <0>         0.0802
     55 H22        -3.7077   -3.3713   13.2985 H         1 <0>         0.0861
     56 H23        -4.2894   -2.8169   11.7102 H         1 <0>         0.0487
     57 H24        -4.0952   -5.2572   11.6843 H         1 <0>         0.0498
     58 H25        -2.8443   -4.5626   10.6256 H         1 <0>         0.0451
     59 H26        -1.9426   -6.1994   12.1134 H         1 <0>         0.3762
@<TRIPOS>BOND
     1    1    2 1
     2    1   34 1
     3    1   35 1
     4    1   36 1
     5    2    7 ar
     6    2    3 ar
     7    3    4 ar
     8    3   37 1
     9    4    5 ar
    10    4   38 1
    11    5    6 ar
    12    5   39 1
    13    6    7 ar
    14    6   33 1
    15    7    8 1
    16    8    9 am
    17    8   40 1
    18    9   10 2
    19    9   11 1
    20   11   15 1
    21   11   12 2
    22   12   13 1
    23   12   41 1
    24   13   14 2
    25   14   15 1
    26   14   16 1
    27   16   17 1
    28   16   42 1
    29   17   18 ar
    30   17   22 ar
    31   18   43 1
    32   18   19 ar
    33   19   24 1
    34   19   20 ar
    35   20   21 ar
    36   21   23 1
    37   21   22 ar
    38   23   44 1
    39   23   45 1
    40   23   46 1
    41   24   29 1
    42   24   25 1
    43   25   26 1
    44   25   47 1
    45   25   48 1
    46   26   27 1
    47   26   49 1
    48   26   50 1
    49   27   28 1
    50   27   30 1
    51   28   29 1
    52   28   51 1
    53   28   52 1
    54   29   53 1
    55   29   54 1
    56   30   31 1
    57   30   55 1
    58   30   56 1
    59   31   32 1
    60   31   57 1
    61   31   58 1
    62   32   59 1
@<TRIPOS>MOLECULE
ZINC21982951
   61    64     0     0     0
SMALL
USER_CHARGES

@<TRIPOS>ATOM
      1 C1          3.2770    6.6581    1.8427 C.3       1 <0>        -0.1166
      2 C2          2.5837    7.9904    1.9667 C.ar      1 <0>        -0.0814
      3 C3          2.9012    9.0183    1.0999 C.ar      1 <0>        -0.1028
      4 C4          2.2660   10.2411    1.2125 C.ar      1 <0>        -0.0975
      5 C5          1.3108   10.4402    2.1928 C.ar      1 <0>        -0.1039
      6 C6          0.9888    9.4167    3.0634 C.ar      1 <0>        -0.0218
      7 C7          1.6215    8.1842    2.9485 C.ar      1 <0>         0.1327
      8 N1          1.2933    7.1433    3.8237 N.am      1 <0>        -0.6648
      9 C8          1.3141    7.3507    5.1552 C.2       1 <0>         0.5983
     10 O1          1.5193    8.4677    5.5943 O.2       1 <0>        -0.4690
     11 C9          1.0903    6.2342    6.0727 C.2       1 <0>        -0.2500
     12 C10         1.0624    6.2188    7.4604 C.2       1 <0>         0.1439
     13 N2          0.8362    5.0594    8.0246 N.2       1 <0>        -0.4984
     14 C11         0.6458    3.9675    7.3056 C.2       1 <0>         0.2172
     15 S1          0.7692    4.5136    5.7185 S.3       1 <0>         0.2242
     16 N3          0.3986    2.6839    7.7506 N.pl3     1 <0>        -0.5513
     17 C12         0.2203    2.4413    9.1063 C.ar      1 <0>         0.5098
     18 C13        -0.1335    1.1734    9.5556 C.ar      1 <0>        -0.3097
     19 C14        -0.3003    0.9817   10.9244 C.ar      1 <0>         0.4927
     20 N4         -0.1163    2.0116   11.7481 N.ar      1 <0>        -0.5695
     21 C15         0.2187    3.1980   11.2828 C.ar      1 <0>         0.4589
     22 N5          0.3911    3.4178    9.9956 N.ar      1 <0>        -0.4762
     23 C16         0.4165    4.3348   12.2521 C.3       1 <0>        -0.1303
     24 N6         -0.6531   -0.2629   11.4224 N.pl3     1 <0>        -0.6123
     25 C17        -0.9643   -0.4465   12.8484 C.3       1 <0>         0.0782
     26 C18        -2.3027   -1.1838   12.9625 C.3       1 <0>        -0.0204
     27 N7         -2.2406   -2.4311   12.1903 N.4       1 <0>        -0.3852
     28 C19        -2.0770   -2.1279   10.7629 C.3       1 <0>        -0.0304
     29 C20        -0.7330   -1.4363   10.5388 C.3       1 <0>         0.0932
     30 C21        -3.4827   -3.1900   12.3886 C.3       1 <0>        -0.0061
     31 C22        -3.3702   -4.5448   11.6865 C.3       1 <0>         0.0434
     32 O2         -2.3479   -5.3224   12.3128 O.3       1 <0>        -0.5819
     33 Cl1        -0.2098    9.6671    4.2940 Cl        1 <0>        -0.0466
     34 H1          2.7157    6.0184    1.1617 H         1 <0>         0.0770
     35 H2          4.2843    6.8074    1.4538 H         1 <0>         0.0791
     36 H3          3.3325    6.1847    2.8230 H         1 <0>         0.0631
     37 H4          3.6468    8.8665    0.3335 H         1 <0>         0.1380
     38 H5          2.5166   11.0428    0.5336 H         1 <0>         0.1401
     39 H6          0.8165   11.3966    2.2780 H         1 <0>         0.1410
     40 H7          1.0508    6.2723    3.4722 H         1 <0>         0.4077
     41 H8          1.2191    7.1146    8.0429 H         1 <0>         0.2016
     42 H9          0.3494    1.9517    7.1163 H         1 <0>         0.4545
     43 H10        -0.2756    0.3590    8.8607 H         1 <0>         0.1860
     44 H11         1.4581    4.3621   12.5724 H         1 <0>         0.1309
     45 H12         0.1613    5.2760   11.7653 H         1 <0>         0.1358
     46 H13        -0.2267    4.1885   13.1199 H         1 <0>         0.1083
     47 H14        -0.1795   -1.0367   13.3215 H         1 <0>         0.1249
     48 H15        -1.0392    0.5259   13.3352 H         1 <0>         0.1232
     49 H16        -2.5028   -1.4138   14.0090 H         1 <0>         0.1602
     50 H17        -3.0999   -0.5526   12.5701 H         1 <0>         0.1410
     51 H18        -2.1110   -3.0537   10.1885 H         1 <0>         0.1585
     52 H19        -2.8811   -1.4682   10.4370 H         1 <0>         0.1418
     53 H20        -0.6550   -1.1179    9.4992 H         1 <0>         0.1416
     54 H21         0.0756   -2.1281   10.7747 H         1 <0>         0.1211
     55 H22        -3.6469   -3.3459   13.4548 H         1 <0>         0.1465
     56 H23        -4.3202   -2.6321   11.9697 H         1 <0>         0.1464
     57 H24        -4.3221   -5.0710   11.7578 H         1 <0>         0.1026
     58 H25        -3.1180   -4.3904   10.6374 H         1 <0>         0.0719
     59 H26        -2.2211   -6.1961   11.9183 H         1 <0>         0.4154
     60 H27        -0.2308    1.8869   12.7032 H         1 <0>         0.4393
     61 H28        -1.4578   -2.9831   12.5075 H         1 <0>         0.4359
@<TRIPOS>BOND
     1    1    2 1
     2    1   34 1
     3    1   35 1
     4    1   36 1
     5    2    7 ar
     6    2    3 ar
     7    3    4 ar
     8    3   37 1
     9    4    5 ar
    10    4   38 1
    11    5    6 ar
    12    5   39 1
    13    6    7 ar
    14    6   33 1
    15    7    8 1
    16    8    9 am
    17    8   40 1
    18    9   10 2
    19    9   11 1
    20   11   15 1
    21   11   12 2
    22   12   13 1
    23   12   41 1
    24   13   14 2
    25   14   15 1
    26   14   16 1
    27   16   17 1
    28   16   42 1
    29   17   18 ar
    30   17   22 ar
    31   18   43 1
    32   18   19 ar
    33   19   24 1
    34   19   20 ar
    35   20   60 1
    36   20   21 ar
    37   21   23 1
    38   21   22 ar
    39   23   44 1
    40   23   45 1
    41   23   46 1
    42   24   29 1
    43   24   25 1
    44   25   26 1
    45   25   47 1
    46   25   48 1
    47   26   27 1
    48   26   49 1
    49   26   50 1
    50   27   28 1
    51   27   30 1
    52   27   61 1
    53   28   29 1
    54   28   51 1
    55   28   52 1
    56   29   53 1
    57   29   54 1
    58   30   31 1
    59   30   55 1
    60   30   56 1
    61   31   32 1
    62   31   57 1
    63   31   58 1
    64   32   59 1
@<TRIPOS>MOLECULE
ZINC03814434
   62    69     0     0     0
SMALL
USER_CHARGES

@<TRIPOS>ATOM
      1 C1         -0.1295    1.5952   -0.2973 C.3       1 <0>        -0.1687
      2 C2         -0.0862    0.0696   -0.1900 C.3       1 <0>         0.3342
      3 C3          0.5692   -0.4501   -1.4637 C.3       1 <0>         0.0405
      4 H1          1.4796    0.1159   -1.6612 H         1 <0>         0.1372
      5 C4          0.9167   -1.9328   -1.2889 C.3       1 <0>        -0.0061
      6 H2          1.3963   -2.3075   -2.1932 H         1 <0>         0.1555
      7 C5          1.8785   -2.0596   -0.1021 C.3       1 <0>        -0.1827
      8 C6          1.2061   -1.5198    1.1541 C.3       1 <0>         0.2999
      9 H3          1.9797   -1.4243    1.9161 H         1 <0>         0.1550
     10 O1          0.6555   -0.2442    0.9666 O.3       1 <0>        -0.3234
     11 N1          0.2189   -2.4746    1.6600 N.pl3     1 <0>        -0.5366
     12 C7          0.4705   -3.5508    2.4739 C.ar      1 <0>         0.1469
     13 C8          1.6649   -4.0152    3.0240 C.ar      1 <0>        -0.1522
     14 C9          1.5948   -5.1456    3.8201 C.ar      1 <0>        -0.0582
     15 C10         0.4006   -5.7997    4.0696 C.ar      1 <0>        -0.1457
     16 C11        -0.7984   -5.3597    3.5358 C.ar      1 <0>        -0.0280
     17 C12        -0.7487   -4.2198    2.7307 C.ar      1 <0>        -0.1131
     18 C13        -1.7893   -3.4830    2.0197 C.ar      1 <0>         0.0276
     19 C14        -1.1442   -2.4197    1.3841 C.ar      1 <0>         0.0376
     20 C15        -1.8806   -1.5095    0.6175 C.ar      1 <0>         0.0894
     21 N2         -1.4718   -0.3951   -0.1095 N.pl3     1 <0>        -0.5183
     22 C16        -2.5611    0.1913   -0.7090 C.ar      1 <0>         0.1618
     23 C17        -2.6521    1.3277   -1.5118 C.ar      1 <0>        -0.1305
     24 C18        -3.9109    1.6745   -1.9733 C.ar      1 <0>        -0.0737
     25 C19        -5.0393    0.9368   -1.6616 C.ar      1 <0>        -0.1358
     26 C20        -4.9745   -0.1955   -0.8662 C.ar      1 <0>        -0.0503
     27 C21        -3.7147   -0.5596   -0.3919 C.ar      1 <0>        -0.1042
     28 C22        -3.2693   -1.6660    0.4845 C.ar      1 <0>        -0.0360
     29 C23        -3.9084   -2.7313    1.1102 C.ar      1 <0>        -0.0288
     30 C24        -3.1873   -3.6421    1.8754 C.ar      1 <0>        -0.1255
     31 C25        -4.1221   -4.6480    2.4030 C.2       1 <0>         0.5632
     32 O2         -3.8062   -5.5851    3.1110 O.2       1 <0>        -0.5106
     33 N3         -5.3744   -4.3851    1.9926 N.am      1 <0>        -0.7162
     34 C26        -5.3495   -3.1771    1.1601 C.3       1 <0>         0.1358
     35 N4         -0.3067   -2.7008   -1.0216 N.4       1 <0>        -0.5252
     36 C27         0.0145   -4.1336   -0.9773 C.3       1 <0>        -0.0497
     37 O3         -0.3340   -0.2979   -2.5607 O.3       1 <0>        -0.3614
     38 C28         0.3101   -0.0933   -3.8198 C.3       1 <0>         0.0162
     39 H4          0.8261    2.0094    0.0240 H         1 <0>         0.0984
     40 H5         -0.3202    1.8814   -1.3317 H         1 <0>         0.1036
     41 H6         -0.9255    1.9818    0.3392 H         1 <0>         0.0921
     42 H7          2.1370   -3.1081    0.0458 H         1 <0>         0.1233
     43 H8          2.7835   -1.4869   -0.3048 H         1 <0>         0.1455
     44 H9          2.6036   -3.5149    2.8368 H         1 <0>         0.1365
     45 H10         2.5026   -5.5304    4.2610 H         1 <0>         0.1359
     46 H11         0.4045   -6.6780    4.6980 H         1 <0>         0.1352
     47 H12        -1.7278   -5.8736    3.7323 H         1 <0>         0.1600
     48 H13        -1.7792    1.9122   -1.7624 H         1 <0>         0.1440
     49 H14        -4.0153    2.5500   -2.5970 H         1 <0>         0.1336
     50 H15        -5.9967    1.2527   -2.0488 H         1 <0>         0.1332
     51 H16        -5.8575   -0.7687   -0.6249 H         1 <0>         0.1415
     52 H17        -6.1628   -4.9065    2.2103 H         1 <0>         0.4348
     53 H18        -5.9671   -2.3994    1.6094 H         1 <0>         0.1115
     54 H19        -5.7060   -3.4063    0.1559 H         1 <0>         0.1103
     55 H20        -0.6958   -2.4158   -0.1353 H         1 <0>         0.4186
     56 H21         0.4349   -4.4415   -1.9347 H         1 <0>         0.1256
     57 H22         0.7403   -4.3189   -0.1854 H         1 <0>         0.1191
     58 H23        -0.8932   -4.7035   -0.7789 H         1 <0>         0.1256
     59 H24         0.9168    0.8112   -3.7748 H         1 <0>         0.0633
     60 H25         0.9482   -0.9479   -4.0446 H         1 <0>         0.0514
     61 H26        -0.4433    0.0130   -4.6003 H         1 <0>         0.1100
     62 H27        -0.9785   -2.5293   -1.7546 H         1 <0>         0.4274
@<TRIPOS>BOND
     1    1    2 1
     2    1   39 1
     3    1   40 1
     4    1   41 1
     5    2   10 1
     6    2   21 1
     7    2    3 1
     8    3    4 1
     9    3    5 1
    10    3   37 1
    11    5    6 1
    12    5    7 1
    13    5   35 1
    14    7    8 1
    15    7   42 1
    16    7   43 1
    17    8    9 1
    18    8   10 1
    19    8   11 1
    20   11   19 1
    21   11   12 1
    22   12   17 ar
    23   12   13 ar
    24   13   14 ar
    25   13   44 1
    26   14   15 ar
    27   14   45 1
    28   15   16 ar
    29   15   46 1
    30   16   17 ar
    31   16   47 1
    32   17   18 1
    33   18   30 ar
    34   18   19 ar
    35   19   20 ar
    36   20   28 ar
    37   20   21 1
    38   21   22 1
    39   22   27 ar
    40   22   23 ar
    41   23   24 ar
    42   23   48 1
    43   24   25 ar
    44   24   49 1
    45   25   26 ar
    46   25   50 1
    47   26   27 ar
    48   26   51 1
    49   27   28 1
    50   28   29 ar
    51   29   34 1
    52   29   30 ar
    53   30   31 1
    54   31   32 2
    55   31   33 am
    56   33   34 1
    57   33   52 1
    58   34   53 1
    59   34   54 1
    60   35   36 1
    61   35   55 1
    62   35   62 1
    63   36   56 1
    64   36   57 1
    65   36   58 1
    66   37   38 1
    67   38   59 1
    68   38   60 1
    69   38   61 1
@<TRIPOS>MOLECULE
ZINC58660958
   57    60     0     0     0
SMALL
USER_CHARGES

@<TRIPOS>ATOM
      1 C1          0.3721    1.3777   -0.3055 C.3       1 <0>        -0.1988
      2 C2          0.1634   -0.1084   -0.0071 C.3       1 <0>        -0.0200
      3 N1          0.9255   -0.4786    1.1929 N.4       1 <0>        -0.3758
      4 C3          0.1113   -0.2220    2.3885 C.3       1 <0>         0.0685
      5 C4         -0.1137    1.2609    2.5342 C.2       1 <0>         0.0656
      6 C5         -1.2571    1.8625    2.0543 C.2       1 <0>        -0.2833
      7 C6         -1.3356    3.2123    2.2516 C.2       1 <0>         0.0494
      8 S1          0.0999    3.5603    3.0483 S.3       1 <0>         0.4981
      9 N2          0.7669    2.0280    3.1266 N.2       1 <0>        -0.5011
     10 N3         -2.3559    4.0847    1.8824 N.pl3     1 <0>        -0.5737
     11 C7         -2.2517    5.4363    2.1737 C.2       1 <0>         0.4571
     12 C8         -3.2900    6.3273    1.8053 C.2       1 <0>         0.1343
     13 N4         -4.4479    6.1600    1.1891 N.2       1 <0>        -0.4484
     14 C9         -5.0665    7.3337    1.0833 C.2       1 <0>         0.0363
     15 C10        -4.2758    8.2924    1.6534 C.2       1 <0>         0.0797
     16 N5         -3.1536    7.6597    2.1100 N.pl3     1 <0>        -0.3300
     17 C11        -2.0229    8.0863    2.7582 C.2       1 <0>        -0.0245
     18 C12        -1.0629    7.1998    3.0878 C.2       1 <0>         0.1199
     19 N6         -1.1882    5.8999    2.8001 N.2       1 <0>        -0.5252
     20 C13         0.1747    7.6823    3.7995 C.3       1 <0>        -0.0983
     21 C14        -4.5771    9.7385    1.7559 C.2       1 <0>        -0.1867
     22 C15        -5.7040   10.3628    1.3017 C.2       1 <0>         0.1025
     23 N7         -5.5866   11.6761    1.5904 N.pl3     1 <0>        -0.4612
     24 H1         -6.2389   12.3640    1.3850 H         1 <0>         0.4502
     25 N8         -4.3612   11.8742    2.2379 N.2       1 <0>        -0.2752
     26 C16        -3.7561   10.7211    2.3456 C.2       1 <0>         0.0592
     27 C17         1.2712   -1.9051    1.1328 C.3       1 <0>         0.0542
     28 C18         2.0649   -2.2906    2.3827 C.3       1 <0>        -0.1727
     29 C19        -0.0105   -2.7380    1.0654 C.3       1 <0>        -0.1711
     30 C20         2.1191   -2.1723   -0.1124 C.3       1 <0>         0.0671
     31 O1          2.4554   -3.5599   -0.1709 O.3       1 <0>        -0.5516
     32 H2          1.4092    1.5481   -0.5946 H         1 <0>         0.0782
     33 H3         -0.2865    1.6808   -1.1195 H         1 <0>         0.1048
     34 H4          0.1423    1.9628    0.5849 H         1 <0>         0.0876
     35 H5         -0.8962   -0.2997    0.1620 H         1 <0>         0.1316
     36 H6          0.5090   -0.7011   -0.8542 H         1 <0>         0.1322
     37 H7         -0.8494   -0.7273    2.2891 H         1 <0>         0.1474
     38 H8          0.6307   -0.5990    3.2695 H         1 <0>         0.1497
     39 H9         -2.0370    1.3055    1.5563 H         1 <0>         0.1608
     40 H10        -3.1397    3.7469    1.4214 H         1 <0>         0.4425
     41 H11        -6.0298    7.5005    0.6244 H         1 <0>         0.1933
     42 H12        -1.9019    9.1310    3.0039 H         1 <0>         0.1754
     43 H13         0.0146    7.6388    4.8768 H         1 <0>         0.0884
     44 H14         1.0189    7.0469    3.5317 H         1 <0>         0.0868
     45 H15         0.3858    8.7103    3.5047 H         1 <0>         0.0852
     46 H16        -6.5373    9.8913    0.8020 H         1 <0>         0.1909
     47 H17        -2.7932   10.5508    2.8043 H         1 <0>         0.1818
     48 H18         1.4608   -2.1003    3.2698 H         1 <0>         0.0831
     49 H19         2.3214   -3.3491    2.3381 H         1 <0>         0.1139
     50 H20         2.9779   -1.6972    2.4307 H         1 <0>         0.0806
     51 H21        -0.5759   -2.4633    0.1749 H         1 <0>         0.0798
     52 H22         0.2460   -3.7964    1.0208 H         1 <0>         0.1124
     53 H23        -0.6146   -2.5476    1.9525 H         1 <0>         0.0819
     54 H24         1.5537   -1.8976   -1.0029 H         1 <0>         0.0698
     55 H25         3.0322   -1.5789   -0.0644 H         1 <0>         0.0683
     56 H26         2.9938   -3.8022   -0.9368 H         1 <0>         0.4046
     57 H27         1.7707    0.0707    1.2374 H         1 <0>         0.4245
@<TRIPOS>BOND
     1    1    2 1
     2    1   32 1
     3    1   33 1
     4    1   34 1
     5    2    3 1
     6    2   35 1
     7    2   36 1
     8    3    4 1
     9    3   27 1
    10    3   57 1
    11    4    5 1
    12    4   37 1
    13    4   38 1
    14    5    9 2
    15    5    6 1
    16    6    7 2
    17    6   39 1
    18    7    8 1
    19    7   10 1
    20    8    9 1
    21   10   11 1
    22   10   40 1
    23   11   19 2
    24   11   12 1
    25   12   16 1
    26   12   13 2
    27   13   14 1
    28   14   15 2
    29   14   41 1
    30   15   16 1
    31   15   21 1
    32   16   17 1
    33   17   18 2
    34   17   42 1
    35   18   19 1
    36   18   20 1
    37   20   43 1
    38   20   44 1
    39   20   45 1
    40   21   26 1
    41   21   22 2
    42   22   23 1
    43   22   46 1
    44   23   24 1
    45   23   25 1
    46   25   26 2
    47   26   47 1
    48   27   28 1
    49   27   29 1
    50   27   30 1
    51   28   48 1
    52   28   49 1
    53   28   50 1
    54   29   51 1
    55   29   52 1
    56   29   53 1
    57   30   31 1
    58   30   54 1
    59   30   55 1
    60   31   56 1
@<TRIPOS>MOLECULE
ZINC14852066
   48    49     0     0     0
SMALL
USER_CHARGES

@<TRIPOS>ATOM
      1 C1         -0.0187    1.5258    0.0104 C.3       1 <0>        -0.1902
      2 C2          0.0021   -0.0041    0.0020 C.3       1 <0>         0.1099
      3 H1         -1.0213   -0.3792    0.0098 H         1 <0>         0.1225
      4 C3          0.7117   -0.4941   -1.2603 C.3       1 <0>        -0.1315
      5 C4          1.3803    0.6570   -1.9583 C.2       1 <0>        -0.0692
      6 C5          2.7017    0.8181   -1.8493 C.2       1 <0>        -0.2242
      7 C6          3.3680    1.9252   -2.5435 C.2       1 <0>         0.3696
      8 O1          2.7115    2.7060   -3.2003 O.2       1 <0>        -0.4479
      9 C7          4.8559    2.0998   -2.4470 C.3       1 <0>         0.0704
     10 H2          5.3262    1.1283   -2.2950 H         1 <0>         0.0907
     11 C8          5.1895    3.0179   -1.2680 C.3       1 <0>         0.1256
     12 H3          5.7479    3.8823   -1.6273 H         1 <0>         0.0798
     13 C9          6.0360    2.2514   -0.2480 C.3       1 <0>        -0.1248
     14 C10         5.2825    2.1507    1.0538 C.2       1 <0>        -0.1283
     15 C11         4.6042    1.0526    1.3362 C.2       1 <0>        -0.1087
     16 C12         3.8388    0.8902    2.5804 C.ar      1 <0>         0.0721
     17 C13         4.3861    1.3164    3.7898 C.ar      1 <0>        -0.1728
     18 C14         3.6817    1.1455    4.9738 C.ar      1 <0>         0.1859
     19 C15         2.4255    0.5534    4.9682 C.ar      1 <0>        -0.2571
     20 C16         1.8630    0.1324    3.7761 C.ar      1 <0>         0.2113
     21 C17         2.5606    0.2946    2.5690 C.ar      1 <0>        -0.2000
     22 C18         1.9781   -0.1421    1.2956 C.2       1 <0>         0.5268
     23 O2          2.6973   -0.2041    0.3174 O.2       1 <0>        -0.4835
     24 O3          0.6878   -0.4748    1.1642 O.3       1 <0>        -0.3491
     25 O4          0.6328   -0.4392    3.7740 O.3       1 <0>        -0.4807
     26 O5          4.2252    1.5601    6.1463 O.3       1 <0>        -0.3078
     27 C19         3.4497    1.3557    7.3291 C.3       1 <0>         0.0221
     28 O6          3.9788    3.4568   -0.6486 O.3       1 <0>        -0.5534
     29 O7          5.3461    2.6819   -3.6565 O.3       1 <0>        -0.5470
     30 H4          1.0039    1.9031    0.0027 H         1 <0>         0.0708
     31 H5         -0.5459    1.8868   -0.8726 H         1 <0>         0.0797
     32 H6         -0.5289    1.8773    0.9072 H         1 <0>         0.0648
     33 H7          1.4619   -1.2365   -0.9879 H         1 <0>         0.1008
     34 H8         -0.0172   -0.9492   -1.9309 H         1 <0>         0.0831
     35 H9          0.7985    1.3591   -2.5388 H         1 <0>         0.1164
     36 H10         3.2734    0.1369   -1.2412 H         1 <0>         0.1643
     37 H11         6.2432    1.2504   -0.6265 H         1 <0>         0.0830
     38 H12         6.9752    2.7800   -0.0845 H         1 <0>         0.0857
     39 H13         5.2989    2.9862    1.7379 H         1 <0>         0.1128
     40 H14         4.6552    0.2260    0.6308 H         1 <0>         0.1420
     41 H15         5.3612    1.7805    3.8056 H         1 <0>         0.1441
     42 H16         1.8873    0.4210    5.8951 H         1 <0>         0.1447
     43 H17        -0.0933    0.1904    3.6668 H         1 <0>         0.4007
     44 H18         2.5035    1.8894    7.2399 H         1 <0>         0.0607
     45 H19         3.2556    0.2907    7.4566 H         1 <0>         0.0615
     46 H20         3.9986    1.7309    8.1928 H         1 <0>         0.1065
     47 H21         4.1144    4.0435    0.1081 H         1 <0>         0.3819
     48 H22         5.1714    2.1527   -4.4467 H         1 <0>         0.3861
@<TRIPOS>BOND
     1    1    2 1
     2    1   30 1
     3    1   31 1
     4    1   32 1
     5    2    3 1
     6    2   24 1
     7    2    4 1
     8    4    5 1
     9    4   33 1
    10    4   34 1
    11    5    6 2
    12    5   35 1
    13    6    7 1
    14    6   36 1
    15    7    8 2
    16    7    9 1
    17    9   10 1
    18    9   11 1
    19    9   29 1
    20   11   12 1
    21   11   13 1
    22   11   28 1
    23   13   14 1
    24   13   37 1
    25   13   38 1
    26   14   15 2
    27   14   39 1
    28   15   16 1
    29   15   40 1
    30   16   21 ar
    31   16   17 ar
    32   17   18 ar
    33   17   41 1
    34   18   19 ar
    35   18   26 1
    36   19   20 ar
    37   19   42 1
    38   20   21 ar
    39   20   25 1
    40   21   22 1
    41   22   23 2
    42   22   24 1
    43   25   43 1
    44   26   27 1
    45   27   44 1
    46   27   45 1
    47   27   46 1
    48   28   47 1
    49   29   48 1
@<TRIPOS>MOLECULE
ZINC14852066
   48    49     0     0     0
SMALL
USER_CHARGES

@<TRIPOS>ATOM
      1 C1         -0.0187    1.5258    0.0104 C.3       1 <0>        -0.1782
      2 C2          0.0021   -0.0041    0.0020 C.3       1 <0>         0.1059
      3 H1         -1.0202   -0.3821    0.0097 H         1 <0>         0.1065
      4 C3          0.7214   -0.4993   -1.2571 C.3       1 <0>        -0.2337
      5 C4          0.9926    0.6676   -2.1719 C.2       1 <0>        -0.0239
      6 C5          2.2327    0.8804   -2.6274 C.2       1 <0>        -0.2524
      7 C6          3.3216   -0.0106   -2.2391 C.2       1 <0>         0.3565
      8 O1          3.0972   -0.9579   -1.5151 O.2       1 <0>        -0.3921
      9 C7          4.7243    0.2403   -2.7329 C.3       1 <0>         0.0775
     10 H2          4.6903    0.5739   -3.7700 H         1 <0>         0.0902
     11 C8          5.5353   -1.0528   -2.6394 C.3       1 <0>         0.1183
     12 H3          4.8562   -1.9036   -2.5842 H         1 <0>         0.0767
     13 C9          6.4150   -1.0217   -1.3875 C.3       1 <0>        -0.1211
     14 C10         5.7492   -1.8245   -0.2972 C.2       1 <0>        -0.1407
     15 C11         4.7118   -1.3199    0.3472 C.2       1 <0>        -0.1201
     16 C12         4.0408   -2.0709    1.4214 C.ar      1 <0>         0.0738
     17 C13         4.7005   -3.0796    2.1095 C.ar      1 <0>        -0.1758
     18 C14         4.0463   -3.7677    3.1229 C.ar      1 <0>         0.1867
     19 C15         2.7421   -3.4458    3.4552 C.ar      1 <0>        -0.2633
     20 C16         2.0660   -2.4427    2.7907 C.ar      1 <0>         0.2133
     21 C17         2.7063   -1.7502    1.7571 C.ar      1 <0>        -0.2009
     22 C18         2.0150   -0.7034    1.0028 C.2       1 <0>         0.5163
     23 O2          2.6441   -0.0218    0.2169 O.2       1 <0>        -0.4694
     24 O3          0.6975   -0.4800    1.1622 O.3       1 <0>        -0.3396
     25 O4          0.7918   -2.1312    3.1363 O.3       1 <0>        -0.4793
     26 O5          4.6885   -4.7601    3.7898 O.3       1 <0>        -0.3082
     27 C19         3.9578   -5.4273    4.8208 C.3       1 <0>         0.0226
     28 O6          6.3629   -1.1796   -3.7975 O.3       1 <0>        -0.5677
     29 O7          5.3395    1.2482   -1.9281 O.3       1 <0>        -0.5329
     30 H4          1.0039    1.9031    0.0027 H         1 <0>         0.0702
     31 H5         -0.5459    1.8868   -0.8726 H         1 <0>         0.0718
     32 H6         -0.5289    1.8773    0.9072 H         1 <0>         0.0632
     33 H7          1.6646   -0.9678   -0.9763 H         1 <0>         0.1854
     34 H8          0.0935   -1.2264   -1.7721 H         1 <0>         0.0805
     35 H9          0.1918    1.3244   -2.4742 H         1 <0>         0.1212
     36 H10         2.4263    1.7062   -3.2931 H         1 <0>         0.1283
     37 H11         7.3892   -1.4544   -1.6156 H         1 <0>         0.0742
     38 H12         6.5412    0.0090   -1.0560 H         1 <0>         0.1072
     39 H13         6.1067   -2.8144   -0.0623 H         1 <0>         0.1057
     40 H14         4.3547   -0.3298    0.0969 H         1 <0>         0.1711
     41 H15         5.7205   -3.3292    1.8570 H         1 <0>         0.1430
     42 H16         2.2456   -3.9881    4.2463 H         1 <0>         0.1411
     43 H17         0.7249   -1.4505    3.8198 H         1 <0>         0.3997
     44 H18         3.6630   -4.7055    5.5826 H         1 <0>         0.0602
     45 H19         3.0675   -5.8894    4.3943 H         1 <0>         0.0606
     46 H20         4.5854   -6.1958    5.2719 H         1 <0>         0.1057
     47 H21         6.9070   -1.9789   -3.8064 H         1 <0>         0.3845
     48 H22         4.8770    2.0973   -1.9394 H         1 <0>         0.3814
@<TRIPOS>BOND
     1    1    2 1
     2    1   30 1
     3    1   31 1
     4    1   32 1
     5    2    3 1
     6    2   24 1
     7    2    4 1
     8    4    5 1
     9    4   33 1
    10    4   34 1
    11    5    6 2
    12    5   35 1
    13    6    7 1
    14    6   36 1
    15    7    8 2
    16    7    9 1
    17    9   10 1
    18    9   11 1
    19    9   29 1
    20   11   12 1
    21   11   13 1
    22   11   28 1
    23   13   14 1
    24   13   37 1
    25   13   38 1
    26   14   15 2
    27   14   39 1
    28   15   16 1
    29   15   40 1
    30   16   21 ar
    31   16   17 ar
    32   17   18 ar
    33   17   41 1
    34   18   19 ar
    35   18   26 1
    36   19   20 ar
    37   19   42 1
    38   20   21 ar
    39   20   25 1
    40   21   22 1
    41   22   23 2
    42   22   24 1
    43   25   43 1
    44   26   27 1
    45   27   44 1
    46   27   45 1
    47   27   46 1
    48   28   47 1
    49   29   48 1
@<TRIPOS>MOLECULE
ZINC66080466
   42    43     0     0     0
SMALL
USER_CHARGES

@<TRIPOS>ATOM
      1 C1         -0.3101    1.5787   -1.0405 C.3       1 <0>        -0.1668
      2 C2         -0.3320    0.0570   -1.1974 C.3       1 <0>         0.1311
      3 N1         -1.5362   -0.4823   -0.5606 N.am      1 <0>        -0.7393
      4 C3         -1.7687   -1.8098   -0.5740 C.2       1 <0>         0.7058
      5 O1         -0.9789   -2.5599   -1.1145 O.2       1 <0>        -0.5690
      6 N2         -2.8765   -2.3058    0.0118 N.am      1 <0>        -0.6835
      7 C4         -3.1662   -3.6741   -0.0823 C.ar      1 <0>         0.1845
      8 C5         -2.1350   -4.6035   -0.0898 C.ar      1 <0>        -0.0954
      9 C6         -2.4208   -5.9513   -0.1820 C.ar      1 <0>        -0.0793
     10 C7         -3.7385   -6.3775   -0.2673 C.ar      1 <0>         0.0822
     11 C8         -4.7700   -5.4501   -0.2604 C.ar      1 <0>        -0.0847
     12 C9         -4.4858   -4.1012   -0.1624 C.ar      1 <0>        -0.0559
     13 Cl1        -5.7767   -2.9406   -0.1465 Cl        1 <0>        -0.0562
     14 O2         -4.0188   -7.7048   -0.3580 O.3       1 <0>        -0.2053
     15 C10        -3.9030   -8.4569    0.7618 C.ar      1 <0>         0.4177
     16 C11        -4.2732   -9.8122    0.7537 C.ar      1 <0>        -0.2481
     17 C12        -4.1301  -10.5425    1.9485 C.ar      1 <0>         0.4947
     18 N3         -3.6545   -9.9229    3.0250 N.ar      1 <0>        -0.5919
     19 C13        -3.3207   -8.6491    2.9830 C.ar      1 <0>         0.3938
     20 N4         -3.4323   -7.9276    1.8856 N.ar      1 <0>        -0.6014
     21 N5         -4.4780  -11.8787    2.0022 N.pl3     1 <0>        -0.8212
     22 C14        -4.7952  -10.4490   -0.4668 C.2       1 <0>         0.1542
     23 N6         -4.8272   -9.7871   -1.5796 N.2       1 <0>        -0.3129
     24 O3         -5.3292  -10.3995   -2.7535 O.3       1 <0>        -0.2467
     25 C15        -5.3053   -9.5545   -3.9057 C.3       1 <0>         0.0475
     26 H1          0.5858    1.9800   -1.5143 H         1 <0>         0.0781
     27 H2         -1.1939    2.0056   -1.5146 H         1 <0>         0.0627
     28 H3         -0.3066    1.8348    0.0190 H         1 <0>         0.0628
     29 H4         -0.3356   -0.1991   -2.2568 H         1 <0>         0.0697
     30 H5          0.5518   -0.3699   -0.7233 H         1 <0>         0.0700
     31 H6         -2.1662    0.1161   -0.1294 H         1 <0>         0.3993
     32 H7         -3.4733   -1.7161    0.4985 H         1 <0>         0.4102
     33 H8         -1.1091   -4.2723   -0.0238 H         1 <0>         0.1584
     34 H9         -1.6183   -6.6740   -0.1882 H         1 <0>         0.1369
     35 H10        -5.7954   -5.7824   -0.3274 H         1 <0>         0.1437
     36 H11        -2.9380   -8.1809    3.8779 H         1 <0>         0.2061
     37 H12        -4.7550  -12.3405    1.1954 H         1 <0>         0.4144
     38 H13        -4.4452  -12.3549    2.8466 H         1 <0>         0.4161
     39 H14        -5.1515  -11.4680   -0.4342 H         1 <0>         0.1202
     40 H15        -4.2787   -9.2532   -4.1140 H         1 <0>         0.0507
     41 H16        -5.7057  -10.0967   -4.7623 H         1 <0>         0.0961
     42 H17        -5.9132   -8.6691   -3.7196 H         1 <0>         0.0507
@<TRIPOS>BOND
     1    1    2 1
     2    1   26 1
     3    1   27 1
     4    1   28 1
     5    2    3 1
     6    2   29 1
     7    2   30 1
     8    3    4 am
     9    3   31 1
    10    4    5 2
    11    4    6 am
    12    6    7 1
    13    6   32 1
    14    7   12 ar
    15    7    8 ar
    16    8    9 ar
    17    8   33 1
    18    9   10 ar
    19    9   34 1
    20   10   11 ar
    21   10   14 1
    22   11   12 ar
    23   11   35 1
    24   12   13 1
    25   14   15 1
    26   15   20 ar
    27   15   16 ar
    28   16   17 ar
    29   16   22 1
    30   17   18 ar
    31   17   21 1
    32   18   19 ar
    33   19   20 ar
    34   19   36 1
    35   21   37 1
    36   21   38 1
    37   22   23 2
    38   22   39 1
    39   23   24 1
    40   24   25 1
    41   25   40 1
    42   25   41 1
    43   25   42 1
@<TRIPOS>MOLECULE
ZINC34842284
   60    64     0     0     0
SMALL
USER_CHARGES

@<TRIPOS>ATOM
      1 C1         -0.0178    1.4608    0.0101 C.3       1 <0>         0.0965
      2 N1          0.0021   -0.0041    0.0020 N.pl3     1 <0>        -0.3671
      3 C2          0.0078   -0.7883   -1.0945 C.2       1 <0>         0.0815
      4 C3          0.0278   -2.0866   -0.6734 C.2       1 <0>        -0.2075
      5 C4          0.0343   -2.0758    0.7354 C.2       1 <0>         0.0682
      6 N2          0.0245   -0.8308    1.1317 N.2       1 <0>        -0.2890
      7 C5          0.0397   -3.2901   -1.5414 C.ar      1 <0>        -0.0366
      8 C6          0.0543   -4.5644   -0.9807 C.ar      1 <0>        -0.0385
      9 C7          0.0802   -5.6649   -1.8426 C.ar      1 <0>        -0.1799
     10 C8          0.1229   -5.4562   -3.2387 C.ar      1 <0>         0.1790
     11 C9          0.2532   -6.5705   -4.1609 C.2       1 <0>        -0.0928
     12 C10        -0.3414   -7.7510   -4.0859 C.2       1 <0>        -0.0827
     13 C11        -1.2649   -8.2108   -3.0641 C.ar      1 <0>        -0.0205
     14 C12        -2.3865   -8.9737   -3.4314 C.ar      1 <0>        -0.0788
     15 C13        -3.2359   -9.4502   -2.4792 C.ar      1 <0>        -0.1379
     16 C14        -3.0081   -9.1944   -1.1257 C.ar      1 <0>         0.1494
     17 C15        -1.9219   -8.4304   -0.7344 C.ar      1 <0>        -0.0939
     18 C16        -1.0553   -7.9152   -1.6995 C.ar      1 <0>        -0.1193
     19 C17         0.0500   -7.0298   -1.2992 C.2       1 <0>         0.4578
     20 O1          0.9175   -7.4185   -0.5376 O.2       1 <0>        -0.4210
     21 N3         -3.8773   -9.7097   -0.1653 N.pl3     1 <0>        -1.0655
     22 S1         -4.3812  -11.2840   -0.2641 S.o2      1 <0>         2.7793
     23 O2         -5.2247  -11.5116    0.8566 O.2       1 <0>        -0.9610
     24 O3         -4.8189  -11.4872   -1.6007 O.2       1 <0>        -0.9643
     25 N4         -3.0455  -12.2399   -0.0531 N.pl3     1 <0>        -0.9947
     26 C18        -2.6613  -12.6751    1.2920 C.3       1 <0>         0.0938
     27 C19        -2.2480  -12.6502   -1.2115 C.3       1 <0>         0.1210
     28 C20        -1.0763  -11.6831   -1.3923 C.3       1 <0>         0.0178
     29 H1         -1.4536  -10.6631   -1.4645 H         1 <0>         0.0816
     30 C21        -0.3126  -12.0380   -2.6715 C.3       1 <0>         0.0320
     31 O4          0.8442  -11.2023   -2.7746 O.3       1 <0>        -0.3693
     32 C22         1.7288  -11.3082   -1.6551 C.3       1 <0>         0.0253
     33 C23         0.9651  -10.9534   -0.3760 C.3       1 <0>         0.0211
     34 O5         -0.1924  -11.7879   -0.2721 O.3       1 <0>        -0.3671
     35 N5          0.0651   -4.2087   -3.7198 N.ar      1 <0>        -0.4628
     36 C24         0.0305   -3.1599   -2.9350 C.ar      1 <0>         0.1258
     37 H2          1.0048    1.8381    0.0023 H         1 <0>         0.0802
     38 H3         -0.5450    1.8219   -0.8730 H         1 <0>         0.0921
     39 H4         -0.5280    1.8123    0.9069 H         1 <0>         0.0936
     40 H5         -0.0021   -0.4506   -2.1203 H         1 <0>         0.1820
     41 H6          0.0494   -2.9451    1.3761 H         1 <0>         0.1866
     42 H7          0.0463   -4.6991    0.0909 H         1 <0>         0.1426
     43 H8          0.9100   -6.4187   -5.0047 H         1 <0>         0.1374
     44 H9         -0.1138   -8.4521   -4.8752 H         1 <0>         0.1386
     45 H10        -2.5760   -9.1830   -4.4738 H         1 <0>         0.1447
     46 H11        -4.0961  -10.0325   -2.7747 H         1 <0>         0.1659
     47 H12        -1.7458   -8.2343    0.3129 H         1 <0>         0.1371
     48 H13        -4.1869   -9.1460    0.5609 H         1 <0>         0.4277
     49 H14        -3.1500  -13.6222    1.5208 H         1 <0>         0.0607
     50 H15        -1.5799  -12.8040    1.3372 H         1 <0>         0.0884
     51 H16        -2.9683  -11.9229    2.0187 H         1 <0>         0.0679
     52 H17        -1.8656  -13.6582   -1.0506 H         1 <0>         0.0981
     53 H18        -2.8717  -12.6365   -2.1052 H         1 <0>         0.1107
     54 H19        -0.0048  -13.0830   -2.6340 H         1 <0>         0.0632
     55 H20        -0.9562  -11.8775   -3.5364 H         1 <0>         0.1055
     56 H21         2.1052  -12.3286   -1.5835 H         1 <0>         0.0597
     57 H22         2.5636  -10.6192   -1.7840 H         1 <0>         0.1035
     58 H23         1.6087  -11.1138    0.4889 H         1 <0>         0.1029
     59 H24         0.6574   -9.9084   -0.4134 H         1 <0>         0.0696
     60 H25        -0.0017   -2.1732   -3.3730 H         1 <0>         0.1615
@<TRIPOS>BOND
     1    1    2 1
     2    1   37 1
     3    1   38 1
     4    1   39 1
     5    2    6 1
     6    2    3 1
     7    3    4 2
     8    3   40 1
     9    4    5 1
    10    4    7 1
    11    5    6 2
    12    5   41 1
    13    7   36 ar
    14    7    8 ar
    15    8    9 ar
    16    8   42 1
    17    9   19 1
    18    9   10 ar
    19   10   11 1
    20   10   35 ar
    21   11   12 2
    22   11   43 1
    23   12   13 1
    24   12   44 1
    25   13   18 ar
    26   13   14 ar
    27   14   15 ar
    28   14   45 1
    29   15   16 ar
    30   15   46 1
    31   16   17 ar
    32   16   21 1
    33   17   18 ar
    34   17   47 1
    35   18   19 1
    36   19   20 2
    37   21   22 1
    38   21   48 1
    39   22   23 2
    40   22   24 2
    41   22   25 1
    42   25   26 1
    43   25   27 1
    44   26   49 1
    45   26   50 1
    46   26   51 1
    47   27   28 1
    48   27   52 1
    49   27   53 1
    50   28   29 1
    51   28   34 1
    52   28   30 1
    53   30   31 1
    54   30   54 1
    55   30   55 1
    56   31   32 1
    57   32   33 1
    58   32   56 1
    59   32   57 1
    60   33   34 1
    61   33   58 1
    62   33   59 1
    63   35   36 ar
    64   36   60 1
@<TRIPOS>MOLECULE
ZINC34842284
   59    63     0     0     0
SMALL
USER_CHARGES

@<TRIPOS>ATOM
      1 C1         -0.0178    1.4608    0.0101 C.3       1 <0>         0.1007
      2 N1          0.0021   -0.0041    0.0020 N.pl3     1 <0>        -0.3736
      3 C2          0.0078   -0.7883   -1.0945 C.2       1 <0>         0.0703
      4 C3          0.0278   -2.0866   -0.6734 C.2       1 <0>        -0.1902
      5 C4          0.0343   -2.0758    0.7354 C.2       1 <0>         0.0673
      6 N2          0.0245   -0.8308    1.1317 N.2       1 <0>        -0.2943
      7 C5          0.0397   -3.2901   -1.5414 C.ar      1 <0>        -0.0608
      8 C6          0.0543   -4.5644   -0.9807 C.ar      1 <0>        -0.0333
      9 C7          0.0802   -5.6649   -1.8426 C.ar      1 <0>        -0.1792
     10 C8          0.1229   -5.4562   -3.2387 C.ar      1 <0>         0.2045
     11 C9          0.2532   -6.5705   -4.1609 C.2       1 <0>        -0.1592
     12 C10        -0.3414   -7.7510   -4.0859 C.2       1 <0>        -0.0231
     13 C11        -1.2649   -8.2108   -3.0641 C.ar      1 <0>        -0.1647
     14 C12        -2.3865   -8.9737   -3.4314 C.ar      1 <0>        -0.0353
     15 C13        -3.2359   -9.4502   -2.4792 C.ar      1 <0>        -0.2465
     16 C14        -3.0081   -9.1944   -1.1257 C.ar      1 <0>         0.3005
     17 C15        -1.9219   -8.4304   -0.7344 C.ar      1 <0>        -0.1500
     18 C16        -1.0553   -7.9152   -1.6995 C.ar      1 <0>        -0.0837
     19 C17         0.0500   -7.0298   -1.2992 C.2       1 <0>         0.4609
     20 O1          0.9175   -7.4185   -0.5376 O.2       1 <0>        -0.4397
     21 N3         -3.8773   -9.7097   -0.1653 N.2       1 <0>        -1.0971
     22 S1         -5.1776  -10.6235   -0.6305 S.o2      1 <0>         2.7153
     23 O2         -6.0456   -9.7582   -1.3496 O.2       1 <0>        -1.0429
     24 O3         -4.6537  -11.8178   -1.1947 O.2       1 <0>        -1.0457
     25 N4         -5.9839  -11.0648    0.7470 N.pl3     1 <0>        -0.9885
     26 C18        -7.0496  -10.2109    1.2774 C.3       1 <0>         0.1091
     27 C19        -5.6314  -12.3092    1.4352 C.3       1 <0>         0.1365
     28 C20        -4.6323  -12.0078    2.5540 C.3       1 <0>         0.0329
     29 H1         -3.7717  -11.4810    2.1417 H         1 <0>         0.0873
     30 C21        -4.1704  -13.3198    3.1948 C.3       1 <0>         0.0320
     31 O4         -3.3244  -13.0250    4.3103 O.3       1 <0>        -0.3784
     32 C22        -3.9524  -12.2119    5.3061 C.3       1 <0>         0.0246
     33 C23        -4.4143  -10.8999    4.6653 C.3       1 <0>         0.0237
     34 O5         -5.2598  -11.1934    3.5490 O.3       1 <0>        -0.3667
     35 N5          0.0651   -4.2087   -3.7198 N.ar      1 <0>        -0.4751
     36 C24         0.0305   -3.1599   -2.9350 C.ar      1 <0>         0.1218
     37 H2          1.0048    1.8381    0.0023 H         1 <0>         0.0758
     38 H3         -0.5450    1.8219   -0.8730 H         1 <0>         0.0888
     39 H4         -0.5280    1.8123    0.9069 H         1 <0>         0.0902
     40 H5         -0.0021   -0.4506   -2.1203 H         1 <0>         0.1795
     41 H6          0.0494   -2.9451    1.3761 H         1 <0>         0.1876
     42 H7          0.0463   -4.6991    0.0909 H         1 <0>         0.1396
     43 H8          0.9100   -6.4187   -5.0047 H         1 <0>         0.1239
     44 H9         -0.1138   -8.4521   -4.8752 H         1 <0>         0.1183
     45 H10        -2.5760   -9.1830   -4.4738 H         1 <0>         0.1151
     46 H11        -4.0961  -10.0325   -2.7747 H         1 <0>         0.1021
     47 H12        -1.7458   -8.2343    0.3129 H         1 <0>         0.1215
     48 H13        -8.0037  -10.5080    0.8422 H         1 <0>         0.0404
     49 H14        -7.0955  -10.3181    2.3611 H         1 <0>         0.0728
     50 H15        -6.8424   -9.1713    1.0236 H         1 <0>         0.0649
     51 H16        -6.5299  -12.7559    1.8610 H         1 <0>         0.0781
     52 H17        -5.1826  -13.0029    0.7243 H         1 <0>         0.1032
     53 H18        -5.0384  -13.8845    3.5350 H         1 <0>         0.0590
     54 H19        -3.6164  -13.9075    2.4628 H         1 <0>         0.1068
     55 H20        -4.8131  -12.7393    5.7173 H         1 <0>         0.0563
     56 H21        -3.2406  -11.9973    6.1031 H         1 <0>         0.1003
     57 H22        -4.9682  -10.3122    5.3973 H         1 <0>         0.0994
     58 H23        -3.5462  -10.3353    4.3251 H         1 <0>         0.0629
     59 H24        -0.0017   -2.1732   -3.3730 H         1 <0>         0.1540
@<TRIPOS>BOND
     1    1    2 1
     2    1   37 1
     3    1   38 1
     4    1   39 1
     5    2    6 1
     6    2    3 1
     7    3    4 2
     8    3   40 1
     9    4    5 1
    10    4    7 1
    11    5    6 2
    12    5   41 1
    13    7   36 ar
    14    7    8 ar
    15    8    9 ar
    16    8   42 1
    17    9   19 1
    18    9   10 ar
    19   10   11 1
    20   10   35 ar
    21   11   12 2
    22   11   43 1
    23   12   13 1
    24   12   44 1
    25   13   18 ar
    26   13   14 ar
    27   14   15 ar
    28   14   45 1
    29   15   16 ar
    30   15   46 1
    31   16   17 ar
    32   16   21 1
    33   17   18 ar
    34   17   47 1
    35   18   19 1
    36   19   20 2
    37   21   22 1
    38   22   23 2
    39   22   24 2
    40   22   25 1
    41   25   26 1
    42   25   27 1
    43   26   48 1
    44   26   49 1
    45   26   50 1
    46   27   28 1
    47   27   51 1
    48   27   52 1
    49   28   29 1
    50   28   34 1
    51   28   30 1
    52   30   31 1
    53   30   53 1
    54   30   54 1
    55   31   32 1
    56   32   33 1
    57   32   55 1
    58   32   56 1
    59   33   34 1
    60   33   57 1
    61   33   58 1
    62   35   36 ar
    63   36   59 1
@<TRIPOS>MOLECULE
ZINC72105034
   70    73     0     0     0
SMALL
USER_CHARGES

@<TRIPOS>ATOM
      1 C1         -3.0465   -3.1127   14.8741 C.3       1 <0>        -0.1892
      2 C2         -3.2466   -2.2549   13.6230 C.3       1 <0>        -0.0108
      3 N1         -4.1264   -2.9600   12.6814 N.4       1 <0>        -0.3829
      4 C3         -3.4647   -4.1874   12.2214 C.3       1 <0>        -0.0274
      5 C4         -4.4254   -4.9810   11.3297 C.3       1 <0>         0.1010
      6 N2         -4.8919   -4.1005   10.2474 N.pl3     1 <0>        -0.6456
      7 C5         -5.4217   -2.7770   10.6103 C.3       1 <0>         0.1015
      8 C6         -4.4140   -2.0875   11.5359 C.3       1 <0>        -0.0220
      9 C7         -4.8337   -4.5106    8.9106 C.ar      1 <0>         0.1766
     10 C8         -4.2262   -5.7148    8.5795 C.ar      1 <0>        -0.1629
     11 C9         -4.1692   -6.1195    7.2606 C.ar      1 <0>        -0.0646
     12 C10        -4.7193   -5.3226    6.2653 C.ar      1 <0>         0.1310
     13 C11        -5.3268   -4.1185    6.5964 C.ar      1 <0>        -0.1041
     14 C12        -5.3885   -3.7162    7.9158 C.ar      1 <0>        -0.1629
     15 N3         -4.6611   -5.7330    4.9274 N.pl3     1 <0>        -0.6533
     16 C13        -4.7431   -7.0808    4.6114 C.ar      1 <0>         0.4484
     17 C14        -4.5642   -7.5111    3.2990 C.ar      1 <0>        -0.3232
     18 C15        -4.6563   -8.8727    3.0342 C.ar      1 <0>         0.4562
     19 N4         -4.9104   -9.7105    4.0371 N.ar      1 <0>        -0.5358
     20 C16        -5.0737   -9.2649    5.2660 C.ar      1 <0>         0.3663
     21 N5         -4.9887   -7.9832    5.5591 N.ar      1 <0>        -0.5884
     22 N6         -4.4859   -9.3527    1.7400 N.am      1 <0>        -0.5513
     23 C17        -4.0993   -8.4367    0.6640 C.3       1 <0>         0.0633
     24 C18        -4.6764  -10.6605    1.4758 C.2       1 <0>         0.6965
     25 O1         -4.9972  -11.4206    2.3688 O.2       1 <0>        -0.4771
     26 N7         -4.5113  -11.1256    0.2217 N.am      1 <0>        -0.6806
     27 C19        -4.5933  -12.5005   -0.0317 C.ar      1 <0>         0.2488
     28 C20        -3.5635  -13.1459   -0.7035 C.ar      1 <0>        -0.1156
     29 C21        -3.6457  -14.5077   -0.9540 C.ar      1 <0>         0.1985
     30 C22        -4.7561  -15.2246   -0.5342 C.ar      1 <0>        -0.2856
     31 C23        -5.7851  -14.5810    0.1368 C.ar      1 <0>         0.1981
     32 C24        -5.7020  -13.2205    0.3937 C.ar      1 <0>        -0.0913
     33 Cl1        -6.9867  -12.4166    1.2405 Cl        1 <0>        -0.0174
     34 O2         -6.8731  -15.2849    0.5478 O.3       1 <0>        -0.2934
     35 C25        -6.8895  -16.6834    0.2548 C.3       1 <0>         0.0217
     36 O3         -2.6377  -15.1397   -1.6116 O.3       1 <0>        -0.2949
     37 C26        -2.7887  -16.5430   -1.8355 C.3       1 <0>         0.0219
     38 Cl2        -2.1738  -12.2486   -1.2302 Cl        1 <0>        -0.0383
     39 H1         -2.3937   -2.5895   15.5727 H         1 <0>         0.1068
     40 H2         -4.0114   -3.2967   15.3466 H         1 <0>         0.0809
     41 H3         -2.5919   -4.0630   14.5941 H         1 <0>         0.0805
     42 H4         -3.7012   -1.3046   13.9030 H         1 <0>         0.1310
     43 H5         -2.2817   -2.0709   13.1505 H         1 <0>         0.1281
     44 H6         -2.5717   -3.9277   11.6528 H         1 <0>         0.1321
     45 H7         -3.1838   -4.7935   13.0827 H         1 <0>         0.1410
     46 H8         -3.9058   -5.8399   10.9049 H         1 <0>         0.1268
     47 H9         -5.2773   -5.3195   11.9194 H         1 <0>         0.0863
     48 H10        -5.5608   -2.1788    9.7098 H         1 <0>         0.1256
     49 H11        -6.3742   -2.8930   11.1273 H         1 <0>         0.0858
     50 H12        -4.8326   -1.1462   11.8921 H         1 <0>         0.1394
     51 H13        -3.4923   -1.8913   10.9881 H         1 <0>         0.1318
     52 H14        -3.7980   -6.3344    9.3535 H         1 <0>         0.1245
     53 H15        -3.6964   -7.0558    7.0031 H         1 <0>         0.1406
     54 H16        -5.7546   -3.4987    5.8223 H         1 <0>         0.1287
     55 H17        -5.8648   -2.7819    8.1738 H         1 <0>         0.1249
     56 H18        -4.5634   -5.0745    4.2219 H         1 <0>         0.4207
     57 H19        -4.3595   -6.8053    2.5076 H         1 <0>         0.1461
     58 H20        -5.2787   -9.9712    6.0569 H         1 <0>         0.2006
     59 H21        -3.0123   -8.3941    0.5961 H         1 <0>         0.0784
     60 H22        -4.5087   -8.7932   -0.2812 H         1 <0>         0.0834
     61 H23        -4.4893   -7.4413    0.8765 H         1 <0>         0.0916
     62 H24        -4.3356  -10.5081   -0.5055 H         1 <0>         0.4126
     63 H25        -4.8197  -16.2847   -0.7302 H         1 <0>         0.1546
     64 H26        -7.8108  -17.1238    0.6364 H         1 <0>         0.1096
     65 H27        -6.8368  -16.8293   -0.8241 H         1 <0>         0.0610
     66 H28        -6.0336  -17.1640    0.7287 H         1 <0>         0.0609
     67 H29        -3.6841  -16.7217   -2.4308 H         1 <0>         0.0613
     68 H30        -1.9165  -16.9218   -2.3683 H         1 <0>         0.1099
     69 H31        -2.8806  -17.0558   -0.8781 H         1 <0>         0.0610
     70 H32        -4.9899   -3.1998   13.1451 H         1 <0>         0.4221
@<TRIPOS>BOND
     1    1    2 1
     2    1   39 1
     3    1   40 1
     4    1   41 1
     5    2    3 1
     6    2   42 1
     7    2   43 1
     8    3    8 1
     9    3    4 1
    10    3   70 1
    11    4    5 1
    12    4   44 1
    13    4   45 1
    14    5    6 1
    15    5   46 1
    16    5   47 1
    17    6    7 1
    18    6    9 1
    19    7    8 1
    20    7   48 1
    21    7   49 1
    22    8   50 1
    23    8   51 1
    24    9   14 ar
    25    9   10 ar
    26   10   11 ar
    27   10   52 1
    28   11   12 ar
    29   11   53 1
    30   12   13 ar
    31   12   15 1
    32   13   14 ar
    33   13   54 1
    34   14   55 1
    35   15   16 1
    36   15   56 1
    37   16   21 ar
    38   16   17 ar
    39   17   18 ar
    40   17   57 1
    41   18   19 ar
    42   18   22 1
    43   19   20 ar
    44   20   21 ar
    45   20   58 1
    46   22   23 1
    47   22   24 am
    48   23   59 1
    49   23   60 1
    50   23   61 1
    51   24   25 2
    52   24   26 am
    53   26   27 1
    54   26   62 1
    55   27   32 ar
    56   27   28 ar
    57   28   29 ar
    58   28   38 1
    59   29   30 ar
    60   29   36 1
    61   30   31 ar
    62   30   63 1
    63   31   32 ar
    64   31   34 1
    65   32   33 1
    66   34   35 1
    67   35   64 1
    68   35   65 1
    69   35   66 1
    70   36   37 1
    71   37   67 1
    72   37   68 1
    73   37   69 1
@<TRIPOS>MOLECULE
ZINC72105034
   69    72     0     0     0
SMALL
USER_CHARGES

@<TRIPOS>ATOM
      1 C1         -3.4378   -3.9375   14.6684 C.3       1 <0>        -0.1502
      2 C2         -3.5006   -3.0159   13.4488 C.3       1 <0>         0.0503
      3 N1         -4.3406   -3.6313   12.4127 N.3       1 <0>        -0.5378
      4 C3         -3.7251   -4.8621   11.8984 C.3       1 <0>         0.0363
      5 C4         -4.7086   -5.5666   10.9578 C.3       1 <0>         0.1266
      6 N2         -5.1378   -4.6085    9.9278 N.pl3     1 <0>        -0.6321
      7 C5         -5.6391   -3.2963   10.3636 C.3       1 <0>         0.1276
      8 C6         -4.6190   -2.6811   11.3275 C.3       1 <0>         0.0396
      9 C7         -5.0714   -4.9369    8.5689 C.ar      1 <0>         0.2080
     10 C8         -4.4894   -6.1336    8.1714 C.ar      1 <0>        -0.1806
     11 C9         -4.4244   -6.4578    6.8309 C.ar      1 <0>        -0.0579
     12 C10        -4.9408   -5.5873    5.8801 C.ar      1 <0>         0.0956
     13 C11        -5.5227   -4.3907    6.2776 C.ar      1 <0>        -0.0967
     14 C12        -5.5926   -4.0689    7.6185 C.ar      1 <0>        -0.1814
     15 N3         -4.8743   -5.9160    4.5202 N.pl3     1 <0>        -0.6480
     16 C13        -4.9857   -7.2392    4.1204 C.ar      1 <0>         0.4532
     17 C14        -4.7996   -7.5924    2.7862 C.ar      1 <0>        -0.3285
     18 C15        -4.9221   -8.9324    2.4366 C.ar      1 <0>         0.4515
     19 N4         -5.2108   -9.8235    3.3827 N.ar      1 <0>        -0.5423
     20 C16        -5.3796   -9.4503    4.6347 C.ar      1 <0>         0.3655
     21 N5         -5.2667   -8.1917    5.0075 N.ar      1 <0>        -0.5828
     22 N6         -4.7461   -9.3361    1.1173 N.am      1 <0>        -0.5515
     23 C17        -4.3221   -8.3659    0.1048 C.3       1 <0>         0.0649
     24 C18        -4.9656  -10.6198    0.7705 C.2       1 <0>         0.6963
     25 O1         -5.3174  -11.4249    1.6108 O.2       1 <0>        -0.4774
     26 N7         -4.7950  -11.0110   -0.5080 N.am      1 <0>        -0.6824
     27 C19        -4.9079  -12.3651   -0.8468 C.ar      1 <0>         0.2515
     28 C20        -3.8855  -12.9943   -1.5448 C.ar      1 <0>        -0.1156
     29 C21        -3.9983  -14.3355   -1.8800 C.ar      1 <0>         0.1969
     30 C22        -5.1319  -15.0480   -1.5188 C.ar      1 <0>        -0.2867
     31 C23        -6.1535  -14.4206   -0.8218 C.ar      1 <0>         0.1972
     32 C24        -6.0399  -13.0811   -0.4802 C.ar      1 <0>        -0.0912
     33 Cl1        -7.3156  -12.2980    0.3991 Cl        1 <0>        -0.0151
     34 O2         -7.2642  -15.1202   -0.4683 O.3       1 <0>        -0.2933
     35 C25        -7.3116  -16.4972   -0.8473 C.3       1 <0>         0.0224
     36 O3         -2.9975  -14.9516   -2.5633 O.3       1 <0>        -0.2955
     37 C26        -3.1804  -16.3341   -2.8753 C.3       1 <0>         0.0225
     38 Cl2        -2.4668  -12.1023   -1.9981 Cl        1 <0>        -0.0388
     39 H1         -2.8146   -3.4808   15.4373 H         1 <0>         0.0601
     40 H2         -4.4435   -4.0912   15.0599 H         1 <0>         0.0642
     41 H3         -3.0108   -4.8971   14.3771 H         1 <0>         0.0548
     42 H4         -3.9276   -2.0563   13.7401 H         1 <0>         0.0754
     43 H5         -2.4950   -2.8622   13.0574 H         1 <0>         0.0324
     44 H6         -2.8150   -4.6131   11.3528 H         1 <0>         0.0373
     45 H7         -3.4816   -5.5223   12.7308 H         1 <0>         0.0881
     46 H8         -4.2176   -6.4171   10.4850 H         1 <0>         0.0867
     47 H9         -5.5752   -5.9086   11.5236 H         1 <0>         0.0692
     48 H10        -5.7633   -2.6458    9.4978 H         1 <0>         0.0853
     49 H11        -6.5952   -3.4200   10.8723 H         1 <0>         0.0688
     50 H12        -5.0237   -1.7596   11.7460 H         1 <0>         0.0847
     51 H13        -3.6964   -2.4625   10.7899 H         1 <0>         0.0375
     52 H14        -4.0875   -6.8104    8.9108 H         1 <0>         0.1239
     53 H15        -3.9715   -7.3882    6.5217 H         1 <0>         0.1333
     54 H16        -5.9244   -3.7138    5.5381 H         1 <0>         0.1213
     55 H17        -6.0491   -3.1403    7.9278 H         1 <0>         0.1240
     56 H18        -4.7504   -5.2181    3.8580 H         1 <0>         0.4169
     57 H19        -4.5666   -6.8448    2.0425 H         1 <0>         0.1434
     58 H20        -5.6130  -10.1984    5.3779 H         1 <0>         0.1992
     59 H21        -3.2335   -8.3472    0.0528 H         1 <0>         0.0766
     60 H22        -4.7274   -8.6529   -0.8655 H         1 <0>         0.0808
     61 H23        -4.6901   -7.3757    0.3737 H         1 <0>         0.0918
     62 H24        -4.5941  -10.3546   -1.1933 H         1 <0>         0.4120
     63 H25        -5.2193  -16.0921   -1.7808 H         1 <0>         0.1535
     64 H26        -7.2478  -16.5777   -1.9325 H         1 <0>         0.0599
     65 H27        -6.4745  -17.0279   -0.3938 H         1 <0>         0.0605
     66 H28        -8.2486  -16.9363   -0.5049 H         1 <0>         0.1088
     67 H29        -3.2981  -16.9023   -1.9526 H         1 <0>         0.0606
     68 H30        -4.0718  -16.4527   -3.4913 H         1 <0>         0.0604
     69 H31        -2.3108  -16.7017   -3.4200 H         1 <0>         0.1087
@<TRIPOS>BOND
     1    1    2 1
     2    1   39 1
     3    1   40 1
     4    1   41 1
     5    2    3 1
     6    2   42 1
     7    2   43 1
     8    3    8 1
     9    3    4 1
    10    4    5 1
    11    4   44 1
    12    4   45 1
    13    5    6 1
    14    5   46 1
    15    5   47 1
    16    6    7 1
    17    6    9 1
    18    7    8 1
    19    7   48 1
    20    7   49 1
    21    8   50 1
    22    8   51 1
    23    9   14 ar
    24    9   10 ar
    25   10   11 ar
    26   10   52 1
    27   11   12 ar
    28   11   53 1
    29   12   13 ar
    30   12   15 1
    31   13   14 ar
    32   13   54 1
    33   14   55 1
    34   15   16 1
    35   15   56 1
    36   16   21 ar
    37   16   17 ar
    38   17   18 ar
    39   17   57 1
    40   18   19 ar
    41   18   22 1
    42   19   20 ar
    43   20   21 ar
    44   20   58 1
    45   22   23 1
    46   22   24 am
    47   23   59 1
    48   23   60 1
    49   23   61 1
    50   24   25 2
    51   24   26 am
    52   26   27 1
    53   26   62 1
    54   27   32 ar
    55   27   28 ar
    56   28   29 ar
    57   28   38 1
    58   29   30 ar
    59   29   36 1
    60   30   31 ar
    61   30   63 1
    62   31   32 ar
    63   31   34 1
    64   32   33 1
    65   34   35 1
    66   35   64 1
    67   35   65 1
    68   35   66 1
    69   36   37 1
    70   37   67 1
    71   37   68 1
    72   37   69 1
@<TRIPOS>MOLECULE
ZINC03938688
   39    41     0     0     0
SMALL
USER_CHARGES

@<TRIPOS>ATOM
      1 C1         -0.0095    1.3826    0.0704 C.ar      1 <0>        -0.0343
      2 C2          0.5587    1.0580   -1.1482 C.ar      1 <0>        -0.1609
      3 C3          1.7655    0.3862   -1.1955 C.ar      1 <0>         0.1753
      4 C4          2.4129    0.0342   -0.0053 C.ar      1 <0>        -0.1954
      5 C5          1.8304    0.3669    1.2233 C.ar      1 <0>         0.1741
      6 C6          0.6231    1.0388    1.2514 C.ar      1 <0>        -0.1610
      7 F1          2.4463    0.0317    2.3781 F         1 <0>        -0.1212
      8 C7          3.6999   -0.6827   -0.0456 C.2       1 <0>         0.6210
      9 O1          4.7383   -0.0615   -0.1600 O.2       1 <0>        -0.4669
     10 N1          3.7255   -2.0272    0.0446 N.am      1 <0>        -0.3962
     11 C8          4.8314   -2.8210    0.1249 C.2       1 <0>         0.5948
     12 N2          4.4249   -4.0694    0.1979 N.2       1 <0>        -0.5873
     13 C9          3.0869   -4.1118    0.1675 C.2       1 <0>         0.5191
     14 N3          2.6183   -2.8904    0.0808 N.2       1 <0>        -0.3480
     15 N4          2.3148   -5.2702    0.2247 N.pl3     1 <0>        -0.6226
     16 C10         2.9267   -6.5079    0.4407 C.ar      1 <0>         0.2365
     17 C11         4.1432   -6.5760    1.1080 C.ar      1 <0>        -0.1584
     18 C12         4.7450   -7.8008    1.3202 C.ar      1 <0>         0.0098
     19 C13         4.1379   -8.9586    0.8692 C.ar      1 <0>        -0.7033
     20 C14         2.9269   -8.8944    0.2046 C.ar      1 <0>         0.0112
     21 C15         2.3170   -7.6734   -0.0063 C.ar      1 <0>        -0.1777
     22 S1          4.9094  -10.5191    1.1415 S.o2      1 <0>         2.7034
     23 O2          4.4084  -11.3993    0.1448 O.2       1 <0>        -0.9656
     24 O3          6.2977  -10.2630    1.3036 O.2       1 <0>        -0.9650
     25 N5          4.3605  -11.0895    2.5960 N.pl3     1 <0>        -1.2510
     26 N6          6.1422   -2.3912    0.1281 N.pl3     1 <0>        -0.7911
     27 F2          2.3185    0.0697   -2.3868 F         1 <0>        -0.1201
     28 H1         -0.9506    1.9116    0.0998 H         1 <0>         0.1546
     29 H2          0.0576    1.3300   -2.0654 H         1 <0>         0.1549
     30 H3          0.1721    1.2963    2.1984 H         1 <0>         0.1546
     31 H4          1.3525   -5.2176    0.1147 H         1 <0>         0.4325
     32 H5          4.6180   -5.6722    1.4601 H         1 <0>         0.1556
     33 H6          5.6909   -7.8544    1.8385 H         1 <0>         0.1456
     34 H7          2.4556   -9.8005   -0.1466 H         1 <0>         0.1475
     35 H8          1.3691   -7.6243   -0.5215 H         1 <0>         0.1387
     36 H9          3.7284  -10.5673    3.1145 H         1 <0>         0.4165
     37 H10         4.6709  -11.9458    2.9296 H         1 <0>         0.4206
     38 H11         6.3422   -1.4439    0.0694 H         1 <0>         0.4292
     39 H12         6.8640   -3.0364    0.1890 H         1 <0>         0.4303
@<TRIPOS>BOND
     1    1    6 ar
     2    1    2 ar
     3    1   28 1
     4    2    3 ar
     5    2   29 1
     6    3    4 ar
     7    3   27 1
     8    4    5 ar
     9    4    8 1
    10    5    6 ar
    11    5    7 1
    12    6   30 1
    13    8    9 2
    14    8   10 am
    15   10   14 1
    16   10   11 1
    17   11   12 2
    18   11   26 1
    19   12   13 1
    20   13   14 2
    21   13   15 1
    22   15   16 1
    23   15   31 1
    24   16   21 ar
    25   16   17 ar
    26   17   18 ar
    27   17   32 1
    28   18   19 ar
    29   18   33 1
    30   19   20 ar
    31   19   22 1
    32   20   21 ar
    33   20   34 1
    34   21   35 1
    35   22   23 2
    36   22   24 2
    37   22   25 1
    38   25   36 1
    39   25   37 1
    40   26   38 1
    41   26   39 1
@<TRIPOS>MOLECULE
ZINC00782896
   45    47     0     0     0
SMALL
USER_CHARGES
2-(3,5-dimethoxybenzoyl)amino-4,5,6,7-tetrahydrobenzothiophene-3-carboxamide
@<TRIPOS>ATOM
      1 C1         -3.6162    1.9734   11.7567 C.3       1 <0>         0.0238
      2 O1         -3.6615    2.4141   10.3981 O.3       1 <0>        -0.3068
      3 C2         -2.8794    1.7493    9.5073 C.ar      1 <0>         0.1654
      4 C3         -2.8760    2.1256    8.1744 C.ar      1 <0>        -0.1209
      5 C4         -2.0726    1.4423    7.2607 C.ar      1 <0>        -0.0584
      6 C5         -1.2798    0.3788    7.6938 C.ar      1 <0>        -0.1568
      7 C6         -1.2846    0.0132    9.0297 C.ar      1 <0>         0.1662
      8 C7         -2.0852    0.6950    9.9346 C.ar      1 <0>        -0.2685
      9 O2         -0.5082   -1.0185    9.4537 O.3       1 <0>        -0.3092
     10 C8         -0.5665   -1.3458   10.8435 C.3       1 <0>         0.0239
     11 C9         -2.0661    1.8400    5.8371 C.2       1 <0>         0.5612
     12 O3         -2.7613    2.7634    5.4608 O.2       1 <0>        -0.4856
     13 N1         -1.2894    1.1787    4.9562 N.am      1 <0>        -0.6143
     14 C10        -1.2833    1.5514    3.6218 C.2       1 <0>         0.0713
     15 C11        -0.5586    0.9983    2.5752 C.2       1 <0>        -0.2256
     16 C12        -0.7317    1.5801    1.2572 C.2       1 <0>        -0.0662
     17 C13        -1.6010    2.6147    1.1938 C.2       1 <0>        -0.2080
     18 S1         -2.1790    2.8207    2.8544 S.3       1 <0>         0.2347
     19 C14        -1.9794    3.4047   -0.0210 C.3       1 <0>        -0.0359
     20 C15        -0.9558    3.1107   -1.1273 C.3       1 <0>        -0.1143
     21 C16        -0.7582    1.5954   -1.2267 C.3       1 <0>        -0.1196
     22 C17        -0.0127    1.0858    0.0080 C.3       1 <0>        -0.0610
     23 C18         0.3504   -0.1311    2.7930 C.2       1 <0>         0.5838
     24 O4         -0.0616   -1.2720    2.6926 O.2       1 <0>        -0.5324
     25 N2          1.6422    0.0940    3.1045 N.am      1 <0>        -0.8477
     26 H1         -4.2850    2.5870   12.3602 H         1 <0>         0.1072
     27 H2         -3.9310    0.9312   11.8112 H         1 <0>         0.0580
     28 H3         -2.5981    2.0657   12.1348 H         1 <0>         0.0579
     29 H4         -3.4940    2.9469    7.8427 H         1 <0>         0.1520
     30 H5         -0.6599   -0.1556    6.9891 H         1 <0>         0.1352
     31 H6         -2.0900    0.4045   10.9748 H         1 <0>         0.1431
     32 H7          0.0989   -2.1847   11.0474 H         1 <0>         0.1068
     33 H8         -0.2553   -0.4836   11.4332 H         1 <0>         0.0582
     34 H9         -1.5875   -1.6189   11.1099 H         1 <0>         0.0584
     35 H10        -0.7347    0.4418    5.2565 H         1 <0>         0.4202
     36 H11        -1.9695    4.4687    0.2152 H         1 <0>         0.0817
     37 H12        -2.9749    3.1113   -0.3544 H         1 <0>         0.0832
     38 H13        -0.0067    3.5877   -0.8829 H         1 <0>         0.0680
     39 H14        -1.3232    3.4945   -2.0791 H         1 <0>         0.0741
     40 H15        -0.1792    1.3636   -2.1206 H         1 <0>         0.0704
     41 H16        -1.7312    1.1079   -1.2890 H         1 <0>         0.0676
     42 H17         0.0021   -0.0041    0.0020 H         1 <0>         0.0752
     43 H18         1.0091    1.4652    0.0003 H         1 <0>         0.0765
     44 H19         1.9705    1.0032    3.1846 H         1 <0>         0.4038
     45 H20         2.2436   -0.6533    3.2487 H         1 <0>         0.4035
@<TRIPOS>BOND
     1    1    2 1
     2    1   26 1
     3    1   27 1
     4    1   28 1
     5    2    3 1
     6    3    8 ar
     7    3    4 ar
     8    4    5 ar
     9    4   29 1
    10    5    6 ar
    11    5   11 1
    12    6    7 ar
    13    6   30 1
    14    7    8 ar
    15    7    9 1
    16    8   31 1
    17    9   10 1
    18   10   32 1
    19   10   33 1
    20   10   34 1
    21   11   12 2
    22   11   13 am
    23   13   14 1
    24   13   35 1
    25   14   18 1
    26   14   15 2
    27   15   16 1
    28   15   23 1
    29   16   22 1
    30   16   17 2
    31   17   18 1
    32   17   19 1
    33   19   20 1
    34   19   36 1
    35   19   37 1
    36   20   21 1
    37   20   38 1
    38   20   39 1
    39   21   22 1
    40   21   40 1
    41   21   41 1
    42   22   42 1
    43   22   43 1
    44   23   24 2
    45   23   25 am
    46   25   44 1
    47   25   45 1
@<TRIPOS>MOLECULE
ZINC04075659
   43    45     0     0     0
SMALL
USER_CHARGES
2-(3,4-dimethylbenzoyl)amino-4,5,6,7-tetrahydrobenzothiophene-3-carboxamide
@<TRIPOS>ATOM
      1 C1         -2.0929    0.2907   11.3787 C.3       1 <0>        -0.1261
      2 C2         -2.0855    0.6967    9.9275 C.ar      1 <0>        -0.0510
      3 C3         -1.2869    0.0156    9.0257 C.ar      1 <0>        -0.1217
      4 C4         -1.2797    0.3784    7.6949 C.ar      1 <0>        -0.0854
      5 C5         -2.0726    1.4424    7.2605 C.ar      1 <0>        -0.1417
      6 C6         -2.8759    2.1251    8.1754 C.ar      1 <0>        -0.0475
      7 C7         -2.8776    1.7485    9.5027 C.ar      1 <0>        -0.0930
      8 C8         -3.7437    2.4847   10.4920 C.3       1 <0>        -0.1204
      9 C9         -2.0661    1.8400    5.8371 C.2       1 <0>         0.5583
     10 O1         -2.7613    2.7634    5.4608 O.2       1 <0>        -0.4949
     11 N1         -1.2894    1.1787    4.9562 N.am      1 <0>        -0.6174
     12 C10        -1.2833    1.5514    3.6218 C.2       1 <0>         0.0732
     13 C11        -0.5586    0.9983    2.5752 C.2       1 <0>        -0.2287
     14 C12        -0.7317    1.5801    1.2572 C.2       1 <0>        -0.0660
     15 C13        -1.6010    2.6147    1.1938 C.2       1 <0>        -0.2091
     16 S1         -2.1789    2.8207    2.8545 S.3       1 <0>         0.2332
     17 C14        -1.9794    3.4047   -0.0210 C.3       1 <0>        -0.0357
     18 C15        -0.9558    3.1107   -1.1273 C.3       1 <0>        -0.1143
     19 C16        -0.7582    1.5954   -1.2267 C.3       1 <0>        -0.1196
     20 C17        -0.0127    1.0858    0.0080 C.3       1 <0>        -0.0609
     21 C18         0.3508   -0.1308    2.7931 C.2       1 <0>         0.5844
     22 O2         -0.0608   -1.2718    2.6930 O.2       1 <0>        -0.5331
     23 N2          1.6426    0.0948    3.1044 N.am      1 <0>        -0.8480
     24 H1         -2.8641   -0.4623   11.5414 H         1 <0>         0.0786
     25 H2         -1.1201   -0.1222   11.6454 H         1 <0>         0.0712
     26 H3         -2.3000    1.1627   11.9990 H         1 <0>         0.0764
     27 H4         -0.6709   -0.8046    9.3638 H         1 <0>         0.1331
     28 H5         -0.6591   -0.1566    6.9914 H         1 <0>         0.1235
     29 H6         -3.4949    2.9461    7.8449 H         1 <0>         0.1402
     30 H7         -4.7223    2.0075   10.5438 H         1 <0>         0.0757
     31 H8         -3.2744    2.4589   11.4755 H         1 <0>         0.0748
     32 H9         -3.8608    3.5202   10.1723 H         1 <0>         0.0707
     33 H10        -0.7347    0.4418    5.2565 H         1 <0>         0.4181
     34 H11        -1.9695    4.4687    0.2152 H         1 <0>         0.0814
     35 H12        -2.9749    3.1113   -0.3544 H         1 <0>         0.0830
     36 H13        -0.0067    3.5877   -0.8829 H         1 <0>         0.0679
     37 H14        -1.3232    3.4945   -2.0791 H         1 <0>         0.0742
     38 H15        -0.1792    1.3636   -2.1206 H         1 <0>         0.0705
     39 H16        -1.7312    1.1079   -1.2890 H         1 <0>         0.0675
     40 H17         0.0021   -0.0041    0.0020 H         1 <0>         0.0750
     41 H18         1.0091    1.4652    0.0003 H         1 <0>         0.0764
     42 H19         1.9706    1.0041    3.1841 H         1 <0>         0.4038
     43 H20         2.2443   -0.6523    3.2486 H         1 <0>         0.4033
@<TRIPOS>BOND
     1    1    2 1
     2    1   24 1
     3    1   25 1
     4    1   26 1
     5    2    7 ar
     6    2    3 ar
     7    3    4 ar
     8    3   27 1
     9    4    5 ar
    10    4   28 1
    11    5    6 ar
    12    5    9 1
    13    6    7 ar
    14    6   29 1
    15    7    8 1
    16    8   30 1
    17    8   31 1
    18    8   32 1
    19    9   10 2
    20    9   11 am
    21   11   12 1
    22   11   33 1
    23   12   16 1
    24   12   13 2
    25   13   14 1
    26   13   21 1
    27   14   20 1
    28   14   15 2
    29   15   16 1
    30   15   17 1
    31   17   18 1
    32   17   34 1
    33   17   35 1
    34   18   19 1
    35   18   36 1
    36   18   37 1
    37   19   20 1
    38   19   38 1
    39   19   39 1
    40   20   40 1
    41   20   41 1
    42   21   22 2
    43   21   23 am
    44   23   42 1
    45   23   43 1
@<TRIPOS>MOLECULE
ZINC00038763
   41    43     0     0     0
SMALL
USER_CHARGES
2-(4-methoxybenzoyl)amino-4,5,6,7-tetrahydrobenzothiophene-3-carboxamide
@<TRIPOS>ATOM
      1 C1         -1.2481   -0.7598   11.6061 C.3       1 <0>         0.0223
      2 O1         -2.0890    0.3341   11.2343 O.3       1 <0>        -0.3093
      3 C2         -2.0830    0.6991    9.9272 C.ar      1 <0>         0.1652
      4 C3         -2.8784    1.7556    9.4990 C.ar      1 <0>        -0.1589
      5 C4         -2.8753    2.1292    8.1737 C.ar      1 <0>        -0.0090
      6 C5         -2.0709    1.4445    7.2586 C.ar      1 <0>        -0.1809
      7 C6         -1.2766    0.3794    7.6923 C.ar      1 <0>        -0.0397
      8 C7         -1.2812    0.0159    9.0204 C.ar      1 <0>        -0.2158
      9 C8         -2.0648    1.8411    5.8374 C.2       1 <0>         0.5616
     10 O2         -2.7602    2.7647    5.4610 O.2       1 <0>        -0.4968
     11 N1         -1.2883    1.1796    4.9565 N.am      1 <0>        -0.6187
     12 C9         -1.2826    1.5520    3.6221 C.2       1 <0>         0.0739
     13 C10        -0.5582    0.9986    2.5753 C.2       1 <0>        -0.2297
     14 C11        -0.7317    1.5801    1.2572 C.2       1 <0>        -0.0661
     15 C12        -1.6010    2.6146    1.1938 C.2       1 <0>        -0.2095
     16 S1         -2.1784    2.8211    2.8546 S.3       1 <0>         0.2344
     17 C13        -1.9794    3.4046   -0.0209 C.3       1 <0>        -0.0358
     18 C14        -0.9558    3.1107   -1.1273 C.3       1 <0>        -0.1143
     19 C15        -0.7582    1.5954   -1.2267 C.3       1 <0>        -0.1196
     20 C16        -0.0127    1.0858    0.0080 C.3       1 <0>        -0.0609
     21 C17         0.3512   -0.1304    2.7933 C.2       1 <0>         0.5845
     22 O3         -0.0605   -1.2715    2.6936 O.2       1 <0>        -0.5335
     23 N2          1.6431    0.0952    3.1041 N.am      1 <0>        -0.8481
     24 H1         -0.2112   -0.5160   11.3749 H         1 <0>         0.0602
     25 H2         -1.3475   -0.9474   12.6753 H         1 <0>         0.1060
     26 H3         -1.5442   -1.6505   11.0519 H         1 <0>         0.0605
     27 H4         -3.5001    2.2840   10.2067 H         1 <0>         0.1440
     28 H5         -3.4933    2.9504    7.8419 H         1 <0>         0.1486
     29 H6         -0.6570   -0.1551    6.9874 H         1 <0>         0.1270
     30 H7         -0.6644   -0.8042    9.3571 H         1 <0>         0.1390
     31 H8         -0.7336    0.4427    5.2568 H         1 <0>         0.4172
     32 H9         -1.9695    4.4687    0.2153 H         1 <0>         0.0815
     33 H10        -2.9749    3.1113   -0.3543 H         1 <0>         0.0830
     34 H11        -0.0067    3.5877   -0.8829 H         1 <0>         0.0679
     35 H12        -1.3232    3.4945   -2.0790 H         1 <0>         0.0741
     36 H13        -0.1792    1.3636   -2.1206 H         1 <0>         0.0704
     37 H14        -1.7312    1.1079   -1.2890 H         1 <0>         0.0675
     38 H15         0.0021   -0.0041    0.0020 H         1 <0>         0.0748
     39 H16         1.0091    1.4652    0.0003 H         1 <0>         0.0762
     40 H17         1.9712    1.0046    3.1835 H         1 <0>         0.4038
     41 H18         2.2448   -0.6518    3.2483 H         1 <0>         0.4030
@<TRIPOS>BOND
     1    1    2 1
     2    1   24 1
     3    1   25 1
     4    1   26 1
     5    2    3 1
     6    3    8 ar
     7    3    4 ar
     8    4    5 ar
     9    4   27 1
    10    5    6 ar
    11    5   28 1
    12    6    7 ar
    13    6    9 1
    14    7    8 ar
    15    7   29 1
    16    8   30 1
    17    9   10 2
    18    9   11 am
    19   11   12 1
    20   11   31 1
    21   12   16 1
    22   12   13 2
    23   13   14 1
    24   13   21 1
    25   14   20 1
    26   14   15 2
    27   15   16 1
    28   15   17 1
    29   17   18 1
    30   17   32 1
    31   17   33 1
    32   18   19 1
    33   18   34 1
    34   18   35 1
    35   19   20 1
    36   19   36 1
    37   19   37 1
    38   20   38 1
    39   20   39 1
    40   21   22 2
    41   21   23 am
    42   23   40 1
    43   23   41 1
@<TRIPOS>MOLECULE
ZINC00941058
   49    51     0     0     0
SMALL
USER_CHARGES
2-[3-(3,4-dimethoxyphenyl)prop-2-enoylamino]-4,5,6,7-tetrahydrobenzothiophene-3-carboxamide
@<TRIPOS>ATOM
      1 C1         -2.0242   -0.4956   13.8905 C.3       1 <0>         0.0234
      2 O1         -2.8666    0.5983   13.5220 O.3       1 <0>        -0.3019
      3 C2         -2.8632    0.9660   12.2145 C.ar      1 <0>         0.1212
      4 C3         -2.0636    0.2852   11.3060 C.ar      1 <0>        -0.1788
      5 C4         -2.0558    0.6533    9.9787 C.ar      1 <0>        -0.0872
      6 C5         -2.8555    1.7162    9.5431 C.ar      1 <0>        -0.0869
      7 C6         -3.6568    2.4055   10.4606 C.ar      1 <0>        -0.1431
      8 C7         -3.6624    2.0263   11.7884 C.ar      1 <0>         0.0970
      9 O2         -4.4436    2.6904   12.6818 O.3       1 <0>        -0.3045
     10 C8         -5.2367    3.7662   12.1761 C.3       1 <0>         0.0234
     11 C9         -2.8493    2.1113    8.1274 C.2       1 <0>         0.0152
     12 C10        -2.0713    1.4485    7.2449 C.2       1 <0>        -0.2288
     13 C11        -2.0652    1.8413    5.8369 C.2       1 <0>         0.5470
     14 O3         -2.7614    2.7660    5.4600 O.2       1 <0>        -0.5055
     15 N1         -1.2887    1.1798    4.9561 N.am      1 <0>        -0.6165
     16 C12        -1.2828    1.5520    3.6221 C.2       1 <0>         0.0746
     17 C13        -0.5582    0.9985    2.5753 C.2       1 <0>        -0.2307
     18 C14        -0.7317    1.5801    1.2573 C.2       1 <0>        -0.0659
     19 C15        -1.6010    2.6146    1.1938 C.2       1 <0>        -0.2108
     20 S1         -2.1785    2.8211    2.8546 S.3       1 <0>         0.2325
     21 C16        -1.9794    3.4046   -0.0209 C.3       1 <0>        -0.0356
     22 C17        -0.9558    3.1107   -1.1273 C.3       1 <0>        -0.1143
     23 C18        -0.7582    1.5954   -1.2267 C.3       1 <0>        -0.1196
     24 C19        -0.0127    1.0858    0.0080 C.3       1 <0>        -0.0610
     25 C20         0.3511   -0.1304    2.7933 C.2       1 <0>         0.5851
     26 O4         -0.0606   -1.2715    2.6935 O.2       1 <0>        -0.5338
     27 N2          1.6430    0.0952    3.1041 N.am      1 <0>        -0.8480
     28 H1         -2.1216   -0.6851   14.9595 H         1 <0>         0.1041
     29 H2         -2.3207   -1.3855   13.3353 H         1 <0>         0.0579
     30 H3         -0.9879   -0.2506   13.6579 H         1 <0>         0.0578
     31 H4         -1.4458   -0.5349   11.6411 H         1 <0>         0.1416
     32 H5         -1.4326    0.1223    9.2744 H         1 <0>         0.1339
     33 H6         -4.2720    3.2295   10.1303 H         1 <0>         0.1432
     34 H7         -5.9189    3.3880   11.4149 H         1 <0>         0.0571
     35 H8         -5.8102    4.2088   12.9905 H         1 <0>         0.1039
     36 H9         -4.5858    4.5224   11.7373 H         1 <0>         0.0570
     37 H10        -3.4670    2.9317    7.7929 H         1 <0>         0.1400
     38 H11        -1.4536    0.6281    7.5793 H         1 <0>         0.1362
     39 H12        -0.7339    0.4429    5.2564 H         1 <0>         0.4200
     40 H13        -1.9695    4.4687    0.2153 H         1 <0>         0.0811
     41 H14        -2.9749    3.1113   -0.3543 H         1 <0>         0.0826
     42 H15        -0.0067    3.5877   -0.8829 H         1 <0>         0.0678
     43 H16        -1.3232    3.4945   -2.0790 H         1 <0>         0.0740
     44 H17        -0.1792    1.3636   -2.1206 H         1 <0>         0.0703
     45 H18        -1.7312    1.1079   -1.2890 H         1 <0>         0.0674
     46 H19         0.0021   -0.0041    0.0020 H         1 <0>         0.0748
     47 H20         1.0091    1.4652    0.0003 H         1 <0>         0.0762
     48 H21         1.9710    1.0046    3.1836 H         1 <0>         0.4036
     49 H22         2.2447   -0.6518    3.2483 H         1 <0>         0.4030
@<TRIPOS>BOND
     1    1    2 1
     2    1   28 1
     3    1   29 1
     4    1   30 1
     5    2    3 1
     6    3    8 ar
     7    3    4 ar
     8    4    5 ar
     9    4   31 1
    10    5    6 ar
    11    5   32 1
    12    6    7 ar
    13    6   11 1
    14    7    8 ar
    15    7   33 1
    16    8    9 1
    17    9   10 1
    18   10   34 1
    19   10   35 1
    20   10   36 1
    21   11   12 2
    22   11   37 1
    23   12   13 1
    24   12   38 1
    25   13   14 2
    26   13   15 am
    27   15   16 1
    28   15   39 1
    29   16   20 1
    30   16   17 2
    31   17   18 1
    32   17   25 1
    33   18   24 1
    34   18   19 2
    35   19   20 1
    36   19   21 1
    37   21   22 1
    38   21   40 1
    39   21   41 1
    40   22   23 1
    41   22   42 1
    42   22   43 1
    43   23   24 1
    44   23   44 1
    45   23   45 1
    46   24   46 1
    47   24   47 1
    48   25   26 2
    49   25   27 am
    50   27   48 1
    51   27   49 1
@<TRIPOS>MOLECULE
ZINC00046844
   43    45     0     0     0
SMALL
USER_CHARGES
2-(3-phenylpropanoylamino)-4,5,6,7-tetrahydrobenzothiophene-3-carboxamide
@<TRIPOS>ATOM
      1 C1          1.3369    0.1643    4.7277 C.ar      1 <0>        -0.1215
      2 C2          1.6804    1.3801    4.1666 C.ar      1 <0>        -0.1181
      3 C3          1.0121    1.8378    3.0465 C.ar      1 <0>        -0.1157
      4 C4          0.0000    1.0800    2.4877 C.ar      1 <0>        -0.0877
      5 C5         -0.3473   -0.1331    3.0522 C.ar      1 <0>        -0.1153
      6 C6          0.3245   -0.5933    4.1692 C.ar      1 <0>        -0.1176
      7 C7         -0.7288    1.5792    1.2668 C.3       1 <0>        -0.0655
      8 C8         -0.0127    1.0858    0.0080 C.3       1 <0>        -0.1291
      9 C9         -0.7416    1.5850   -1.2129 C.2       1 <0>         0.5086
     10 O1         -1.7359    2.2682   -1.0884 O.2       1 <0>        -0.4956
     11 N1         -0.2884    1.2723   -2.4431 N.am      1 <0>        -0.6227
     12 C10        -0.9591    1.7317   -3.5664 C.2       1 <0>         0.0724
     13 C11        -0.6472    1.5227   -4.9024 C.2       1 <0>        -0.2301
     14 C12        -1.5231    2.1175   -5.8975 C.2       1 <0>        -0.0658
     15 C13        -2.5580    2.8295   -5.4009 C.2       1 <0>        -0.2087
     16 S1         -2.3856    2.7121   -3.6428 S.3       1 <0>         0.2299
     17 C14        -3.6118    3.5545   -6.1797 C.3       1 <0>        -0.0361
     18 C15        -3.1349    3.6849   -7.6336 C.3       1 <0>        -0.1142
     19 C16        -2.6282    2.3209   -8.1108 C.3       1 <0>        -0.1196
     20 C17        -1.3183    1.9750   -7.4006 C.3       1 <0>        -0.0613
     21 C18         0.5206    0.7279   -5.2952 C.2       1 <0>         0.5849
     22 O2          0.4116   -0.4729   -5.4610 O.2       1 <0>        -0.5337
     23 N2          1.7148    1.3270   -5.4726 N.am      1 <0>        -0.8479
     24 H1          1.8593   -0.1934    5.6027 H         1 <0>         0.1221
     25 H2          2.4712    1.9722    4.6032 H         1 <0>         0.1227
     26 H3          1.2805    2.7877    2.6081 H         1 <0>         0.1220
     27 H4         -1.1410   -0.7231    2.6182 H         1 <0>         0.1224
     28 H5          0.0559   -1.5429    4.6078 H         1 <0>         0.1229
     29 H6         -0.7436    2.6691    1.2728 H         1 <0>         0.0839
     30 H7         -1.7514    1.2020    1.2746 H         1 <0>         0.0840
     31 H8          0.0021   -0.0041    0.0020 H         1 <0>         0.1045
     32 H9          1.0099    1.4631    0.0003 H         1 <0>         0.1039
     33 H10         0.5068    0.7259   -2.5426 H         1 <0>         0.4197
     34 H11        -4.5444    2.9912   -6.1483 H         1 <0>         0.0828
     35 H12        -3.7669    4.5456   -5.7533 H         1 <0>         0.0813
     36 H13        -3.9647    4.0070   -8.2628 H         1 <0>         0.0741
     37 H14        -2.3287    4.4164   -7.6894 H         1 <0>         0.0681
     38 H15        -3.3742    1.5586   -7.8861 H         1 <0>         0.0676
     39 H16        -2.4575    2.3542   -9.1869 H         1 <0>         0.0704
     40 H17        -1.0353    0.9488   -7.6352 H         1 <0>         0.0750
     41 H18        -0.5330    2.6551   -7.7307 H         1 <0>         0.0765
     42 H19         1.8017    2.2840   -5.3404 H         1 <0>         0.4035
     43 H20         2.4874    0.8012   -5.7325 H         1 <0>         0.4032
@<TRIPOS>BOND
     1    1    6 ar
     2    1    2 ar
     3    1   24 1
     4    2    3 ar
     5    2   25 1
     6    3    4 ar
     7    3   26 1
     8    4    5 ar
     9    4    7 1
    10    5    6 ar
    11    5   27 1
    12    6   28 1
    13    7    8 1
    14    7   29 1
    15    7   30 1
    16    8    9 1
    17    8   31 1
    18    8   32 1
    19    9   10 2
    20    9   11 am
    21   11   12 1
    22   11   33 1
    23   12   16 1
    24   12   13 2
    25   13   14 1
    26   13   21 1
    27   14   20 1
    28   14   15 2
    29   15   16 1
    30   15   17 1
    31   17   18 1
    32   17   34 1
    33   17   35 1
    34   18   19 1
    35   18   36 1
    36   18   37 1
    37   19   20 1
    38   19   38 1
    39   19   39 1
    40   20   40 1
    41   20   41 1
    42   21   22 2
    43   21   23 am
    44   23   42 1
    45   23   43 1
@<TRIPOS>MOLECULE
ZINC06128122
   47    49     0     0     0
SMALL
USER_CHARGES
2-[3-(4-methoxyphenyl)propanoylamino]-4,5,6,7-tetrahydrobenzothiophene-3-carboxamide
@<TRIPOS>ATOM
      1 C1          2.4257    4.1084    0.0005 C.3       1 <0>         0.0264
      2 O1          1.1601    3.4449    0.0090 O.3       1 <0>        -0.3179
      3 C2          1.1759    2.0860    0.0020 C.ar      1 <0>         0.1263
      4 C3         -0.0167    1.3772    0.0096 C.ar      1 <0>        -0.1499
      5 C4          0.0021   -0.0041    0.0020 C.ar      1 <0>        -0.0742
      6 C5          1.2080   -0.6802   -0.0131 C.ar      1 <0>        -0.1255
      7 C6          2.3980    0.0239   -0.0207 C.ar      1 <0>        -0.0735
      8 C7          2.3846    1.4052   -0.0127 C.ar      1 <0>        -0.2061
      9 C8          1.2256   -2.1871   -0.0209 C.3       1 <0>        -0.0600
     10 C9          1.2174   -2.6898   -1.4659 C.3       1 <0>        -0.1300
     11 C10         1.2349   -4.1966   -1.4737 C.2       1 <0>         0.5083
     12 O2          1.2522   -4.8083   -0.4266 O.2       1 <0>        -0.4957
     13 N1          1.2314   -4.8646   -2.6443 N.am      1 <0>        -0.6230
     14 C11         1.2475   -6.2511   -2.6514 C.2       1 <0>         0.0728
     15 C12         1.2413   -7.1079   -3.7430 C.2       1 <0>        -0.2304
     16 C13         1.2652   -8.5359   -3.4760 C.2       1 <0>        -0.0658
     17 C14         1.2814   -8.8765   -2.1691 C.2       1 <0>        -0.2090
     18 S1          1.2727   -7.3345   -1.2995 S.3       1 <0>         0.2301
     19 C15         1.3014  -10.2602   -1.5965 C.3       1 <0>        -0.0361
     20 C16         0.9232  -11.2494   -2.7085 C.3       1 <0>        -0.1142
     21 C17         1.7444  -10.9231   -3.9593 C.3       1 <0>        -0.1196
     22 C18         1.2671   -9.6019   -4.5648 C.3       1 <0>        -0.0613
     23 C19         1.2155   -6.5912   -5.1149 C.2       1 <0>         0.5850
     24 O3          2.2587   -6.3653   -5.6998 O.2       1 <0>        -0.5340
     25 N2          0.0367   -6.3664   -5.7283 N.am      1 <0>        -0.8479
     26 H1          2.9777    3.8266   -0.8961 H         1 <0>         0.0561
     27 H2          2.2703    5.1873    0.0074 H         1 <0>         0.1015
     28 H3          2.9944    3.8176    0.8838 H         1 <0>         0.0563
     29 H4         -0.9589    1.9049    0.0169 H         1 <0>         0.1316
     30 H5         -0.9260   -0.5563    0.0083 H         1 <0>         0.1300
     31 H6          3.3387   -0.5065   -0.0325 H         1 <0>         0.1256
     32 H7          3.3144    1.9547   -0.0186 H         1 <0>         0.1288
     33 H8          2.1247   -2.5426    0.4824 H         1 <0>         0.0826
     34 H9          0.3449   -2.5634    0.4997 H         1 <0>         0.0834
     35 H10         0.3183   -2.3343   -1.9692 H         1 <0>         0.1040
     36 H11         2.0981   -2.3135   -1.9865 H         1 <0>         0.1037
     37 H12         1.2176   -4.3754   -3.4818 H         1 <0>         0.4196
     38 H13         2.3001  -10.4896   -1.2251 H         1 <0>         0.0827
     39 H14         0.5814  -10.3306   -0.7811 H         1 <0>         0.0813
     40 H15         1.1419  -12.2663   -2.3829 H         1 <0>         0.0740
     41 H16        -0.1396  -11.1582   -2.9327 H         1 <0>         0.0681
     42 H17         2.7970  -10.8384   -3.6894 H         1 <0>         0.0675
     43 H18         1.6213  -11.7210   -4.6916 H         1 <0>         0.0703
     44 H19         1.9413   -9.3032   -5.3675 H         1 <0>         0.0749
     45 H20         0.2591   -9.7245   -4.9609 H         1 <0>         0.0764
     46 H21        -0.7947   -6.5464   -5.2622 H         1 <0>         0.4035
     47 H22         0.0196   -6.0245   -6.6360 H         1 <0>         0.4032
@<TRIPOS>BOND
     1    1    2 1
     2    1   26 1
     3    1   27 1
     4    1   28 1
     5    2    3 1
     6    3    8 ar
     7    3    4 ar
     8    4    5 ar
     9    4   29 1
    10    5    6 ar
    11    5   30 1
    12    6    7 ar
    13    6    9 1
    14    7    8 ar
    15    7   31 1
    16    8   32 1
    17    9   10 1
    18    9   33 1
    19    9   34 1
    20   10   11 1
    21   10   35 1
    22   10   36 1
    23   11   12 2
    24   11   13 am
    25   13   14 1
    26   13   37 1
    27   14   18 1
    28   14   15 2
    29   15   16 1
    30   15   23 1
    31   16   22 1
    32   16   17 2
    33   17   18 1
    34   17   19 1
    35   19   20 1
    36   19   38 1
    37   19   39 1
    38   20   21 1
    39   20   40 1
    40   20   41 1
    41   21   22 1
    42   21   42 1
    43   21   43 1
    44   22   44 1
    45   22   45 1
    46   23   24 2
    47   23   25 am
    48   25   46 1
    49   25   47 1
@<TRIPOS>MOLECULE
ZINC02780061
   48    50     0     0     0
SMALL
USER_CHARGES
9-(3,4-dimethoxybenzoyl)amino-8-thiabicyclo[5.3.0]deca-9,11-diene-10-carboxamide
@<TRIPOS>ATOM
      1 C1         10.1192   -6.6181    4.8507 C.3       1 <0>         0.0215
      2 O1         10.5434   -5.6985    3.8425 O.3       1 <0>        -0.2982
      3 C2          9.5906   -4.8997    3.2964 C.ar      1 <0>         0.1383
      4 C3          8.2736   -5.0005    3.7243 C.ar      1 <0>        -0.1811
      5 C4          7.3043   -4.1880    3.1777 C.ar      1 <0>        -0.0744
      6 C5          7.6435   -3.2681    2.1822 C.ar      1 <0>        -0.1399
      7 C6          8.9691   -3.1666    1.7514 C.ar      1 <0>        -0.1071
      8 C7          9.9371   -3.9801    2.3076 C.ar      1 <0>         0.0947
      9 O2         11.2279   -3.8842    1.8903 O.3       1 <0>        -0.3016
     10 C8         11.5112   -2.9208    0.8737 C.3       1 <0>         0.0219
     11 C9          6.6056   -2.4016    1.5914 C.2       1 <0>         0.5621
     12 O3          6.9032   -1.5981    0.7287 O.2       1 <0>        -0.4961
     13 N1          5.3277   -2.5007    2.0080 N.am      1 <0>        -0.6171
     14 C10         4.3531   -1.6871    1.4532 C.2       1 <0>         0.0737
     15 C11         2.9989   -1.6417    1.7464 C.2       1 <0>        -0.2309
     16 C12         2.1792   -0.6844    1.0159 C.2       1 <0>        -0.0620
     17 C13         2.8464    0.0614    0.1096 C.2       1 <0>        -0.2029
     18 S1          4.5302   -0.4793    0.2248 S.3       1 <0>         0.2296
     19 C14         2.2878    1.1047   -0.8070 C.3       1 <0>        -0.0389
     20 C15         1.4063    2.0676   -0.0003 C.3       1 <0>        -0.1139
     21 C16        -0.0186    1.5231    0.0104 C.3       1 <0>        -0.1216
     22 C17         0.0021   -0.0041    0.0020 C.3       1 <0>        -0.1249
     23 C18         0.6825   -0.5347    1.2591 C.3       1 <0>        -0.0582
     24 C19         2.4120   -2.5265    2.7573 C.2       1 <0>         0.5839
     25 O4          1.9830   -3.6189    2.4346 O.2       1 <0>        -0.5330
     26 N2          2.3475   -2.1303    4.0439 N.am      1 <0>        -0.8482
     27 H1          9.6849   -6.0675    5.6852 H         1 <0>         0.0595
     28 H2          9.3730   -7.2949    4.4344 H         1 <0>         0.0598
     29 H3         10.9760   -7.1933    5.2015 H         1 <0>         0.1061
     30 H4          8.0092   -5.7142    4.4905 H         1 <0>         0.1469
     31 H5          6.2814   -4.2653    3.5156 H         1 <0>         0.1297
     32 H6          9.2362   -2.4535    0.9855 H         1 <0>         0.1536
     33 H7         10.9313   -3.1537   -0.0193 H         1 <0>         0.0589
     34 H8         11.2443   -1.9262    1.2311 H         1 <0>         0.0587
     35 H9         12.5742   -2.9475    0.6339 H         1 <0>         0.1057
     36 H10         5.0903   -3.1417    2.6962 H         1 <0>         0.4181
     37 H11         3.1050    1.6592   -1.2683 H         1 <0>         0.0752
     38 H12         1.6892    0.6257   -1.5817 H         1 <0>         0.0902
     39 H13         1.4186    3.0530   -0.4661 H         1 <0>         0.0711
     40 H14         1.7796    2.1373    1.0215 H         1 <0>         0.0673
     41 H15        -0.5493    1.8822   -0.8714 H         1 <0>         0.0648
     42 H16        -0.5323    1.8726    0.9060 H         1 <0>         0.0634
     43 H17        -1.0209   -0.3781   -0.0392 H         1 <0>         0.0664
     44 H18         0.5456   -0.3523   -0.8763 H         1 <0>         0.0744
     45 H19         0.5173    0.1615    2.0814 H         1 <0>         0.0769
     46 H20         0.2602   -1.5059    1.5167 H         1 <0>         0.0708
     47 H21         2.6894   -1.2597    4.3010 H         1 <0>         0.4037
     48 H22         1.9592   -2.7158    4.7127 H         1 <0>         0.4031
@<TRIPOS>BOND
     1    1    2 1
     2    1   27 1
     3    1   28 1
     4    1   29 1
     5    2    3 1
     6    3    8 ar
     7    3    4 ar
     8    4    5 ar
     9    4   30 1
    10    5    6 ar
    11    5   31 1
    12    6    7 ar
    13    6   11 1
    14    7    8 ar
    15    7   32 1
    16    8    9 1
    17    9   10 1
    18   10   33 1
    19   10   34 1
    20   10   35 1
    21   11   12 2
    22   11   13 am
    23   13   14 1
    24   13   36 1
    25   14   18 1
    26   14   15 2
    27   15   16 1
    28   15   24 1
    29   16   23 1
    30   16   17 2
    31   17   18 1
    32   17   19 1
    33   19   20 1
    34   19   37 1
    35   19   38 1
    36   20   21 1
    37   20   39 1
    38   20   40 1
    39   21   22 1
    40   21   41 1
    41   21   42 1
    42   22   23 1
    43   22   43 1
    44   22   44 1
    45   23   45 1
    46   23   46 1
    47   24   25 2
    48   24   26 am
    49   26   47 1
    50   26   48 1
@<TRIPOS>MOLECULE
ZINC00126964
   36    38     0     0     0
SMALL
USER_CHARGES

@<TRIPOS>ATOM
      1 C1         -0.0167    1.3789    0.0096 C.ar      1 <0>        -0.1756
      2 C2          1.1807    2.0727    0.0019 C.ar      1 <0>        -0.0074
      3 C3          2.3728    1.3385   -0.0134 C.ar      1 <0>        -0.1925
      4 C4          2.3057   -0.0557   -0.0203 C.ar      1 <0>         0.1405
      5 N1          1.1412   -0.6700   -0.0124 N.ar      1 <0>        -0.4830
      6 C5          0.0021   -0.0041    0.0020 C.ar      1 <0>         0.1317
      7 C6          3.6799    2.0281   -0.0227 C.2       1 <0>         0.5629
      8 O1          3.7264    3.2428   -0.0170 O.2       1 <0>        -0.4916
      9 N2          4.8205    1.3101   -0.0374 N.am      1 <0>        -0.6157
     10 C7          6.0459    1.9565   -0.0461 C.2       1 <0>         0.0356
     11 C8          7.3097    1.3871   -0.0669 C.2       1 <0>        -0.2331
     12 C9          8.4457    2.2923   -0.0727 C.2       1 <0>        -0.0622
     13 C10         8.1099    3.6003   -0.0562 C.2       1 <0>        -0.2222
     14 S1          6.3412    3.6096   -0.0412 S.3       1 <0>         0.2900
     15 C11         9.0458    4.7693   -0.0550 C.3       1 <0>        -0.0353
     16 C12        10.4501    4.2623    0.3050 C.3       1 <0>        -0.1143
     17 C13        10.7655    3.0294   -0.5468 C.3       1 <0>        -0.1197
     18 C14         9.9013    1.8498   -0.0959 C.3       1 <0>        -0.0604
     19 C15         7.4920   -0.0675   -0.0821 C.2       1 <0>         0.5842
     20 O2          7.5550   -0.6619   -1.1423 O.2       1 <0>        -0.5327
     21 N3          7.5900   -0.7465    1.0780 N.am      1 <0>        -0.8479
     22 H1         -0.9559    1.9118    0.0259 H         1 <0>         0.1498
     23 H2          1.1953    3.1526    0.0072 H         1 <0>         0.1531
     24 H3          3.2168   -0.6355   -0.0324 H         1 <0>         0.1558
     25 H4         -0.9310   -0.5479    0.0080 H         1 <0>         0.1676
     26 H5          4.7834    0.3408   -0.0419 H         1 <0>         0.4179
     27 H6          9.0629    5.2273   -1.0440 H         1 <0>         0.0828
     28 H7          8.7188    5.5011    0.6837 H         1 <0>         0.0816
     29 H8         11.1832    5.0431    0.1026 H         1 <0>         0.0742
     30 H9         10.4819    3.9943    1.3611 H         1 <0>         0.0680
     31 H10        10.5585    3.2503   -1.5939 H         1 <0>         0.0675
     32 H11        11.8183    2.7710   -0.4339 H         1 <0>         0.0706
     33 H12        10.2040    1.5359    0.9031 H         1 <0>         0.0772
     34 H13        10.0204    1.0211   -0.7939 H         1 <0>         0.0757
     35 H14         7.5398   -0.2727    1.9230 H         1 <0>         0.4036
     36 H15         7.7106   -1.7089    1.0680 H         1 <0>         0.4036
@<TRIPOS>BOND
     1    1    6 ar
     2    1    2 ar
     3    1   22 1
     4    2    3 ar
     5    2   23 1
     6    3    4 ar
     7    3    7 1
     8    4    5 ar
     9    4   24 1
    10    5    6 ar
    11    6   25 1
    12    7    8 2
    13    7    9 am
    14    9   10 1
    15    9   26 1
    16   10   14 1
    17   10   11 2
    18   11   12 1
    19   11   19 1
    20   12   18 1
    21   12   13 2
    22   13   14 1
    23   13   15 1
    24   15   16 1
    25   15   27 1
    26   15   28 1
    27   16   17 1
    28   16   29 1
    29   16   30 1
    30   17   18 1
    31   17   31 1
    32   17   32 1
    33   18   33 1
    34   18   34 1
    35   19   20 2
    36   19   21 am
    37   21   35 1
    38   21   36 1
@<TRIPOS>MOLECULE
ZINC00035678
   40    42     0     0     0
SMALL
USER_CHARGES
2-(4-methylbenzoyl)amino-4,5,6,7-tetrahydrobenzothiophene-3-carboxamide
@<TRIPOS>ATOM
      1 C1         -2.0929    0.2907   11.3787 C.3       1 <0>        -0.1237
      2 C2         -2.0859    0.6964    9.9274 C.ar      1 <0>        -0.0490
      3 C3         -2.8777    1.7486    9.5026 C.ar      1 <0>        -0.1277
      4 C4         -2.8760    2.1252    8.1755 C.ar      1 <0>        -0.0459
      5 C5         -2.0726    1.4424    7.2605 C.ar      1 <0>        -0.1464
      6 C6         -1.2798    0.3786    7.6949 C.ar      1 <0>        -0.0787
      7 C7         -1.2873    0.0154    9.0257 C.ar      1 <0>        -0.1267
      8 C8         -2.0661    1.8400    5.8371 C.2       1 <0>         0.5579
      9 O1         -2.7613    2.7634    5.4608 O.2       1 <0>        -0.4949
     10 N1         -1.2894    1.1787    4.9562 N.am      1 <0>        -0.6176
     11 C9         -1.2833    1.5514    3.6218 C.2       1 <0>         0.0729
     12 C10        -0.5586    0.9983    2.5752 C.2       1 <0>        -0.2285
     13 C11        -0.7317    1.5801    1.2572 C.2       1 <0>        -0.0661
     14 C12        -1.6010    2.6147    1.1938 C.2       1 <0>        -0.2089
     15 S1         -2.1790    2.8207    2.8545 S.3       1 <0>         0.2333
     16 C13        -1.9794    3.4047   -0.0210 C.3       1 <0>        -0.0358
     17 C14        -0.9558    3.1107   -1.1273 C.3       1 <0>        -0.1143
     18 C15        -0.7582    1.5954   -1.2267 C.3       1 <0>        -0.1196
     19 C16        -0.0127    1.0858    0.0080 C.3       1 <0>        -0.0609
     20 C17         0.3508   -0.1308    2.7931 C.2       1 <0>         0.5843
     21 O2         -0.0608   -1.2718    2.6930 O.2       1 <0>        -0.5331
     22 N2          1.6426    0.0948    3.1044 N.am      1 <0>        -0.8480
     23 H1         -2.8644   -0.4618   11.5419 H         1 <0>         0.0786
     24 H2         -1.1201   -0.1226   11.6451 H         1 <0>         0.0720
     25 H3         -2.2993    1.1630   11.9989 H         1 <0>         0.0727
     26 H4         -3.4987    2.2760   10.2115 H         1 <0>         0.1348
     27 H5         -3.4945    2.9467    7.8452 H         1 <0>         0.1408
     28 H6         -0.6592   -0.1565    6.9914 H         1 <0>         0.1240
     29 H7         -0.6714   -0.8047    9.3639 H         1 <0>         0.1330
     30 H8         -0.7347    0.4418    5.2565 H         1 <0>         0.4180
     31 H9         -1.9695    4.4687    0.2152 H         1 <0>         0.0815
     32 H10        -2.9749    3.1113   -0.3544 H         1 <0>         0.0831
     33 H11        -0.0067    3.5877   -0.8829 H         1 <0>         0.0679
     34 H12        -1.3232    3.4945   -2.0791 H         1 <0>         0.0742
     35 H13        -0.1792    1.3636   -2.1206 H         1 <0>         0.0706
     36 H14        -1.7312    1.1079   -1.2890 H         1 <0>         0.0675
     37 H15         0.0021   -0.0041    0.0020 H         1 <0>         0.0750
     38 H16         1.0091    1.4652    0.0003 H         1 <0>         0.0764
     39 H17         1.9706    1.0041    3.1841 H         1 <0>         0.4038
     40 H18         2.2443   -0.6523    3.2486 H         1 <0>         0.4033
@<TRIPOS>BOND
     1    1    2 1
     2    1   23 1
     3    1   24 1
     4    1   25 1
     5    2    7 ar
     6    2    3 ar
     7    3    4 ar
     8    3   26 1
     9    4    5 ar
    10    4   27 1
    11    5    6 ar
    12    5    8 1
    13    6    7 ar
    14    6   28 1
    15    7   29 1
    16    8    9 2
    17    8   10 am
    18   10   11 1
    19   10   30 1
    20   11   15 1
    21   11   12 2
    22   12   13 1
    23   12   20 1
    24   13   19 1
    25   13   14 2
    26   14   15 1
    27   14   16 1
    28   16   17 1
    29   16   31 1
    30   16   32 1
    31   17   18 1
    32   17   33 1
    33   17   34 1
    34   18   19 1
    35   18   35 1
    36   18   36 1
    37   19   37 1
    38   19   38 1
    39   20   21 2
    40   20   22 am
    41   22   39 1
    42   22   40 1
@<TRIPOS>MOLECULE
ZINC01509539
   42    44     0     0     0
SMALL
USER_CHARGES
2-(4-acetylbenzoyl)amino-4,5,6,7-tetrahydrobenzothiophene-3-carboxamide
@<TRIPOS>ATOM
      1 C1         -1.2256   -0.8422   11.8214 C.3       1 <0>        -0.1932
      2 C2         -2.0873    0.3028   11.3549 C.2       1 <0>         0.3911
      3 O1         -2.7847    0.8986   12.1475 O.2       1 <0>        -0.4450
      4 C3         -2.0821    0.6982    9.9352 C.ar      1 <0>        -0.1389
      5 C4         -2.8813    1.7604    9.5018 C.ar      1 <0>        -0.0671
      6 C5         -2.8753    2.1293    8.1746 C.ar      1 <0>        -0.0624
      7 C6         -2.0712    1.4434    7.2625 C.ar      1 <0>        -0.1066
      8 C7         -1.2771    0.3790    7.6930 C.ar      1 <0>        -0.0971
      9 C8         -1.2775    0.0116    9.0207 C.ar      1 <0>        -0.0784
     10 C9         -2.0652    1.8411    5.8370 C.2       1 <0>         0.5539
     11 O2         -2.7602    2.7645    5.4608 O.2       1 <0>        -0.4878
     12 N1         -1.2892    1.1793    4.9560 N.am      1 <0>        -0.6150
     13 C10        -1.2836    1.5515    3.6218 C.2       1 <0>         0.0684
     14 C11        -0.5587    0.9984    2.5750 C.2       1 <0>        -0.2244
     15 C12        -0.7317    1.5801    1.2572 C.2       1 <0>        -0.0669
     16 C13        -1.6012    2.6148    1.1937 C.2       1 <0>        -0.2062
     17 S1         -2.1792    2.8207    2.8544 S.3       1 <0>         0.2348
     18 C14        -1.9795    3.4047   -0.0211 C.3       1 <0>        -0.0365
     19 C15        -0.9558    3.1107   -1.1273 C.3       1 <0>        -0.1144
     20 C16        -0.7583    1.5954   -1.2267 C.3       1 <0>        -0.1198
     21 C17        -0.0127    1.0858    0.0080 C.3       1 <0>        -0.0610
     22 C18         0.3507   -0.1308    2.7931 C.2       1 <0>         0.5837
     23 O3         -0.0609   -1.2718    2.6929 O.2       1 <0>        -0.5323
     24 N2          1.6425    0.0947    3.1044 N.am      1 <0>        -0.8478
     25 H1         -0.3286   -0.4946   12.0945 H         1 <0>         0.0907
     26 H2         -1.7003   -1.3310   12.6722 H         1 <0>         0.0927
     27 H3         -1.1054   -1.5604   11.0103 H         1 <0>         0.0884
     28 H4         -3.5029    2.2916   10.2074 H         1 <0>         0.1464
     29 H5         -3.4926    2.9498    7.8396 H         1 <0>         0.1486
     30 H6         -0.6590   -0.1540    6.9857 H         1 <0>         0.1318
     31 H7         -0.6594   -0.8088    9.3544 H         1 <0>         0.1452
     32 H8         -0.7345    0.4423    5.2563 H         1 <0>         0.4186
     33 H9         -1.9695    4.4688    0.2151 H         1 <0>         0.0820
     34 H10        -2.9749    3.1114   -0.3545 H         1 <0>         0.0836
     35 H11        -0.0067    3.5877   -0.8829 H         1 <0>         0.0681
     36 H12        -1.3231    3.4945   -2.0791 H         1 <0>         0.0746
     37 H13        -0.1792    1.3636   -2.1206 H         1 <0>         0.0709
     38 H14        -1.7312    1.1079   -1.2890 H         1 <0>         0.0677
     39 H15         0.0021   -0.0041    0.0020 H         1 <0>         0.0753
     40 H16         1.0091    1.4652    0.0003 H         1 <0>         0.0768
     41 H17         1.9705    1.0041    3.1842 H         1 <0>         0.4039
     42 H18         2.2442   -0.6523    3.2486 H         1 <0>         0.4036
@<TRIPOS>BOND
     1    1    2 1
     2    1   25 1
     3    1   26 1
     4    1   27 1
     5    2    3 2
     6    2    4 1
     7    4    9 ar
     8    4    5 ar
     9    5    6 ar
    10    5   28 1
    11    6    7 ar
    12    6   29 1
    13    7    8 ar
    14    7   10 1
    15    8    9 ar
    16    8   30 1
    17    9   31 1
    18   10   11 2
    19   10   12 am
    20   12   13 1
    21   12   32 1
    22   13   17 1
    23   13   14 2
    24   14   15 1
    25   14   22 1
    26   15   21 1
    27   15   16 2
    28   16   17 1
    29   16   18 1
    30   18   19 1
    31   18   33 1
    32   18   34 1
    33   19   20 1
    34   19   35 1
    35   19   36 1
    36   20   21 1
    37   20   37 1
    38   20   38 1
    39   21   39 1
    40   21   40 1
    41   22   23 2
    42   22   24 am
    43   24   41 1
    44   24   42 1
@<TRIPOS>MOLECULE
ZINC00127333
   40    42     0     0     0
SMALL
USER_CHARGES
2-(2-methylbenzoyl)amino-4,5,6,7-tetrahydrobenzothiophene-3-carboxamide
@<TRIPOS>ATOM
      1 C1          3.6168    3.1459   -0.2227 C.3       1 <0>        -0.1265
      2 C2          3.6346    1.6423   -0.1232 C.ar      1 <0>        -0.0126
      3 C3          4.7991    0.9464   -0.3751 C.ar      1 <0>        -0.1299
      4 C4          4.8172   -0.4339   -0.2838 C.ar      1 <0>        -0.0792
      5 C5          3.6693   -1.1260    0.0604 C.ar      1 <0>        -0.1322
      6 C6          2.4999   -0.4423    0.3200 C.ar      1 <0>        -0.0796
      7 C7          2.4732    0.9504    0.2244 C.ar      1 <0>        -0.1460
      8 C8          1.2224    1.6892    0.4962 C.2       1 <0>         0.5567
      9 O1          1.2282    2.9045    0.5242 O.2       1 <0>        -0.4890
     10 N1          0.0754    1.0156    0.7129 N.am      1 <0>        -0.6178
     11 C9         -1.0983    1.7083    0.9620 C.2       1 <0>         0.0744
     12 C10        -2.3679    1.1982    1.1955 C.2       1 <0>        -0.2299
     13 C11        -3.4396    2.1492    1.4368 C.2       1 <0>        -0.0653
     14 C12        -3.0753    3.4493    1.3950 C.2       1 <0>        -0.2089
     15 S1         -1.3391    3.4219    1.0502 S.3       1 <0>         0.2325
     16 C13        -3.9585    4.6417    1.5976 C.3       1 <0>        -0.0359
     17 C14        -5.4206    4.1844    1.4910 C.3       1 <0>        -0.1142
     18 C15        -5.6099    2.9324    2.3524 C.3       1 <0>        -0.1196
     19 C16        -4.8830    1.7473    1.7144 C.3       1 <0>        -0.0613
     20 C17        -2.6175   -0.2464    1.2024 C.2       1 <0>         0.5843
     21 O2         -2.5193   -0.8760    2.2394 O.2       1 <0>        -0.5334
     22 N2         -2.9556   -0.8774    0.0605 N.am      1 <0>        -0.8479
     23 H1          3.7529    3.5772    0.7690 H         1 <0>         0.0799
     24 H2          4.4240    3.4763   -0.8765 H         1 <0>         0.0633
     25 H3          2.6608    3.4716   -0.6326 H         1 <0>         0.0949
     26 H4          5.6985    1.4805   -0.6439 H         1 <0>         0.1343
     27 H5          5.7315   -0.9738   -0.4817 H         1 <0>         0.1319
     28 H6          3.6904   -2.2035    0.1303 H         1 <0>         0.1327
     29 H7          1.6058   -0.9832    0.5929 H         1 <0>         0.1238
     30 H8          0.0708    0.0459    0.6906 H         1 <0>         0.4176
     31 H9         -3.7783    5.0688    2.5841 H         1 <0>         0.0828
     32 H10        -3.7497    5.3877    0.8308 H         1 <0>         0.0814
     33 H11        -6.0782    4.9767    1.8486 H         1 <0>         0.0740
     34 H12        -5.6568    3.9546    0.4520 H         1 <0>         0.0681
     35 H13        -5.2040    3.1129    3.3478 H         1 <0>         0.0676
     36 H14        -6.6729    2.7041    2.4307 H         1 <0>         0.0703
     37 H15        -4.9009    0.8973    2.3966 H         1 <0>         0.0750
     38 H16        -5.3752    1.4765    0.7803 H         1 <0>         0.0765
     39 H17        -3.0338   -0.3756   -0.7660 H         1 <0>         0.4037
     40 H18        -3.1207   -1.8332    0.0650 H         1 <0>         0.4033
@<TRIPOS>BOND
     1    1    2 1
     2    1   23 1
     3    1   24 1
     4    1   25 1
     5    2    7 ar
     6    2    3 ar
     7    3    4 ar
     8    3   26 1
     9    4    5 ar
    10    4   27 1
    11    5    6 ar
    12    5   28 1
    13    6    7 ar
    14    6   29 1
    15    7    8 1
    16    8    9 2
    17    8   10 am
    18   10   11 1
    19   10   30 1
    20   11   15 1
    21   11   12 2
    22   12   13 1
    23   12   20 1
    24   13   19 1
    25   13   14 2
    26   14   15 1
    27   14   16 1
    28   16   17 1
    29   16   31 1
    30   16   32 1
    31   17   18 1
    32   17   33 1
    33   17   34 1
    34   18   19 1
    35   18   35 1
    36   18   36 1
    37   19   37 1
    38   19   38 1
    39   20   21 2
    40   20   22 am
    41   22   39 1
    42   22   40 1
@<TRIPOS>MOLECULE
ZINC00442514
   41    43     0     0     0
SMALL
USER_CHARGES
2-[3-(5-methyl-2-furyl)prop-2-enoylamino]-4,5,6,7-tetrahydrobenzothiophene-3-carboxamide
@<TRIPOS>ATOM
      1 C1         -0.0127    1.0858    0.0080 C.3       1 <0>        -0.0824
      2 C2         -0.7181    1.5718    1.2479 C.2       1 <0>         0.0226
      3 C3         -0.1270    1.8348    2.4346 C.2       1 <0>        -0.2206
      4 C4         -1.1336    2.2610    3.3142 C.2       1 <0>        -0.1382
      5 C5         -2.3146    2.2352    2.6014 C.2       1 <0>        -0.0336
      6 O1         -2.0315    1.8183    1.3496 O.3       1 <0>        -0.1636
      7 C6         -3.5942    2.5883    3.0938 C.2       1 <0>         0.0477
      8 C7         -4.6776    2.5165    2.2803 C.2       1 <0>        -0.2324
      9 C8         -5.9561    2.8694    2.7722 C.2       1 <0>         0.5517
     10 O2         -6.0843    3.2376    3.9260 O.2       1 <0>        -0.5083
     11 N1         -7.0324    2.7981    1.9641 N.am      1 <0>        -0.6174
     12 C9         -8.2839    3.1435    2.4457 C.2       1 <0>         0.0762
     13 C10        -9.4981    3.1409    1.7726 C.2       1 <0>        -0.2326
     14 C11       -10.6786    3.5474    2.5160 C.2       1 <0>        -0.0650
     15 C12       -10.4562    3.8999    3.8008 C.2       1 <0>        -0.2111
     16 S1         -8.7135    3.6911    4.0324 S.3       1 <0>         0.2325
     17 C13       -11.4717    4.3644    4.7987 C.3       1 <0>        -0.0356
     18 C14       -12.7545    4.7416    4.0436 C.3       1 <0>        -0.1142
     19 C15       -13.0988    3.6165    3.0633 C.3       1 <0>        -0.1195
     20 C16       -12.0809    3.5917    1.9217 C.3       1 <0>        -0.0613
     21 C17        -9.5867    2.7388    0.3657 C.2       1 <0>         0.5852
     22 O3         -9.7857    1.5732    0.0773 O.2       1 <0>        -0.5341
     23 N2         -9.4478    3.6598   -0.6084 N.am      1 <0>        -0.8480
     24 H1          0.0021   -0.0041    0.0020 H         1 <0>         0.0883
     25 H2          1.0099    1.4631    0.0003 H         1 <0>         0.0945
     26 H3         -0.5399    1.4469   -0.8751 H         1 <0>         0.0806
     27 H4          0.9239    1.7358    2.6630 H         1 <0>         0.1570
     28 H5         -1.0085    2.5521    4.3467 H         1 <0>         0.1606
     29 H6         -3.7079    2.9149    4.1169 H         1 <0>         0.1649
     30 H7         -4.5640    2.1900    1.2571 H         1 <0>         0.1357
     31 H8         -6.9303    2.5048    1.0451 H         1 <0>         0.4201
     32 H9        -11.6843    3.5632    5.5064 H         1 <0>         0.0825
     33 H10       -11.0902    5.2346    5.3330 H         1 <0>         0.0811
     34 H11       -13.5717    4.8706    4.7533 H         1 <0>         0.0737
     35 H12       -12.5963    5.6705    3.4957 H         1 <0>         0.0679
     36 H13       -13.0786    2.6609    3.5873 H         1 <0>         0.0675
     37 H14       -14.0953    3.7845    2.6548 H         1 <0>         0.0700
     38 H15       -12.2447    2.7078    1.3053 H         1 <0>         0.0748
     39 H16       -12.1936    4.4883    1.3121 H         1 <0>         0.0762
     40 H17        -9.2892    4.5888   -0.3785 H         1 <0>         0.4035
     41 H18        -9.5064    3.3938   -1.5393 H         1 <0>         0.4029
@<TRIPOS>BOND
     1    1    2 1
     2    1   24 1
     3    1   25 1
     4    1   26 1
     5    2    6 1
     6    2    3 2
     7    3    4 1
     8    3   27 1
     9    4    5 2
    10    4   28 1
    11    5    6 1
    12    5    7 1
    13    7    8 2
    14    7   29 1
    15    8    9 1
    16    8   30 1
    17    9   10 2
    18    9   11 am
    19   11   12 1
    20   11   31 1
    21   12   16 1
    22   12   13 2
    23   13   14 1
    24   13   21 1
    25   14   20 1
    26   14   15 2
    27   15   16 1
    28   15   17 1
    29   17   18 1
    30   17   32 1
    31   17   33 1
    32   18   19 1
    33   18   34 1
    34   18   35 1
    35   19   20 1
    36   19   36 1
    37   19   37 1
    38   20   38 1
    39   20   39 1
    40   21   22 2
    41   21   23 am
    42   23   40 1
    43   23   41 1
@<TRIPOS>MOLECULE
ZINC00631544
   49    51     0     0     0
SMALL
USER_CHARGES
2-(4-tert-butylbenzoyl)amino-4,5,6,7-tetrahydrobenzothiophene-3-carboxamide
@<TRIPOS>ATOM
      1 C1         -3.5089   -0.1215   11.7862 C.3       1 <0>        -0.1409
      2 C2         -2.0929    0.2907   11.3787 C.3       1 <0>        -0.0358
      3 C3         -1.1397   -0.8885   11.5832 C.3       1 <0>        -0.1477
      4 C4         -1.6373    1.4701   12.2402 C.3       1 <0>        -0.1406
      5 C5         -2.0859    0.6964    9.9274 C.ar      1 <0>        -0.0333
      6 C6         -2.8777    1.7486    9.5026 C.ar      1 <0>        -0.1224
      7 C7         -2.8760    2.1252    8.1755 C.ar      1 <0>        -0.0471
      8 C8         -2.0726    1.4424    7.2605 C.ar      1 <0>        -0.1448
      9 C9         -1.2798    0.3786    7.6949 C.ar      1 <0>        -0.0798
     10 C10        -1.2873    0.0154    9.0257 C.ar      1 <0>        -0.1269
     11 C11        -2.0661    1.8400    5.8371 C.2       1 <0>         0.5578
     12 O1         -2.7613    2.7634    5.4608 O.2       1 <0>        -0.4950
     13 N1         -1.2894    1.1787    4.9562 N.am      1 <0>        -0.6176
     14 C12        -1.2833    1.5514    3.6218 C.2       1 <0>         0.0732
     15 C13        -0.5586    0.9983    2.5752 C.2       1 <0>        -0.2287
     16 C14        -0.7317    1.5801    1.2572 C.2       1 <0>        -0.0660
     17 C15        -1.6010    2.6147    1.1938 C.2       1 <0>        -0.2090
     18 S1         -2.1790    2.8207    2.8545 S.3       1 <0>         0.2332
     19 C16        -1.9794    3.4047   -0.0210 C.3       1 <0>        -0.0358
     20 C17        -0.9558    3.1107   -1.1273 C.3       1 <0>        -0.1142
     21 C18        -0.7582    1.5954   -1.2267 C.3       1 <0>        -0.1196
     22 C19        -0.0127    1.0858    0.0080 C.3       1 <0>        -0.0609
     23 C20         0.3508   -0.1308    2.7931 C.2       1 <0>         0.5844
     24 O2         -0.0608   -1.2718    2.6930 O.2       1 <0>        -0.5331
     25 N2          1.6426    0.0948    3.1044 N.am      1 <0>        -0.8480
     26 H1         -3.8335   -0.9618   11.1724 H         1 <0>         0.0582
     27 H2         -3.5139   -0.4150   12.8359 H         1 <0>         0.0629
     28 H3         -4.1880    0.7185   11.6405 H         1 <0>         0.0593
     29 H4         -0.1309   -0.5948   11.2929 H         1 <0>         0.0602
     30 H5         -1.1448   -1.1820   12.6329 H         1 <0>         0.0625
     31 H6         -1.4643   -1.7288   10.9695 H         1 <0>         0.0605
     32 H7         -2.3164    2.3102   12.0945 H         1 <0>         0.0593
     33 H8         -1.6424    1.1767   13.2900 H         1 <0>         0.0629
     34 H9         -0.6285    1.7638   11.9499 H         1 <0>         0.0579
     35 H10        -3.4987    2.2760   10.2115 H         1 <0>         0.1334
     36 H11        -3.4945    2.9467    7.8452 H         1 <0>         0.1401
     37 H12        -0.6592   -0.1565    6.9914 H         1 <0>         0.1233
     38 H13        -0.6714   -0.8047    9.3639 H         1 <0>         0.1372
     39 H14        -0.7347    0.4418    5.2565 H         1 <0>         0.4180
     40 H15        -1.9695    4.4687    0.2152 H         1 <0>         0.0814
     41 H16        -2.9749    3.1113   -0.3544 H         1 <0>         0.0830
     42 H17        -0.0067    3.5877   -0.8829 H         1 <0>         0.0679
     43 H18        -1.3232    3.4945   -2.0791 H         1 <0>         0.0742
     44 H19        -0.1792    1.3636   -2.1206 H         1 <0>         0.0705
     45 H20        -1.7312    1.1079   -1.2890 H         1 <0>         0.0675
     46 H21         0.0021   -0.0041    0.0020 H         1 <0>         0.0749
     47 H22         1.0091    1.4652    0.0003 H         1 <0>         0.0764
     48 H23         1.9706    1.0041    3.1841 H         1 <0>         0.4037
     49 H24         2.2443   -0.6523    3.2486 H         1 <0>         0.4032
@<TRIPOS>BOND
     1    1    2 1
     2    1   26 1
     3    1   27 1
     4    1   28 1
     5    2    3 1
     6    2    4 1
     7    2    5 1
     8    3   29 1
     9    3   30 1
    10    3   31 1
    11    4   32 1
    12    4   33 1
    13    4   34 1
    14    5   10 ar
    15    5    6 ar
    16    6    7 ar
    17    6   35 1
    18    7    8 ar
    19    7   36 1
    20    8    9 ar
    21    8   11 1
    22    9   10 ar
    23    9   37 1
    24   10   38 1
    25   11   12 2
    26   11   13 am
    27   13   14 1
    28   13   39 1
    29   14   18 1
    30   14   15 2
    31   15   16 1
    32   15   23 1
    33   16   22 1
    34   16   17 2
    35   17   18 1
    36   17   19 1
    37   19   20 1
    38   19   40 1
    39   19   41 1
    40   20   21 1
    41   20   42 1
    42   20   43 1
    43   21   22 1
    44   21   44 1
    45   21   45 1
    46   22   46 1
    47   22   47 1
    48   23   24 2
    49   23   25 am
    50   25   48 1
    51   25   49 1
@<TRIPOS>MOLECULE
ZINC02591233
   37    39     0     0     0
SMALL
USER_CHARGES
2-(4-chlorobenzoyl)amino-4,5,6,7-tetrahydrobenzothiophene-3-carboxamide
@<TRIPOS>ATOM
      1 C1         -1.2758    0.3816    7.6950 C.ar      1 <0>        -0.0710
      2 C2         -1.2806    0.0200    9.0257 C.ar      1 <0>        -0.1149
      3 C3         -2.0795    0.7020    9.9287 C.ar      1 <0>        -0.0044
      4 C4         -2.8728    1.7546    9.5029 C.ar      1 <0>        -0.1156
      5 C5         -2.8720    2.1294    8.1760 C.ar      1 <0>        -0.0377
      6 C6         -2.0691    1.4456    7.2608 C.ar      1 <0>        -0.1350
      7 C7         -2.0635    1.8422    5.8377 C.2       1 <0>         0.5578
      8 O1         -2.7588    2.7657    5.4614 O.2       1 <0>        -0.4906
      9 N1         -1.2875    1.1803    4.9567 N.am      1 <0>        -0.6160
     10 C8         -1.2823    1.5523    3.6221 C.2       1 <0>         0.0695
     11 C9         -0.5581    0.9988    2.5753 C.2       1 <0>        -0.2251
     12 C10        -0.7317    1.5801    1.2572 C.2       1 <0>        -0.0667
     13 C11        -1.6010    2.6147    1.1938 C.2       1 <0>        -0.2067
     14 S1         -2.1782    2.8213    2.8546 S.3       1 <0>         0.2346
     15 C12        -1.9794    3.4047   -0.0209 C.3       1 <0>        -0.0363
     16 C13        -0.9558    3.1107   -1.1273 C.3       1 <0>        -0.1144
     17 C14        -0.7582    1.5954   -1.2267 C.3       1 <0>        -0.1198
     18 C15        -0.0127    1.0858    0.0080 C.3       1 <0>        -0.0611
     19 C16         0.3510   -0.1306    2.7932 C.2       1 <0>         0.5835
     20 O2         -0.0610   -1.2715    2.6934 O.2       1 <0>        -0.5324
     21 N2          1.6430    0.0946    3.1040 N.am      1 <0>        -0.8478
     22 Cl1        -2.0860    0.2359   11.6009 Cl        1 <0>        -0.0523
     23 H1         -0.6565   -0.1542    6.9909 H         1 <0>         0.1343
     24 H2         -0.6638   -0.7996    9.3637 H         1 <0>         0.1453
     25 H3         -3.4931    2.2830   10.2118 H         1 <0>         0.1470
     26 H4         -3.4907    2.9505    7.8452 H         1 <0>         0.1513
     27 H5         -0.7327    0.4435    5.2570 H         1 <0>         0.4183
     28 H6         -1.9695    4.4687    0.2152 H         1 <0>         0.0819
     29 H7         -2.9749    3.1113   -0.3543 H         1 <0>         0.0835
     30 H8         -0.0067    3.5877   -0.8829 H         1 <0>         0.0681
     31 H9         -1.3232    3.4945   -2.0790 H         1 <0>         0.0745
     32 H10        -0.1792    1.3636   -2.1206 H         1 <0>         0.0708
     33 H11        -1.7312    1.1079   -1.2890 H         1 <0>         0.0677
     34 H12         0.0021   -0.0041    0.0020 H         1 <0>         0.0752
     35 H13         1.0091    1.4652    0.0003 H         1 <0>         0.0767
     36 H14         1.9713    1.0038    3.1836 H         1 <0>         0.4039
     37 H15         2.2444   -0.6527    3.2482 H         1 <0>         0.4036
@<TRIPOS>BOND
     1    1    6 ar
     2    1    2 ar
     3    1   23 1
     4    2    3 ar
     5    2   24 1
     6    3    4 ar
     7    3   22 1
     8    4    5 ar
     9    4   25 1
    10    5    6 ar
    11    5   26 1
    12    6    7 1
    13    7    8 2
    14    7    9 am
    15    9   10 1
    16    9   27 1
    17   10   14 1
    18   10   11 2
    19   11   12 1
    20   11   19 1
    21   12   18 1
    22   12   13 2
    23   13   14 1
    24   13   15 1
    25   15   16 1
    26   15   28 1
    27   15   29 1
    28   16   17 1
    29   16   30 1
    30   16   31 1
    31   17   18 1
    32   17   32 1
    33   17   33 1
    34   18   34 1
    35   18   35 1
    36   19   20 2
    37   19   21 am
    38   21   36 1
    39   21   37 1
@<TRIPOS>MOLECULE
ZINC00846610
   37    39     0     0     0
SMALL
USER_CHARGES
2-(4-bromobenzoyl)amino-4,5,6,7-tetrahydrobenzothiophene-3-carboxamide
@<TRIPOS>ATOM
      1 C1         -1.2798    0.3782    7.6943 C.ar      1 <0>        -0.0779
      2 C2         -1.2860    0.0157    9.0248 C.ar      1 <0>        -0.0952
      3 C3         -2.0852    0.6971    9.9274 C.ar      1 <0>        -0.0616
      4 C4         -2.8782    1.7496    9.5018 C.ar      1 <0>        -0.0958
      5 C5         -2.8766    2.1254    8.1750 C.ar      1 <0>        -0.0446
      6 C6         -2.0729    1.4423    7.2600 C.ar      1 <0>        -0.1233
      7 C7         -2.0663    1.8398    5.8370 C.2       1 <0>         0.5568
      8 O1         -2.7615    2.7633    5.4607 O.2       1 <0>        -0.4894
      9 N1         -1.2896    1.1785    4.9562 N.am      1 <0>        -0.6156
     10 C8         -1.2834    1.5513    3.6218 C.2       1 <0>         0.0690
     11 C9         -0.5587    0.9983    2.5751 C.2       1 <0>        -0.2245
     12 C10        -0.7317    1.5801    1.2572 C.2       1 <0>        -0.0667
     13 C11        -1.6010    2.6147    1.1938 C.2       1 <0>        -0.2064
     14 S1         -2.1790    2.8206    2.8544 S.3       1 <0>         0.2347
     15 C12        -1.9794    3.4047   -0.0209 C.3       1 <0>        -0.0364
     16 C13        -0.9558    3.1107   -1.1273 C.3       1 <0>        -0.1144
     17 C14        -0.7582    1.5954   -1.2267 C.3       1 <0>        -0.1198
     18 C15        -0.0127    1.0858    0.0080 C.3       1 <0>        -0.0611
     19 C16         0.3503   -0.1311    2.7930 C.2       1 <0>         0.5834
     20 O2         -0.0616   -1.2720    2.6925 O.2       1 <0>        -0.5323
     21 N2          1.6421    0.0939    3.1046 N.am      1 <0>        -0.8478
     22 Br1        -2.0930    0.1888   11.7487 Br        1 <0>        -0.0322
     23 H1         -0.6598   -0.1571    6.9904 H         1 <0>         0.1341
     24 H2         -0.6696   -0.8042    9.3627 H         1 <0>         0.1446
     25 H3         -3.4991    2.2773   10.2106 H         1 <0>         0.1463
     26 H4         -3.4952    2.9465    7.8444 H         1 <0>         0.1511
     27 H5         -0.7349    0.4416    5.2564 H         1 <0>         0.4185
     28 H6         -1.9695    4.4687    0.2152 H         1 <0>         0.0819
     29 H7         -2.9749    3.1113   -0.3543 H         1 <0>         0.0836
     30 H8         -0.0067    3.5877   -0.8829 H         1 <0>         0.0681
     31 H9         -1.3232    3.4945   -2.0790 H         1 <0>         0.0746
     32 H10        -0.1792    1.3636   -2.1206 H         1 <0>         0.0709
     33 H11        -1.7312    1.1079   -1.2890 H         1 <0>         0.0677
     34 H12         0.0021   -0.0041    0.0020 H         1 <0>         0.0753
     35 H13         1.0091    1.4652    0.0003 H         1 <0>         0.0768
     36 H14         1.9704    1.0031    3.1847 H         1 <0>         0.4039
     37 H15         2.2435   -0.6534    3.2487 H         1 <0>         0.4037
@<TRIPOS>BOND
     1    1    6 ar
     2    1    2 ar
     3    1   23 1
     4    2    3 ar
     5    2   24 1
     6    3    4 ar
     7    3   22 1
     8    4    5 ar
     9    4   25 1
    10    5    6 ar
    11    5   26 1
    12    6    7 1
    13    7    8 2
    14    7    9 am
    15    9   10 1
    16    9   27 1
    17   10   14 1
    18   10   11 2
    19   11   12 1
    20   11   19 1
    21   12   18 1
    22   12   13 2
    23   13   14 1
    24   13   15 1
    25   15   16 1
    26   15   28 1
    27   15   29 1
    28   16   17 1
    29   16   30 1
    30   16   31 1
    31   17   18 1
    32   17   32 1
    33   17   33 1
    34   18   34 1
    35   18   35 1
    36   19   20 2
    37   19   21 am
    38   21   36 1
    39   21   37 1
@<TRIPOS>MOLECULE
ZINC00803466
   45    47     0     0     0
SMALL
USER_CHARGES
2-[2-(4-methoxyphenoxy)acetyl]amino-4,5,6,7-tetrahydrobenzothiophene-3-carboxamide
@<TRIPOS>ATOM
      1 C1          2.5128   -2.6722   -0.0362 C.3       1 <0>         0.0266
      2 O1          1.2309   -2.0408   -0.0206 O.3       1 <0>        -0.3165
      3 C2          1.2125   -0.6811   -0.0132 C.ar      1 <0>         0.0960
      4 C3          0.0021   -0.0041    0.0020 C.ar      1 <0>        -0.1094
      5 C4         -0.0167    1.3771    0.0096 C.ar      1 <0>        -0.1019
      6 C5          1.1749    2.0869    0.0020 C.ar      1 <0>         0.0892
      7 C6          2.3853    1.4098   -0.0126 C.ar      1 <0>        -0.1694
      8 C7          2.4041    0.0286   -0.0202 C.ar      1 <0>        -0.1686
      9 O2          1.1565    3.4465    0.0091 O.3       1 <0>        -0.2880
     10 C8          2.4208    4.1126    0.0006 C.3       1 <0>         0.0499
     11 C9          2.2031    5.6037    0.0101 C.2       1 <0>         0.5107
     12 O3          1.0762    6.0520    0.0229 O.2       1 <0>        -0.4700
     13 N1          3.2606    6.4392    0.0044 N.am      1 <0>        -0.6179
     14 C10         3.0603    7.8112    0.0132 C.2       1 <0>         0.0694
     15 C11         4.0116    8.8215    0.0151 C.2       1 <0>        -0.2238
     16 C12         3.5340   10.1937    0.0217 C.2       1 <0>        -0.0671
     17 C13         2.1908   10.3351    0.0354 C.2       1 <0>        -0.2049
     18 S1          1.5615    8.6804    0.0322 S.3       1 <0>         0.2342
     19 C14         1.4177   11.6177    0.0508 C.3       1 <0>        -0.0370
     20 C15         2.3772   12.7563    0.4265 C.3       1 <0>        -0.1143
     21 C16         3.6454   12.6333   -0.4230 C.3       1 <0>        -0.1199
     22 C17         4.4512   11.4105    0.0193 C.3       1 <0>        -0.0611
     23 C18         5.4456    8.5156    0.0066 C.2       1 <0>         0.5841
     24 O4          6.0360    8.3956   -1.0509 O.2       1 <0>        -0.5327
     25 N2          6.1099    8.3673    1.1698 N.am      1 <0>        -0.8476
     26 H1          3.0573   -2.3670   -0.9298 H         1 <0>         0.0553
     27 H2          3.0742   -2.3765    0.8500 H         1 <0>         0.0551
     28 H3          2.3846   -3.7546   -0.0408 H         1 <0>         0.1017
     29 H4         -0.9258   -0.5567    0.0075 H         1 <0>         0.1417
     30 H5         -0.9592    1.9043    0.0169 H         1 <0>         0.1425
     31 H6          3.3132    1.9625   -0.0185 H         1 <0>         0.1303
     32 H7          3.3466   -0.4986   -0.0313 H         1 <0>         0.1329
     33 H8          2.9900    3.8228    0.8838 H         1 <0>         0.1012
     34 H9          2.9734    3.8318   -0.8960 H         1 <0>         0.1018
     35 H10         4.1619    6.0807   -0.0058 H         1 <0>         0.4205
     36 H11         0.9957   11.8040   -0.9368 H         1 <0>         0.0837
     37 H12         0.6160   11.5544    0.7867 H         1 <0>         0.0822
     38 H13         1.8989   13.7163    0.2321 H         1 <0>         0.0745
     39 H14         2.6343   12.6836    1.4833 H         1 <0>         0.0683
     40 H15         3.3695   12.5251   -1.4719 H         1 <0>         0.0679
     41 H16         4.2527   13.5299   -0.2989 H         1 <0>         0.0707
     42 H17         5.2754   11.2455   -0.6747 H         1 <0>         0.0753
     43 H18         4.8452   11.5757    1.0220 H         1 <0>         0.0769
     44 H19         5.6394    8.4629    2.0127 H         1 <0>         0.4039
     45 H20         7.0585    8.1649    1.1642 H         1 <0>         0.4036
@<TRIPOS>BOND
     1    1    2 1
     2    1   26 1
     3    1   27 1
     4    1   28 1
     5    2    3 1
     6    3    8 ar
     7    3    4 ar
     8    4    5 ar
     9    4   29 1
    10    5    6 ar
    11    5   30 1
    12    6    7 ar
    13    6    9 1
    14    7    8 ar
    15    7   31 1
    16    8   32 1
    17    9   10 1
    18   10   11 1
    19   10   33 1
    20   10   34 1
    21   11   12 2
    22   11   13 am
    23   13   14 1
    24   13   35 1
    25   14   18 1
    26   14   15 2
    27   15   16 1
    28   15   23 1
    29   16   22 1
    30   16   17 2
    31   17   18 1
    32   17   19 1
    33   19   20 1
    34   19   36 1
    35   19   37 1
    36   20   21 1
    37   20   38 1
    38   20   39 1
    39   21   22 1
    40   21   40 1
    41   21   41 1
    42   22   42 1
    43   22   43 1
    44   23   24 2
    45   23   25 am
    46   25   44 1
    47   25   45 1
@<TRIPOS>MOLECULE
ZINC00042568
   37    39     0     0     0
SMALL
USER_CHARGES

@<TRIPOS>ATOM
      1 C1         -0.0167    1.3794    0.0096 C.ar      1 <0>        -0.0845
      2 C2          1.1683    2.0937    0.0021 C.ar      1 <0>        -0.1252
      3 C3          2.3774    1.4296   -0.0134 C.ar      1 <0>        -0.0516
      4 C4          2.4035    0.0339   -0.0211 C.ar      1 <0>        -0.1391
      5 C5          1.2042   -0.6806   -0.0130 C.ar      1 <0>        -0.0844
      6 C6          0.0021   -0.0041    0.0020 C.ar      1 <0>        -0.1243
      7 C7          3.6952   -0.6842   -0.0382 C.2       1 <0>         0.5568
      8 O1          4.7379   -0.0594   -0.0456 O.2       1 <0>        -0.4945
      9 N1          3.7169   -2.0318   -0.0456 N.am      1 <0>        -0.6172
     10 C8          4.9277   -2.7050   -0.0616 C.2       1 <0>         0.0385
     11 C9          5.1413   -4.0747   -0.0768 C.2       1 <0>        -0.2372
     12 C10         6.5200   -4.5315   -0.0923 C.2       1 <0>        -0.0620
     13 C11         7.4321   -3.5356   -0.0895 C.2       1 <0>        -0.2243
     14 S1          6.4736   -2.0491   -0.0746 S.3       1 <0>         0.2898
     15 C12         8.9225   -3.6807   -0.1011 C.3       1 <0>        -0.0349
     16 C13         9.2685   -5.1319    0.2636 C.3       1 <0>        -0.1142
     17 C14         8.4005   -6.0742   -0.5753 C.3       1 <0>        -0.1195
     18 C15         6.9445   -5.9926   -0.1112 C.3       1 <0>        -0.0601
     19 C16         4.0226   -5.0222   -0.0766 C.2       1 <0>         0.5853
     20 O2          3.5497   -5.4056   -1.1306 O.2       1 <0>        -0.5340
     21 N2          3.5178   -5.4688    1.0905 N.am      1 <0>        -0.8483
     22 H1         -0.9605    1.9042    0.0260 H         1 <0>         0.1322
     23 H2          1.1467    3.1734    0.0081 H         1 <0>         0.1354
     24 H3          3.3017    1.9883   -0.0199 H         1 <0>         0.1408
     25 H4          1.2175   -1.7605   -0.0192 H         1 <0>         0.1236
     26 H5         -0.9265   -0.5555    0.0082 H         1 <0>         0.1335
     27 H6          2.8849   -2.5303   -0.0397 H         1 <0>         0.4176
     28 H7          9.3064   -3.4501   -1.0949 H         1 <0>         0.0824
     29 H8          9.3634   -3.0030    0.6299 H         1 <0>         0.0813
     30 H9         10.3211   -5.3204    0.0525 H         1 <0>         0.0740
     31 H10         9.0710   -5.2993    1.3224 H         1 <0>         0.0678
     32 H11         8.4628   -5.7859   -1.6246 H         1 <0>         0.0675
     33 H12         8.7604   -7.0967   -0.4602 H         1 <0>         0.0703
     34 H13         6.8560   -6.4121    0.8909 H         1 <0>         0.0768
     35 H14         6.3093   -6.5490   -0.8004 H         1 <0>         0.0752
     36 H15         3.8947   -5.1632    1.9305 H         1 <0>         0.4036
     37 H16         2.7776   -6.0957    1.0906 H         1 <0>         0.4029
@<TRIPOS>BOND
     1    1    6 ar
     2    1    2 ar
     3    1   22 1
     4    2    3 ar
     5    2   23 1
     6    3    4 ar
     7    3   24 1
     8    4    5 ar
     9    4    7 1
    10    5    6 ar
    11    5   25 1
    12    6   26 1
    13    7    8 2
    14    7    9 am
    15    9   10 1
    16    9   27 1
    17   10   14 1
    18   10   11 2
    19   11   12 1
    20   11   19 1
    21   12   18 1
    22   12   13 2
    23   13   14 1
    24   13   15 1
    25   15   16 1
    26   15   28 1
    27   15   29 1
    28   16   17 1
    29   16   30 1
    30   16   31 1
    31   17   18 1
    32   17   32 1
    33   17   33 1
    34   18   34 1
    35   18   35 1
    36   19   20 2
    37   19   21 am
    38   21   36 1
    39   21   37 1
@<TRIPOS>MOLECULE
ZINC00127897
   41    43     0     0     0
SMALL
USER_CHARGES
2-(3-phenylprop-2-enoylamino)-4,5,6,7-tetrahydrobenzothiophene-3-carboxamide
@<TRIPOS>ATOM
      1 C1         -0.0555    4.2375    0.0250 C.ar      1 <0>        -0.1018
      2 C2          1.1544    3.5655    0.0102 C.ar      1 <0>        -0.1231
      3 C3          1.1814    2.1869    0.0025 C.ar      1 <0>        -0.0887
      4 C4         -0.0179    1.4677    0.0101 C.ar      1 <0>        -0.0877
      5 C5         -1.2363    2.1540    0.0196 C.ar      1 <0>        -0.0969
      6 C6         -1.2466    3.5328    0.0330 C.ar      1 <0>        -0.1232
      7 C7          0.0021   -0.0041    0.0020 C.2       1 <0>         0.0089
      8 C8         -1.1565   -0.6942    0.0094 C.2       1 <0>        -0.2254
      9 C9         -1.1367   -2.1575    0.0013 C.2       1 <0>         0.5466
     10 O1         -0.0745   -2.7516   -0.0120 O.2       1 <0>        -0.5044
     11 N1         -2.2946   -2.8472    0.0087 N.am      1 <0>        -0.6164
     12 C10        -2.2758   -4.2319    0.0011 C.2       1 <0>         0.0749
     13 C11        -3.3516   -5.1093    0.0123 C.2       1 <0>        -0.2312
     14 C12        -3.0576   -6.5322   -0.0029 C.2       1 <0>        -0.0653
     15 C13        -1.7443   -6.8481   -0.0166 C.2       1 <0>        -0.2100
     16 S1         -0.9038   -5.2900   -0.0171 S.3       1 <0>         0.2315
     17 C14        -1.1457   -8.2209   -0.0278 C.3       1 <0>        -0.0358
     18 C15        -2.2390   -9.2284    0.3564 C.3       1 <0>        -0.1142
     19 C16        -3.4955   -8.9310   -0.4671 C.3       1 <0>        -0.1195
     20 C17        -4.1260   -7.6185    0.0017 C.3       1 <0>        -0.0612
     21 C18        -4.7328   -4.6185    0.0346 C.2       1 <0>         0.5851
     22 O2         -5.3215   -4.4101   -1.0101 O.2       1 <0>        -0.5338
     23 N2         -5.3507   -4.3981    1.2119 N.am      1 <0>        -0.8479
     24 H1         -0.0701    5.3173    0.0306 H         1 <0>         0.1267
     25 H2          2.0798    4.1224    0.0044 H         1 <0>         0.1288
     26 H3          2.1263    1.6639   -0.0090 H         1 <0>         0.1304
     27 H4         -2.1667    1.6055    0.0206 H         1 <0>         0.1276
     28 H5         -2.1868    4.0643    0.0452 H         1 <0>         0.1278
     29 H6          0.9446   -0.5313   -0.0098 H         1 <0>         0.1408
     30 H7         -2.0990   -0.1670    0.0212 H         1 <0>         0.1360
     31 H8         -3.1411   -2.3737    0.0193 H         1 <0>         0.4201
     32 H9         -0.7698   -8.4494   -1.0251 H         1 <0>         0.0826
     33 H10        -0.3294   -8.2714    0.6928 H         1 <0>         0.0812
     34 H11        -1.8941  -10.2404    0.1442 H         1 <0>         0.0739
     35 H12        -2.4652   -9.1348    1.4186 H         1 <0>         0.0680
     36 H13        -3.2269   -8.8479   -1.5202 H         1 <0>         0.0676
     37 H14        -4.2126   -9.7419   -0.3392 H         1 <0>         0.0702
     38 H15        -4.9340   -7.3393   -0.6745 H         1 <0>         0.0749
     39 H16        -4.5200   -7.7422    1.0105 H         1 <0>         0.0764
     40 H17        -4.8815   -4.5642    2.0445 H         1 <0>         0.4036
     41 H18        -6.2646   -4.0734    1.2266 H         1 <0>         0.4031
@<TRIPOS>BOND
     1    1    6 ar
     2    1    2 ar
     3    1   24 1
     4    2    3 ar
     5    2   25 1
     6    3    4 ar
     7    3   26 1
     8    4    5 ar
     9    4    7 1
    10    5    6 ar
    11    5   27 1
    12    6   28 1
    13    7    8 2
    14    7   29 1
    15    8    9 1
    16    8   30 1
    17    9   10 2
    18    9   11 am
    19   11   12 1
    20   11   31 1
    21   12   16 1
    22   12   13 2
    23   13   14 1
    24   13   21 1
    25   14   20 1
    26   14   15 2
    27   15   16 1
    28   15   17 1
    29   17   18 1
    30   17   32 1
    31   17   33 1
    32   18   19 1
    33   18   34 1
    34   18   35 1
    35   19   20 1
    36   19   36 1
    37   19   37 1
    38   20   38 1
    39   20   39 1
    40   21   22 2
    41   21   23 am
    42   23   40 1
    43   23   41 1
@<TRIPOS>MOLECULE
ZINC00571829
   41    43     0     0     0
SMALL
USER_CHARGES
2-(3-methoxybenzoyl)amino-4,5,6,7-tetrahydrobenzothiophene-3-carboxamide
@<TRIPOS>ATOM
      1 C1         -0.0127    1.0858    0.0080 C.3       1 <0>         0.0246
      2 O1         -0.6816    1.5467    1.1837 O.3       1 <0>        -0.3119
      3 C2         -0.1488    1.1821    2.3797 C.ar      1 <0>         0.1247
      4 C3          0.9954    0.3962    2.4190 C.ar      1 <0>        -0.1762
      5 C4          1.5419    0.0222    3.6326 C.ar      1 <0>        -0.0817
      6 C5          0.9541    0.4280    4.8133 C.ar      1 <0>        -0.1227
      7 C6         -0.1963    1.2181    4.7840 C.ar      1 <0>        -0.0980
      8 C7         -0.7438    1.5991    3.5581 C.ar      1 <0>        -0.0852
      9 C8         -0.8287    1.6547    6.0465 C.2       1 <0>         0.5585
     10 O2         -1.8304    2.3427    6.0184 O.2       1 <0>        -0.4893
     11 N1         -0.2948    1.2898    7.2290 N.am      1 <0>        -0.6155
     12 C9         -0.8876    1.6990    8.4125 C.2       1 <0>         0.0722
     13 C10        -0.4937    1.4238    9.7147 C.2       1 <0>        -0.2277
     14 C11        -1.2941    1.9829   10.7907 C.2       1 <0>        -0.0658
     15 C12        -2.3595    2.7131   10.3954 C.2       1 <0>        -0.2076
     16 S1         -2.3050    2.6723    8.6263 S.3       1 <0>         0.2335
     17 C13        -3.3592    3.4006   11.2734 C.3       1 <0>        -0.0362
     18 C14        -3.2142    2.8457   12.6979 C.3       1 <0>        -0.1142
     19 C15        -1.7307    2.8431   13.0778 C.3       1 <0>        -0.1197
     20 C16        -0.9886    1.7775   12.2693 C.3       1 <0>        -0.0611
     21 C17         0.6888    0.6032    9.9940 C.2       1 <0>         0.5842
     22 O3          1.7802    1.1288   10.1117 O.2       1 <0>        -0.5329
     23 N2          0.5672   -0.7331   10.1203 N.am      1 <0>        -0.8478
     24 H1          0.0021   -0.0041    0.0020 H         1 <0>         0.0584
     25 H2          1.0099    1.4631    0.0003 H         1 <0>         0.0584
     26 H3         -0.5399    1.4469   -0.8751 H         1 <0>         0.1052
     27 H4          1.4602    0.0763    1.4982 H         1 <0>         0.1374
     28 H5          2.4319   -0.5891    3.6566 H         1 <0>         0.1371
     29 H6          1.3837    0.1340    5.7596 H         1 <0>         0.1266
     30 H7         -1.6311    2.2141    3.5289 H         1 <0>         0.1492
     31 H8          0.5046    0.7408    7.2515 H         1 <0>         0.4190
     32 H9         -3.1687    4.4738   11.2763 H         1 <0>         0.0832
     33 H10        -4.3664    3.2074   10.9042 H         1 <0>         0.0817
     34 H11        -3.7684    3.4758   13.3936 H         1 <0>         0.0741
     35 H12        -3.6048    1.8287   12.7354 H         1 <0>         0.0682
     36 H13        -1.3011    3.8224   12.8666 H         1 <0>         0.0677
     37 H14        -1.6295    2.6250   14.1410 H         1 <0>         0.0704
     38 H15         0.0842    1.8726   12.4373 H         1 <0>         0.0752
     39 H16        -1.3206    0.7866   12.5790 H         1 <0>         0.0767
     40 H17        -0.3027   -1.1520   10.0265 H         1 <0>         0.4039
     41 H18         1.3495   -1.2760   10.3051 H         1 <0>         0.4033
@<TRIPOS>BOND
     1    1    2 1
     2    1   24 1
     3    1   25 1
     4    1   26 1
     5    2    3 1
     6    3    8 ar
     7    3    4 ar
     8    4    5 ar
     9    4   27 1
    10    5    6 ar
    11    5   28 1
    12    6    7 ar
    13    6   29 1
    14    7    8 ar
    15    7    9 1
    16    8   30 1
    17    9   10 2
    18    9   11 am
    19   11   12 1
    20   11   31 1
    21   12   16 1
    22   12   13 2
    23   13   14 1
    24   13   21 1
    25   14   20 1
    26   14   15 2
    27   15   16 1
    28   15   17 1
    29   17   18 1
    30   17   32 1
    31   17   33 1
    32   18   19 1
    33   18   34 1
    34   18   35 1
    35   19   20 1
    36   19   36 1
    37   19   37 1
    38   20   38 1
    39   20   39 1
    40   21   22 2
    41   21   23 am
    42   23   40 1
    43   23   41 1
@<TRIPOS>MOLECULE
ZINC02872521
   42    44     0     0     0
SMALL
USER_CHARGES
7-(3,4-dimethoxybenzoyl)amino-6-thiabicyclo[3.3.0]octa-7,9-diene-8-carboxamide
@<TRIPOS>ATOM
      1 C1         -0.6534    0.7807    8.9490 C.3       1 <0>         0.0215
      2 O1          0.5650    1.5080    8.7799 O.3       1 <0>        -0.2982
      3 C2          0.9647    1.7535    7.5054 C.ar      1 <0>         0.1387
      4 C3          0.1973    1.3026    6.4399 C.ar      1 <0>        -0.1811
      5 C4          0.5957    1.5537    5.1450 C.ar      1 <0>        -0.0742
      6 C5          1.7799    2.2543    4.9018 C.ar      1 <0>        -0.1400
      7 C6          2.5522    2.7086    5.9743 C.ar      1 <0>        -0.1069
      8 C7          2.1443    2.4581    7.2700 C.ar      1 <0>         0.0947
      9 O2          2.8937    2.8984    8.3161 O.3       1 <0>        -0.3016
     10 C8          4.0904    3.6131    8.0013 C.3       1 <0>         0.0218
     11 C9          2.2110    2.5191    3.5157 C.2       1 <0>         0.5631
     12 O3          3.2392    3.1333    3.3056 O.2       1 <0>        -0.4966
     13 N1          1.4651    2.0803    2.4825 N.am      1 <0>        -0.6158
     14 C10         1.8699    2.3290    1.1810 C.2       1 <0>         0.0702
     15 C11         1.2451    1.9632    0.0007 C.2       1 <0>        -0.2164
     16 C12         1.8843    2.3577   -1.2542 C.2       1 <0>        -0.0936
     17 C13         3.0338    3.0430   -1.1188 C.2       1 <0>        -0.2342
     18 S1          3.2809    3.1696    0.6355 S.3       1 <0>         0.2686
     19 C14         3.6279    3.4167   -2.4499 C.3       1 <0>        -0.0321
     20 C15         2.4688    3.2433   -3.4561 C.3       1 <0>        -0.1158
     21 C16         1.5909    2.1935   -2.7460 C.3       1 <0>        -0.0606
     22 C17        -0.0144    1.2129    0.0087 C.2       1 <0>         0.5831
     23 O4          0.0021   -0.0041    0.0020 O.2       1 <0>        -0.5330
     24 N2         -1.1906    1.8709    0.0179 N.am      1 <0>        -0.8479
     25 H1         -0.5609   -0.1977    8.4774 H         1 <0>         0.0598
     26 H2         -0.8562    0.6537   10.0124 H         1 <0>         0.1062
     27 H3         -1.4724    1.3312    8.4861 H         1 <0>         0.0595
     28 H4         -0.7161    0.7574    6.6264 H         1 <0>         0.1470
     29 H5         -0.0052    1.2054    4.3180 H         1 <0>         0.1300
     30 H6          3.4657    3.2547    5.7905 H         1 <0>         0.1538
     31 H7          4.7517    2.9745    7.4157 H         1 <0>         0.0590
     32 H8          3.8407    4.5037    7.4246 H         1 <0>         0.0588
     33 H9          4.5917    3.9064    8.9237 H         1 <0>         0.1057
     34 H10         0.6449    1.5904    2.6501 H         1 <0>         0.4187
     35 H11         3.9683    4.4521   -2.4370 H         1 <0>         0.0800
     36 H12         4.4515    2.7479   -2.6998 H         1 <0>         0.0855
     37 H13         1.9260    4.1789   -3.5910 H         1 <0>         0.0772
     38 H14         2.8342    2.8648   -4.4107 H         1 <0>         0.0845
     39 H15         1.8615    1.1903   -3.0754 H         1 <0>         0.0820
     40 H16         0.5368    2.3855   -2.9465 H         1 <0>         0.0717
     41 H17        -2.0240    1.3745    0.0191 H         1 <0>         0.4033
     42 H18        -1.2038    2.8408    0.0232 H         1 <0>         0.4039
@<TRIPOS>BOND
     1    1    2 1
     2    1   25 1
     3    1   26 1
     4    1   27 1
     5    2    3 1
     6    3    8 ar
     7    3    4 ar
     8    4    5 ar
     9    4   28 1
    10    5    6 ar
    11    5   29 1
    12    6    7 ar
    13    6   11 1
    14    7    8 ar
    15    7   30 1
    16    8    9 1
    17    9   10 1
    18   10   31 1
    19   10   32 1
    20   10   33 1
    21   11   12 2
    22   11   13 am
    23   13   14 1
    24   13   34 1
    25   14   18 1
    26   14   15 2
    27   15   16 1
    28   15   22 1
    29   16   21 1
    30   16   17 2
    31   17   18 1
    32   17   19 1
    33   19   20 1
    34   19   35 1
    35   19   36 1
    36   20   21 1
    37   20   37 1
    38   20   38 1
    39   21   39 1
    40   21   40 1
    41   22   23 2
    42   22   24 am
    43   24   41 1
    44   24   42 1
@<TRIPOS>MOLECULE
ZINC04275736
   35    36     0     0     0
SMALL
USER_CHARGES
2-(3,4-dimethoxybenzoyl)aminothiophene-3-carboxamide
@<TRIPOS>ATOM
      1 C1         -0.0127    1.0858    0.0080 C.3       1 <0>         0.0214
      2 O1         -0.6816    1.5467    1.1837 O.3       1 <0>        -0.2987
      3 C2         -0.1492    1.1824    2.3787 C.ar      1 <0>         0.1387
      4 C3          0.9948    0.3966    2.4166 C.ar      1 <0>        -0.1816
      5 C4          1.5392    0.0247    3.6265 C.ar      1 <0>        -0.0712
      6 C5          0.9395    0.4380    4.8190 C.ar      1 <0>        -0.1419
      7 C6         -0.2123    1.2286    4.7810 C.ar      1 <0>        -0.1068
      8 C7         -0.7493    1.6030    3.5646 C.ar      1 <0>         0.0924
      9 O2         -1.8664    2.3776    3.5240 O.3       1 <0>        -0.3021
     10 C8         -2.4283    2.7720    4.7773 C.3       1 <0>         0.0221
     11 C9          1.5209    0.0402    6.1156 C.2       1 <0>         0.5588
     12 O3          0.9980    0.4006    7.1525 O.2       1 <0>        -0.4984
     13 N1          2.6314   -0.7226    6.1505 N.am      1 <0>        -0.6075
     14 C10         3.1773   -1.0961    7.3679 C.2       1 <0>         0.1217
     15 C11         4.3031   -1.8760    7.6067 C.2       1 <0>        -0.2666
     16 C12         4.6517   -2.1066    8.9884 C.2       1 <0>        -0.1058
     17 C13         3.8543   -1.5584    9.9228 C.2       1 <0>        -0.2382
     18 S1          2.6183   -0.7109    8.9608 S.3       1 <0>         0.2308
     19 C14         5.0996   -2.4332    6.5093 C.2       1 <0>         0.5914
     20 O4          4.7805   -2.2168    5.3548 O.2       1 <0>        -0.5662
     21 N2          6.1852   -3.1851    6.7787 N.am      1 <0>        -0.8477
     22 H1          0.0021   -0.0041    0.0020 H         1 <0>         0.0598
     23 H2          1.0099    1.4631    0.0003 H         1 <0>         0.0598
     24 H3         -0.5399    1.4469   -0.8751 H         1 <0>         0.1056
     25 H4          1.4593    0.0765    1.4957 H         1 <0>         0.1472
     26 H5          2.4291   -0.5866    3.6531 H         1 <0>         0.1358
     27 H6         -0.6785    1.5504    5.7005 H         1 <0>         0.1533
     28 H7         -1.6933    3.3474    5.3401 H         1 <0>         0.0585
     29 H8         -3.3127    3.3847    4.6022 H         1 <0>         0.1050
     30 H9         -2.7077    1.8848    5.3455 H         1 <0>         0.0585
     31 H10         3.0486   -1.0101    5.3233 H         1 <0>         0.4335
     32 H11         5.5134   -2.6981    9.2604 H         1 <0>         0.1405
     33 H12         3.9427   -1.6174   10.9975 H         1 <0>         0.1903
     34 H13         6.4395   -3.3576    7.6987 H         1 <0>         0.4022
     35 H14         6.7122   -3.5537    6.0526 H         1 <0>         0.4050
@<TRIPOS>BOND
     1    1    2 1
     2    1   22 1
     3    1   23 1
     4    1   24 1
     5    2    3 1
     6    3    8 ar
     7    3    4 ar
     8    4    5 ar
     9    4   25 1
    10    5    6 ar
    11    5   26 1
    12    6    7 ar
    13    6   11 1
    14    7    8 ar
    15    7   27 1
    16    8    9 1
    17    9   10 1
    18   10   28 1
    19   10   29 1
    20   10   30 1
    21   11   12 2
    22   11   13 am
    23   13   14 1
    24   13   31 1
    25   14   18 1
    26   14   15 2
    27   15   16 1
    28   15   19 1
    29   16   17 2
    30   16   32 1
    31   17   18 1
    32   17   33 1
    33   19   20 2
    34   19   21 am
    35   21   34 1
    36   21   35 1
@<TRIPOS>MOLECULE
ZINC00725713
   45    47     0     0     0
SMALL
USER_CHARGES

@<TRIPOS>ATOM
      1 C1         -0.0173    1.4248    0.0099 C.3       1 <0>         0.0215
      2 O1          0.0021   -0.0041    0.0020 O.3       1 <0>        -0.2982
      3 C2          0.6053   -0.6067   -1.0549 C.ar      1 <0>         0.1384
      4 C3          1.1721    0.1643   -2.0609 C.ar      1 <0>        -0.1812
      5 C4          1.7854   -0.4422   -3.1354 C.ar      1 <0>        -0.0743
      6 C5          1.8379   -1.8363   -3.2144 C.ar      1 <0>        -0.1397
      7 C6          1.2678   -2.6125   -2.2016 C.ar      1 <0>        -0.1070
      8 C7          0.6592   -1.9979   -1.1245 C.ar      1 <0>         0.0947
      9 O2          0.1080   -2.7502   -0.1347 O.3       1 <0>        -0.3017
     10 C8          0.1998   -4.1697   -0.2710 C.3       1 <0>         0.0218
     11 C9          2.4934   -2.4875   -4.3648 C.2       1 <0>         0.5617
     12 O3          2.5383   -3.7007   -4.4323 O.2       1 <0>        -0.4967
     13 N1          3.0423   -1.7375   -5.3409 N.am      1 <0>        -0.6167
     14 C10         3.6577   -2.3490   -6.4211 C.2       1 <0>         0.0394
     15 C11         4.2750   -1.7440   -7.5051 C.2       1 <0>        -0.2375
     16 C12         4.8497   -2.6167   -8.5140 C.2       1 <0>        -0.0618
     17 C13         4.7017   -3.9337   -8.2545 C.2       1 <0>        -0.2247
     18 S1          3.8337   -3.9930   -6.7144 S.3       1 <0>         0.2898
     19 C14         5.1797   -5.0758   -9.0969 C.3       1 <0>        -0.0348
     20 C15         5.5334   -4.5329  -10.4893 C.3       1 <0>        -0.1142
     21 C16         6.4039   -3.2835  -10.3277 C.3       1 <0>        -0.1195
     22 C17         5.5649   -2.1331   -9.7670 C.3       1 <0>        -0.0601
     23 C18         4.3444   -0.2848   -7.6281 C.2       1 <0>         0.5854
     24 O4          5.2893    0.3214   -7.1577 O.2       1 <0>        -0.5340
     25 N2          3.3619    0.3855   -8.2620 N.am      1 <0>        -0.8483
     26 H1          1.0053    1.8021    0.0021 H         1 <0>         0.0598
     27 H2         -0.5445    1.7859   -0.8732 H         1 <0>         0.0595
     28 H3         -0.5275    1.7763    0.9067 H         1 <0>         0.1062
     29 H4          1.1319    1.2419   -2.0012 H         1 <0>         0.1468
     30 H5          2.2251    0.1599   -3.9167 H         1 <0>         0.1296
     31 H6          1.3064   -3.6902   -2.2591 H         1 <0>         0.1538
     32 H7         -0.2780   -4.6485    0.5838 H         1 <0>         0.1057
     33 H8         -0.3012   -4.4798   -1.1880 H         1 <0>         0.0588
     34 H9          1.2486   -4.4636   -0.3127 H         1 <0>         0.0589
     35 H10         3.0064   -0.7697   -5.2871 H         1 <0>         0.4176
     36 H11         6.0631   -5.5235   -8.6418 H         1 <0>         0.0823
     37 H12         4.3914   -5.8236   -9.1835 H         1 <0>         0.0812
     38 H13         6.0827   -5.2908  -11.0479 H         1 <0>         0.0738
     39 H14         4.6192   -4.2743  -11.0235 H         1 <0>         0.0678
     40 H15         7.2245   -3.4999   -9.6437 H         1 <0>         0.0674
     41 H16         6.8092   -2.9965  -11.2980 H         1 <0>         0.0702
     42 H17         4.8306   -1.8204  -10.5094 H         1 <0>         0.0767
     43 H18         6.2148   -1.2946   -9.5164 H         1 <0>         0.0752
     44 H19         2.6089   -0.0975   -8.6368 H         1 <0>         0.4036
     45 H20         3.4078    1.3510   -8.3434 H         1 <0>         0.4028
@<TRIPOS>BOND
     1    1    2 1
     2    1   26 1
     3    1   27 1
     4    1   28 1
     5    2    3 1
     6    3    8 ar
     7    3    4 ar
     8    4    5 ar
     9    4   29 1
    10    5    6 ar
    11    5   30 1
    12    6    7 ar
    13    6   11 1
    14    7    8 ar
    15    7   31 1
    16    8    9 1
    17    9   10 1
    18   10   32 1
    19   10   33 1
    20   10   34 1
    21   11   12 2
    22   11   13 am
    23   13   14 1
    24   13   35 1
    25   14   18 1
    26   14   15 2
    27   15   16 1
    28   15   23 1
    29   16   22 1
    30   16   17 2
    31   17   18 1
    32   17   19 1
    33   19   20 1
    34   19   36 1
    35   19   37 1
    36   20   21 1
    37   20   38 1
    38   20   39 1
    39   21   22 1
    40   21   40 1
    41   21   41 1
    42   22   42 1
    43   22   43 1
    44   23   24 2
    45   23   25 am
    46   25   44 1
    47   25   45 1
@<TRIPOS>MOLECULE
ZINC00370724
   41    42     0     0     0
SMALL
USER_CHARGES
2-(3,4-dimethoxybenzoyl)amino-4,5-dimethyl-thiophene-3-carboxamide
@<TRIPOS>ATOM
      1 C1         -2.5232    0.8499   -2.5538 C.3       1 <0>        -0.1006
      2 C2         -3.1033    0.4928   -1.2095 C.2       1 <0>        -0.0740
      3 C3         -4.2550   -0.1940   -1.1029 C.2       1 <0>        -0.2053
      4 S1         -4.4817   -0.3435    0.6570 S.3       1 <0>         0.2256
      5 C4         -3.0648    0.4889    1.2028 C.2       1 <0>         0.0755
      6 C5         -2.4468    0.8736    0.0184 C.2       1 <0>        -0.2304
      7 C6         -1.1873    1.6238    0.0165 C.2       1 <0>         0.5861
      8 O1         -1.2038    2.8408    0.0232 O.2       1 <0>        -0.5326
      9 N1         -0.0111    0.9658    0.0074 N.am      1 <0>        -0.8477
     10 N2         -2.6491    0.7182    2.5044 N.am      1 <0>        -0.6168
     11 C7         -3.3866    0.2645    3.5372 C.2       1 <0>         0.5618
     12 O2         -4.4169   -0.3460    3.3267 O.2       1 <0>        -0.4954
     13 C8         -2.9439    0.5087    4.9234 C.ar      1 <0>        -0.1400
     14 C9         -1.7572    1.2051    5.1670 C.ar      1 <0>        -0.0744
     15 C10        -1.3474    1.4361    6.4621 C.ar      1 <0>        -0.1811
     16 C11        -2.1061    0.9699    7.5273 C.ar      1 <0>         0.1385
     17 C12        -3.2883    0.2698    7.2914 C.ar      1 <0>         0.0947
     18 C13        -3.7074    0.0390    5.9955 C.ar      1 <0>        -0.1070
     19 O3         -4.0292   -0.1856    8.3370 O.3       1 <0>        -0.3017
     20 C14        -5.2292   -0.8946    8.0218 C.3       1 <0>         0.0219
     21 O4         -1.6955    1.1960    8.8018 O.3       1 <0>        -0.2982
     22 C15        -0.4751    1.9198    8.9714 C.3       1 <0>         0.0215
     23 C16        -5.1400   -0.7125   -2.2070 C.3       1 <0>        -0.0659
     24 H1         -1.8572    0.0532   -2.8854 H         1 <0>         0.0718
     25 H2         -3.3299    0.9734   -3.2764 H         1 <0>         0.0740
     26 H3         -1.9629    1.7813   -2.4719 H         1 <0>         0.0646
     27 H4          0.0021   -0.0041    0.0020 H         1 <0>         0.4039
     28 H5          0.8223    1.4622    0.0021 H         1 <0>         0.4035
     29 H6         -1.8272    1.2053    2.6724 H         1 <0>         0.4185
     30 H7         -1.1630    1.5653    4.3403 H         1 <0>         0.1299
     31 H8         -0.4320    1.9778    6.6490 H         1 <0>         0.1469
     32 H9         -4.6229   -0.5036    5.8113 H         1 <0>         0.1537
     33 H10        -5.7229   -1.2012    8.9439 H         1 <0>         0.1057
     34 H11        -5.8948   -0.2468    7.4513 H         1 <0>         0.0589
     35 H12        -4.9852   -1.7766    7.4296 H         1 <0>         0.0588
     36 H13         0.3395    1.3756    8.4934 H         1 <0>         0.0595
     37 H14        -0.5706    2.9051    8.5154 H         1 <0>         0.0598
     38 H15        -0.2632    2.0306   10.0349 H         1 <0>         0.1062
     39 H16        -4.8275   -1.7204   -2.4801 H         1 <0>         0.0775
     40 H17        -6.1744   -0.7332   -1.8640 H         1 <0>         0.0729
     41 H18        -5.0582   -0.0589   -3.0754 H         1 <0>         0.0796
@<TRIPOS>BOND
     1    1    2 1
     2    1   24 1
     3    1   25 1
     4    1   26 1
     5    2    6 1
     6    2    3 2
     7    3    4 1
     8    3   23 1
     9    4    5 1
    10    5    6 2
    11    5   10 1
    12    6    7 1
    13    7    8 2
    14    7    9 am
    15    9   27 1
    16    9   28 1
    17   10   11 am
    18   10   29 1
    19   11   12 2
    20   11   13 1
    21   13   18 ar
    22   13   14 ar
    23   14   15 ar
    24   14   30 1
    25   15   16 ar
    26   15   31 1
    27   16   17 ar
    28   16   21 1
    29   17   18 ar
    30   17   19 1
    31   18   32 1
    32   19   20 1
    33   20   33 1
    34   20   34 1
    35   20   35 1
    36   21   22 1
    37   22   36 1
    38   22   37 1
    39   22   38 1
    40   23   39 1
    41   23   40 1
    42   23   41 1
@<TRIPOS>MOLECULE
ZINC16004260
   36    38     0     0     0
SMALL
USER_CHARGES
N-(3-carbamoyl-4,5,6,7-tetrahydrobenzothiophen-2-yl)pyridine-2-carboxamide
@<TRIPOS>ATOM
      1 C1          2.2729    8.1334    0.0249 C.ar      1 <0>        -0.0787
      2 C2          3.6592    8.1208    0.0111 C.ar      1 <0>        -0.1395
      3 C3          4.3273    6.9070   -0.0023 C.ar      1 <0>         0.1026
      4 N1          3.6646    5.7710   -0.0020 N.ar      1 <0>        -0.4612
      5 C4          2.3376    5.7390    0.0110 C.ar      1 <0>         0.0726
      6 C5          1.6007    6.9216    0.0191 C.ar      1 <0>        -0.1016
      7 C6          1.6345    4.4355    0.0107 C.2       1 <0>         0.5711
      8 O1          0.4198    4.4004    0.0226 O.2       1 <0>        -0.4903
      9 N2          2.3417    3.2883   -0.0027 N.am      1 <0>        -0.6022
     10 C7          1.6840    2.0691   -0.0029 C.2       1 <0>         0.0707
     11 C8          2.2316    0.7937   -0.0149 C.2       1 <0>        -0.2251
     12 C9          1.3126   -0.3316   -0.0120 C.2       1 <0>        -0.0651
     13 C10         0.0021   -0.0041    0.0020 C.2       1 <0>        -0.2067
     14 S1         -0.0219    1.7661    0.0118 S.3       1 <0>         0.2286
     15 C11        -1.1638   -0.9441    0.0074 C.3       1 <0>        -0.0354
     16 C12        -0.6604   -2.3413   -0.3830 C.3       1 <0>        -0.1157
     17 C13         0.5902   -2.6630    0.4402 C.3       1 <0>        -0.1185
     18 C14         1.7570   -1.7890   -0.0232 C.3       1 <0>        -0.0607
     19 C15         3.6834    0.5897   -0.0301 C.2       1 <0>         0.5846
     20 O2          4.2758    0.5105   -1.0904 O.2       1 <0>        -0.5319
     21 N3          4.3620    0.4897    1.1301 N.am      1 <0>        -0.8475
     22 H1          1.7292    9.0665    0.0355 H         1 <0>         0.1483
     23 H2          4.2129    9.0480    0.0103 H         1 <0>         0.1466
     24 H3          5.4072    6.8936   -0.0127 H         1 <0>         0.1684
     25 H4          0.5211    6.8941    0.0252 H         1 <0>         0.1530
     26 H5          3.3112    3.3163   -0.0121 H         1 <0>         0.4298
     27 H6         -1.6038   -0.9776    1.0041 H         1 <0>         0.0831
     28 H7         -1.9101   -0.6076   -0.7123 H         1 <0>         0.0815
     29 H8         -1.4346   -3.0799   -0.1752 H         1 <0>         0.0743
     30 H9         -0.4154   -2.3578   -1.4450 H         1 <0>         0.0689
     31 H10         0.3895   -2.4701    1.4941 H         1 <0>         0.0671
     32 H11         0.8509   -3.7130    0.3075 H         1 <0>         0.0703
     33 H12         2.6018   -1.9186    0.6533 H         1 <0>         0.0721
     34 H13         2.0502   -2.0761   -1.0330 H         1 <0>         0.0796
     35 H14         3.8898    0.5528    1.9751 H         1 <0>         0.4033
     36 H15         5.3225    0.3547    1.1201 H         1 <0>         0.4035
@<TRIPOS>BOND
     1    1    6 ar
     2    1    2 ar
     3    1   22 1
     4    2    3 ar
     5    2   23 1
     6    3    4 ar
     7    3   24 1
     8    4    5 ar
     9    5    6 ar
    10    5    7 1
    11    6   25 1
    12    7    8 2
    13    7    9 am
    14    9   10 1
    15    9   26 1
    16   10   14 1
    17   10   11 2
    18   11   12 1
    19   11   19 1
    20   12   18 1
    21   12   13 2
    22   13   14 1
    23   13   15 1
    24   15   16 1
    25   15   27 1
    26   15   28 1
    27   16   17 1
    28   16   29 1
    29   16   30 1
    30   17   18 1
    31   17   31 1
    32   17   32 1
    33   18   33 1
    34   18   34 1
    35   19   20 2
    36   19   21 am
    37   21   35 1
    38   21   36 1
@<TRIPOS>MOLECULE
ZINC00042534
   30    31     0     0     0
SMALL
USER_CHARGES

@<TRIPOS>ATOM
      1 C1         -0.0184    1.5028    0.0103 C.3       1 <0>        -0.1693
      2 C2          0.0021   -0.0041    0.0020 C.2       1 <0>         0.5054
      3 O1          1.0605   -0.5961   -0.0113 O.2       1 <0>        -0.5031
      4 N1         -1.1558   -0.6938    0.0094 N.am      1 <0>        -0.6232
      5 C3         -1.1370   -2.0802    0.0017 C.2       1 <0>         0.0372
      6 C4         -2.2185   -2.9471    0.0018 C.2       1 <0>        -0.2387
      7 C5         -1.9287   -4.3704   -0.0070 C.2       1 <0>        -0.0625
      8 C6         -0.6110   -4.6659   -0.0139 C.2       1 <0>        -0.2251
      9 S1          0.2012   -3.0945   -0.0171 S.3       1 <0>         0.2864
     10 C7          0.0048   -6.0308   -0.0220 C.3       1 <0>        -0.0349
     11 C8         -1.0784   -7.0507    0.3591 C.3       1 <0>        -0.1142
     12 C9         -2.3351   -6.7724   -0.4705 C.3       1 <0>        -0.1196
     13 C10        -2.9848   -5.4658   -0.0097 C.3       1 <0>        -0.0602
     14 C11        -3.5972   -2.4483    0.0109 C.2       1 <0>         0.5861
     15 O2         -4.1744   -2.2358   -1.0394 O.2       1 <0>        -0.5348
     16 N2         -4.2254   -2.2251    1.1822 N.am      1 <0>        -0.8482
     17 H1          1.0042    1.8801    0.0026 H         1 <0>         0.1049
     18 H2         -0.5455    1.8639   -0.8728 H         1 <0>         0.0973
     19 H3         -0.5286    1.8543    0.9071 H         1 <0>         0.0967
     20 H4         -2.0023   -0.2203    0.0200 H         1 <0>         0.4193
     21 H5          0.3871   -6.2556   -1.0177 H         1 <0>         0.0822
     22 H6          0.8185   -6.0711    0.7022 H         1 <0>         0.0811
     23 H7         -0.7198   -8.0589    0.1515 H         1 <0>         0.0739
     24 H8         -1.3124   -6.9557    1.4194 H         1 <0>         0.0678
     25 H9         -2.0633   -6.6898   -1.5229 H         1 <0>         0.0674
     26 H10        -3.0417   -7.5926   -0.3437 H         1 <0>         0.0703
     27 H11        -3.3839   -5.5914    0.9968 H         1 <0>         0.0766
     28 H12        -3.7896   -5.1962   -0.6936 H         1 <0>         0.0751
     29 H13        -3.7654   -2.3945    2.0192 H         1 <0>         0.4033
     30 H14        -5.1375   -1.8952    1.1882 H         1 <0>         0.4028
@<TRIPOS>BOND
     1    1    2 1
     2    1   17 1
     3    1   18 1
     4    1   19 1
     5    2    3 2
     6    2    4 am
     7    4    5 1
     8    4   20 1
     9    5    9 1
    10    5    6 2
    11    6    7 1
    12    6   14 1
    13    7   13 1
    14    7    8 2
    15    8    9 1
    16    8   10 1
    17   10   11 1
    18   10   21 1
    19   10   22 1
    20   11   12 1
    21   11   23 1
    22   11   24 1
    23   12   13 1
    24   12   25 1
    25   12   26 1
    26   13   27 1
    27   13   28 1
    28   14   15 2
    29   14   16 am
    30   16   29 1
    31   16   30 1
@<TRIPOS>MOLECULE
ZINC00027793
   34    36     0     0     0
SMALL
USER_CHARGES
N-(3-carbamoyl-4,5,6,7-tetrahydrobenzothiophen-2-yl)furan-2-carboxamide
@<TRIPOS>ATOM
      1 C1          4.5959    0.4614   -0.0388 C.2       1 <0>        -0.2255
      2 C2          3.6661    1.5126   -0.0248 C.2       1 <0>        -0.0966
      3 C3          2.4261    0.9399   -0.0161 C.2       1 <0>        -0.0931
      4 O1          2.5851   -0.3998   -0.0189 O.3       1 <0>        -0.1658
      5 C4          3.8920   -0.6923   -0.0380 C.2       1 <0>         0.0109
      6 C5          1.1468    1.6555   -0.0000 C.2       1 <0>         0.6037
      7 O2          1.1303    2.8725    0.0067 O.2       1 <0>        -0.4795
      8 N1         -0.0111    0.9658    0.0074 N.am      1 <0>        -0.6119
      9 C6         -1.2199    1.6420    0.0168 C.2       1 <0>         0.0687
     10 C7         -2.5037    1.1139    0.0143 C.2       1 <0>        -0.2229
     11 C8         -3.6147    2.0502    0.0300 C.2       1 <0>        -0.0660
     12 C9         -3.2671    3.3554    0.0348 C.2       1 <0>        -0.2045
     13 S1         -1.4967    3.3523    0.0268 S.3       1 <0>         0.2326
     14 C10        -4.1890    4.5356    0.0440 C.3       1 <0>        -0.0365
     15 C11        -5.5975    4.0521   -0.3305 C.3       1 <0>        -0.1143
     16 C12        -5.9303    2.8103    0.5015 C.3       1 <0>        -0.1198
     17 C13        -5.0788    1.6282    0.0350 C.3       1 <0>        -0.0613
     18 C14        -2.7300   -0.3344    0.0007 C.2       1 <0>         0.5838
     19 O3         -2.8223   -0.9458    1.0491 O.2       1 <0>        -0.5322
     20 N2         -2.8360   -0.9889   -1.1727 N.am      1 <0>        -0.8472
     21 H1          5.6716    0.5566   -0.0490 H         1 <0>         0.1631
     22 H2          3.8880    2.5696   -0.0219 H         1 <0>         0.1662
     23 H3          4.3140   -1.6864   -0.0464 H         1 <0>         0.2162
     24 H4          0.0021   -0.0041    0.0020 H         1 <0>         0.4241
     25 H5         -4.2059    4.9805    1.0390 H         1 <0>         0.0837
     26 H6         -3.8482    5.2735   -0.6823 H         1 <0>         0.0822
     27 H7         -6.3220    4.8386   -0.1189 H         1 <0>         0.0745
     28 H8         -5.6282    3.8028   -1.3912 H         1 <0>         0.0684
     29 H9         -5.7241    3.0126    1.5525 H         1 <0>         0.0679
     30 H10        -6.9854    2.5652    0.3802 H         1 <0>         0.0708
     31 H11        -5.2147    0.7884    0.7165 H         1 <0>         0.0756
     32 H12        -5.3803    1.3351   -0.9707 H         1 <0>         0.0772
     33 H13        -2.7625   -0.5016   -2.0082 H         1 <0>         0.4038
     34 H14        -2.9858   -1.9472   -1.1817 H         1 <0>         0.4038
@<TRIPOS>BOND
     1    1    5 2
     2    1    2 1
     3    1   21 1
     4    2    3 2
     5    2   22 1
     6    3    4 1
     7    3    6 1
     8    4    5 1
     9    5   23 1
    10    6    7 2
    11    6    8 am
    12    8    9 1
    13    8   24 1
    14    9   13 1
    15    9   10 2
    16   10   11 1
    17   10   18 1
    18   11   17 1
    19   11   12 2
    20   12   13 1
    21   12   14 1
    22   14   15 1
    23   14   25 1
    24   14   26 1
    25   15   16 1
    26   15   27 1
    27   15   28 1
    28   16   17 1
    29   16   29 1
    30   16   30 1
    31   17   31 1
    32   17   32 1
    33   18   19 2
    34   18   20 am
    35   20   33 1
    36   20   34 1
@<TRIPOS>MOLECULE
ZINC16697102
   68    71     0     0     0
SMALL
USER_CHARGES

@<TRIPOS>ATOM
      1 C1          0.1414    1.0953    0.0252 C.3       1 <0>        -0.1879
      2 C2          0.0344   -0.4077    0.2904 C.3       1 <0>        -0.0179
      3 N1         -1.3805   -0.7845    0.4095 N.4       1 <0>        -0.3831
      4 C3         -1.4799   -2.1986    0.7946 C.3       1 <0>        -0.0114
      5 C4         -0.8914   -2.3887    2.1940 C.3       1 <0>        -0.1507
      6 C5         -0.9950   -3.8615    2.5951 C.3       1 <0>         0.0609
      7 O1         -0.4452   -4.0391    3.9021 O.3       1 <0>        -0.3065
      8 C6         -0.4595   -5.2979    4.4111 C.ar      1 <0>         0.1651
      9 C7         -0.9928   -6.3439    3.6526 C.ar      1 <0>        -0.2107
     10 C8         -1.0196   -7.6158    4.1389 C.ar      1 <0>        -0.0238
     11 C9         -0.5074   -7.8823    5.4144 C.ar      1 <0>        -0.2178
     12 C10         0.0354   -6.8287    6.1913 C.ar      1 <0>         0.2289
     13 C11         0.0571   -5.5307    5.6679 C.ar      1 <0>        -0.1455
     14 N2          0.5204   -7.1100    7.4103 N.ar      1 <0>        -0.5500
     15 C12         0.4909   -8.3384    7.8707 C.ar      1 <0>         0.3626
     16 N3         -0.0056   -9.3531    7.1820 N.ar      1 <0>        -0.5775
     17 C13        -0.5106   -9.1853    5.9662 C.ar      1 <0>         0.4884
     18 N4         -1.0254  -10.2523    5.2597 N.pl3     1 <0>        -0.5978
     19 C14        -1.0192  -11.5341    5.8239 C.2       1 <0>         0.2990
     20 C15        -0.5280  -11.8736    7.0950 C.2       1 <0>        -0.2355
     21 C16        -0.7031  -13.2037    7.2657 C.2       1 <0>         0.1068
     22 N5         -1.2824  -13.6919    6.1487 N.pl3     1 <0>        -0.4559
     23 H1         -1.5251  -14.6176    5.9907 H         1 <0>         0.4419
     24 N6         -1.4765  -12.6271    5.2595 N.2       1 <0>        -0.3116
     25 C17        -0.3191  -13.9996    8.4864 C.3       1 <0>        -0.0770
     26 C18        -1.4265  -13.9219    9.5056 C.2       1 <0>         0.5143
     27 O2         -2.4289  -13.2831    9.2644 O.2       1 <0>        -0.5002
     28 N7         -1.3030  -14.5622   10.6851 N.am      1 <0>        -0.6720
     29 C19        -2.2828  -14.4064   11.6717 C.ar      1 <0>         0.1711
     30 C20        -1.9219  -14.3818   13.0129 C.ar      1 <0>        -0.1532
     31 C21        -2.8902  -14.2274   13.9854 C.ar      1 <0>        -0.0700
     32 C22        -4.2191  -14.0976   13.6262 C.ar      1 <0>        -0.1667
     33 C23        -4.5833  -14.1215   12.2902 C.ar      1 <0>         0.1178
     34 C24        -3.6165  -14.2702   11.3118 C.ar      1 <0>        -0.1591
     35 F1         -5.8825  -13.9949   11.9421 F         1 <0>        -0.1354
     36 C25        -2.0519   -0.5800   -0.8810 C.3       1 <0>        -0.0098
     37 C26        -3.5535   -0.8247   -0.7191 C.3       1 <0>         0.0446
     38 O3         -4.1050    0.1610    0.1562 O.3       1 <0>        -0.5793
     39 H2          1.1903    1.3917    0.0323 H         1 <0>         0.1072
     40 H3         -0.2944    1.3246   -0.9472 H         1 <0>         0.0804
     41 H4         -0.3955    1.6404    0.8016 H         1 <0>         0.0817
     42 H5          0.4880   -0.9556   -0.5355 H         1 <0>         0.1307
     43 H6          0.5544   -0.6511    1.2170 H         1 <0>         0.1338
     44 H7         -2.5269   -2.5019    0.7965 H         1 <0>         0.1336
     45 H8         -0.9261   -2.8092    0.0814 H         1 <0>         0.1348
     46 H9          0.1556   -2.0854    2.1921 H         1 <0>         0.1011
     47 H10        -1.4452   -1.7781    2.9071 H         1 <0>         0.1012
     48 H11        -2.0419   -4.1648    2.5970 H         1 <0>         0.0752
     49 H12        -0.4411   -4.4721    1.8820 H         1 <0>         0.0757
     50 H13        -1.3888   -6.1408    2.6686 H         1 <0>         0.1349
     51 H14        -1.4346   -8.4154    3.5432 H         1 <0>         0.1334
     52 H15         0.4712   -4.7175    6.2456 H         1 <0>         0.1508
     53 H16         0.8901   -8.5298    8.8558 H         1 <0>         0.2027
     54 H17        -1.3916  -10.1149    4.3721 H         1 <0>         0.4252
     55 H18        -0.0885  -11.1933    7.8093 H         1 <0>         0.1852
     56 H19        -0.1563  -15.0401    8.2054 H         1 <0>         0.1142
     57 H20         0.5968  -13.5910    8.9133 H         1 <0>         0.1312
     58 H21        -0.5348  -15.1312   10.8499 H         1 <0>         0.4166
     59 H22        -0.8844  -14.4838   13.2950 H         1 <0>         0.1350
     60 H23        -2.6091  -14.2084   15.0280 H         1 <0>         0.1399
     61 H24        -4.9744  -13.9777   14.3888 H         1 <0>         0.1383
     62 H25        -3.8995  -14.2849   10.2696 H         1 <0>         0.1494
     63 H26        -1.8848    0.4425   -1.2196 H         1 <0>         0.1421
     64 H27        -1.6474   -1.2765   -1.6154 H         1 <0>         0.1431
     65 H28        -4.0394   -0.7588   -1.6926 H         1 <0>         0.0960
     66 H29        -3.7166   -1.8167   -0.2980 H         1 <0>         0.0707
     67 H30        -5.0389    0.0226    0.3657 H         1 <0>         0.4093
     68 H31        -1.8228   -0.2123    1.1131 H         1 <0>         0.4316
@<TRIPOS>BOND
     1    1    2 1
     2    1   39 1
     3    1   40 1
     4    1   41 1
     5    2    3 1
     6    2   42 1
     7    2   43 1
     8    3    4 1
     9    3   36 1
    10    3   68 1
    11    4    5 1
    12    4   44 1
    13    4   45 1
    14    5    6 1
    15    5   46 1
    16    5   47 1
    17    6    7 1
    18    6   48 1
    19    6   49 1
    20    7    8 1
    21    8   13 ar
    22    8    9 ar
    23    9   10 ar
    24    9   50 1
    25   10   11 ar
    26   10   51 1
    27   11   17 ar
    28   11   12 ar
    29   12   13 ar
    30   12   14 ar
    31   13   52 1
    32   14   15 ar
    33   15   16 ar
    34   15   53 1
    35   16   17 ar
    36   17   18 1
    37   18   19 1
    38   18   54 1
    39   19   24 2
    40   19   20 1
    41   20   21 2
    42   20   55 1
    43   21   22 1
    44   21   25 1
    45   22   23 1
    46   22   24 1
    47   25   26 1
    48   25   56 1
    49   25   57 1
    50   26   27 2
    51   26   28 am
    52   28   29 1
    53   28   58 1
    54   29   34 ar
    55   29   30 ar
    56   30   31 ar
    57   30   59 1
    58   31   32 ar
    59   31   60 1
    60   32   33 ar
    61   32   61 1
    62   33   34 ar
    63   33   35 1
    64   34   62 1
    65   36   37 1
    66   36   63 1
    67   36   64 1
    68   37   38 1
    69   37   65 1
    70   37   66 1
    71   38   67 1
@<TRIPOS>MOLECULE
ZINC16697102
   68    71     0     0     0
SMALL
USER_CHARGES

@<TRIPOS>ATOM
      1 C1          0.1009    1.0895    0.0671 C.3       1 <0>        -0.1880
      2 C2          0.0005   -0.4150    0.3267 C.3       1 <0>        -0.0178
      3 N1         -1.4127   -0.7982    0.4447 N.4       1 <0>        -0.3831
      4 C3         -1.5060   -2.2142    0.8244 C.3       1 <0>        -0.0114
      5 C4         -0.9163   -2.4070    2.2230 C.3       1 <0>        -0.1510
      6 C5         -1.0135   -3.8818    2.6185 C.3       1 <0>         0.0610
      7 O1         -0.4626   -4.0619    3.9247 O.3       1 <0>        -0.3058
      8 C6         -0.4714   -5.3227    4.4290 C.ar      1 <0>         0.1652
      9 C7         -1.0003   -6.3681    3.6667 C.ar      1 <0>        -0.2079
     10 C8         -1.0216   -7.6420    4.1481 C.ar      1 <0>        -0.0271
     11 C9         -0.5079   -7.9111    5.4225 C.ar      1 <0>        -0.2157
     12 C10         0.0306   -6.8581    6.2032 C.ar      1 <0>         0.2279
     13 C11         0.0466   -5.5580    5.6848 C.ar      1 <0>        -0.1434
     14 N2          0.5172   -7.1419    7.4211 N.ar      1 <0>        -0.5462
     15 C12         0.4930   -8.3722    7.8768 C.ar      1 <0>         0.3627
     16 N3          0.0007   -9.3864    7.1844 N.ar      1 <0>        -0.5729
     17 C13        -0.5054   -9.2161    5.9694 C.ar      1 <0>         0.4842
     18 N4         -1.0159  -10.2829    5.2588 N.pl3     1 <0>        -0.6133
     19 C14        -1.0041  -11.5601    5.8152 C.2       1 <0>         0.2975
     20 C15        -0.5278  -11.8985    7.0451 C.2       1 <0>        -0.2522
     21 C16        -0.7053  -13.2747    7.2096 C.2       1 <0>         0.0931
     22 N5         -1.2647  -13.7522    6.1276 N.2       1 <0>        -0.2441
     23 N6         -1.4709  -12.6946    5.2325 N.pl3     1 <0>        -0.4898
     24 H1         -1.8732  -12.7611    4.3523 H         1 <0>         0.4364
     25 C17        -0.3175  -14.0738    8.4270 C.3       1 <0>        -0.0571
     26 C18        -1.5188  -14.8275    8.9368 C.2       1 <0>         0.5153
     27 O2         -2.5849  -14.7257    8.3676 O.2       1 <0>        -0.4982
     28 N7         -1.4084  -15.6146   10.0253 N.am      1 <0>        -0.6749
     29 C19        -2.5443  -16.2321   10.5602 C.ar      1 <0>         0.1739
     30 C20        -2.6655  -16.3952   11.9344 C.ar      1 <0>        -0.1553
     31 C21        -3.7876  -17.0044   12.4607 C.ar      1 <0>        -0.0709
     32 C22        -4.7909  -17.4530   11.6216 C.ar      1 <0>        -0.1690
     33 C23        -4.6742  -17.2924   10.2511 C.ar      1 <0>         0.1173
     34 C24        -3.5547  -16.6775    9.7191 C.ar      1 <0>        -0.1594
     35 F1         -5.6558  -17.7320    9.4336 F         1 <0>        -0.1360
     36 C25        -2.0854   -0.5918   -0.8449 C.3       1 <0>        -0.0099
     37 C26        -3.5858   -0.8435   -0.6835 C.3       1 <0>         0.0446
     38 O3         -4.1414    0.1365    0.1957 O.3       1 <0>        -0.5792
     39 H2          1.1486    1.3904    0.0751 H         1 <0>         0.1074
     40 H3         -0.3361    1.3206   -0.9043 H         1 <0>         0.0805
     41 H4         -0.4380    1.6293    0.8457 H         1 <0>         0.0817
     42 H5          0.4562   -0.9578   -0.5014 H         1 <0>         0.1308
     43 H6          0.5217   -0.6596    1.2522 H         1 <0>         0.1337
     44 H7         -2.5517   -2.5220    0.8255 H         1 <0>         0.1335
     45 H8         -0.9498   -2.8197    0.1089 H         1 <0>         0.1347
     46 H9          0.1294   -2.0993    2.2220 H         1 <0>         0.1014
     47 H10        -1.4725   -1.8015    2.9385 H         1 <0>         0.1015
     48 H11        -2.0591   -4.1896    2.6196 H         1 <0>         0.0752
     49 H12        -0.4572   -4.4873    1.9030 H         1 <0>         0.0757
     50 H13        -1.3975   -6.1630    2.6836 H         1 <0>         0.1354
     51 H14        -1.4333   -8.4411    3.5496 H         1 <0>         0.1313
     52 H15         0.4574   -4.7453    6.2654 H         1 <0>         0.1520
     53 H16         0.8932   -8.5656    8.8611 H         1 <0>         0.2055
     54 H17        -1.3830  -10.1437    4.3718 H         1 <0>         0.4209
     55 H18        -0.0902  -11.2232    7.7655 H         1 <0>         0.1880
     56 H19         0.4693  -14.7803    8.1624 H         1 <0>         0.1181
     57 H20         0.0452  -13.4002    9.2034 H         1 <0>         0.1229
     58 H21        -0.5415  -15.7530   10.4378 H         1 <0>         0.4158
     59 H22        -1.8824  -16.0460   12.5909 H         1 <0>         0.1343
     60 H23        -3.8814  -17.1310   13.5291 H         1 <0>         0.1388
     61 H24        -5.6670  -17.9297   12.0358 H         1 <0>         0.1372
     62 H25        -3.4650  -16.5484    8.6506 H         1 <0>         0.1513
     63 H26        -1.9227    0.4328   -1.1796 H         1 <0>         0.1424
     64 H27        -1.6780   -1.2838   -1.5820 H         1 <0>         0.1432
     65 H28        -4.0723   -0.7760   -1.6566 H         1 <0>         0.0961
     66 H29        -3.7446   -1.8378   -0.2661 H         1 <0>         0.0704
     67 H30        -5.0746   -0.0067    0.4048 H         1 <0>         0.4093
     68 H31        -1.8573   -0.2307    1.1505 H         1 <0>         0.4316
@<TRIPOS>BOND
     1    1    2 1
     2    1   39 1
     3    1   40 1
     4    1   41 1
     5    2    3 1
     6    2   42 1
     7    2   43 1
     8    3    4 1
     9    3   36 1
    10    3   68 1
    11    4    5 1
    12    4   44 1
    13    4   45 1
    14    5    6 1
    15    5   46 1
    16    5   47 1
    17    6    7 1
    18    6   48 1
    19    6   49 1
    20    7    8 1
    21    8   13 ar
    22    8    9 ar
    23    9   10 ar
    24    9   50 1
    25   10   11 ar
    26   10   51 1
    27   11   17 ar
    28   11   12 ar
    29   12   13 ar
    30   12   14 ar
    31   13   52 1
    32   14   15 ar
    33   15   16 ar
    34   15   53 1
    35   16   17 ar
    36   17   18 1
    37   18   19 1
    38   18   54 1
    39   19   23 1
    40   19   20 2
    41   20   21 1
    42   20   55 1
    43   21   22 2
    44   21   25 1
    45   22   23 1
    46   23   24 1
    47   25   26 1
    48   25   56 1
    49   25   57 1
    50   26   27 2
    51   26   28 am
    52   28   29 1
    53   28   58 1
    54   29   34 ar
    55   29   30 ar
    56   30   31 ar
    57   30   59 1
    58   31   32 ar
    59   31   60 1
    60   32   33 ar
    61   32   61 1
    62   33   34 ar
    63   33   35 1
    64   34   62 1
    65   36   37 1
    66   36   63 1
    67   36   64 1
    68   37   38 1
    69   37   65 1
    70   37   66 1
    71   38   67 1
@<TRIPOS>MOLECULE
ZINC18230030
   32    35     0     0     0
SMALL
USER_CHARGES

@<TRIPOS>ATOM
      1 C1         -0.0024    1.3636   -0.3852 C.ar      1 <0>        -0.1425
      2 C2          1.1843    2.0764   -0.3355 C.ar      1 <0>        -0.0866
      3 C3          2.3918    1.4233   -0.1939 C.ar      1 <0>        -0.1380
      4 C4          2.4281    0.0365   -0.0988 C.ar      1 <0>         0.1367
      5 C5          1.2250   -0.6816   -0.1490 C.ar      1 <0>        -0.0800
      6 C6          0.0127   -0.0131   -0.2925 C.ar      1 <0>        -0.0826
      7 C7          1.5867   -2.1097   -0.0238 C.2       1 <0>        -0.2056
      8 C8          0.7284   -3.2007   -0.0213 C.2       1 <0>         0.2986
      9 C9         -0.7457   -3.1540    0.0907 C.2       1 <0>         0.1829
     10 N1         -1.5003   -2.0946    0.2062 N.2       1 <0>        -0.2631
     11 O1         -2.9062   -2.2339    0.3026 O.3       1 <0>        -0.3834
     12 C10        -1.1809   -4.5701    0.0427 C.ar      1 <0>        -0.1642
     13 C11        -2.4307   -5.1782    0.1013 C.ar      1 <0>        -0.0259
     14 C12        -2.5280   -6.5532    0.0311 C.ar      1 <0>        -0.1512
     15 C13        -1.3849   -7.3243   -0.0969 C.ar      1 <0>        -0.0586
     16 C14        -0.1407   -6.7311   -0.1555 C.ar      1 <0>        -0.1447
     17 C15        -0.0228   -5.3458   -0.0871 C.ar      1 <0>         0.1647
     18 N2          1.0909   -4.5168   -0.1279 N.pl3     1 <0>        -0.6175
     19 C16         3.0493   -2.1247    0.0967 C.2       1 <0>         0.5684
     20 O2          3.7472   -3.1157    0.2192 O.2       1 <0>        -0.5230
     21 N3          3.4842   -0.8541    0.0471 N.am      1 <0>        -0.6490
     22 H1         -0.9413    1.8865   -0.4922 H         1 <0>         0.1273
     23 H2          1.1645    3.1537   -0.4088 H         1 <0>         0.1294
     24 H3          3.3103    1.9903   -0.1572 H         1 <0>         0.1266
     25 H4         -0.9122   -0.5695   -0.3311 H         1 <0>         0.1639
     26 H5         -3.3798   -1.3948    0.3850 H         1 <0>         0.4132
     27 H6         -3.3218   -4.5764    0.2018 H         1 <0>         0.1385
     28 H7         -3.4969   -7.0283    0.0763 H         1 <0>         0.1358
     29 H8         -1.4681   -8.3998   -0.1510 H         1 <0>         0.1377
     30 H9          0.7438   -7.3428   -0.2549 H         1 <0>         0.1344
     31 H10         2.0048   -4.8291   -0.2181 H         1 <0>         0.4389
     32 H11         4.4164   -0.5923    0.1057 H         1 <0>         0.4189
@<TRIPOS>BOND
     1    1    6 ar
     2    1    2 ar
     3    1   22 1
     4    2    3 ar
     5    2   23 1
     6    3    4 ar
     7    3   24 1
     8    4   21 1
     9    4    5 ar
    10    5    6 ar
    11    5    7 1
    12    6   25 1
    13    7    8 2
    14    7   19 1
    15    8   18 1
    16    8    9 1
    17    9   10 2
    18    9   12 1
    19   10   11 1
    20   11   26 1
    21   12   17 ar
    22   12   13 ar
    23   13   14 ar
    24   13   27 1
    25   14   15 ar
    26   14   28 1
    27   15   16 ar
    28   15   29 1
    29   16   17 ar
    30   16   30 1
    31   17   18 1
    32   18   31 1
    33   19   20 2
    34   19   21 am
    35   21   32 1
@<TRIPOS>MOLECULE
ZINC18230030
   32    35     0     0     0
SMALL
USER_CHARGES

@<TRIPOS>ATOM
      1 C1         -0.0166    1.3748    0.0096 C.ar      1 <0>        -0.1225
      2 C2          1.1716    2.0888    0.0021 C.ar      1 <0>        -0.0962
      3 C3          2.3849    1.4332   -0.0130 C.ar      1 <0>        -0.1155
      4 C4          2.4239    0.0437   -0.0209 C.ar      1 <0>         0.0981
      5 C5          1.2204   -0.6769   -0.0133 C.ar      1 <0>        -0.0528
      6 C6          0.0021   -0.0041    0.0020 C.ar      1 <0>        -0.0805
      7 C7          1.5974   -2.1049   -0.0246 C.2       1 <0>        -0.2093
      8 C8          2.9936   -2.1364   -0.0381 C.2       1 <0>         0.3333
      9 N1          3.4675   -0.8669   -0.0358 N.pl3     1 <0>        -0.5789
     10 H1          4.4078   -0.6287   -0.0438 H         1 <0>         0.4230
     11 O1          3.7505   -3.2537   -0.0509 O.3       1 <0>        -0.4537
     12 C9          0.7262   -3.2100   -0.0222 C.2       1 <0>         0.3448
     13 C10         0.1967   -3.8930    1.1657 C.2       1 <0>        -0.1671
     14 C11        -0.6625   -4.9778    0.6376 C.ar      1 <0>        -0.0626
     15 C12        -1.4332   -5.9613    1.2492 C.ar      1 <0>        -0.0741
     16 C13        -2.1438   -6.8553    0.4745 C.ar      1 <0>        -0.1171
     17 C14        -2.0895   -6.7734   -0.9072 C.ar      1 <0>        -0.1048
     18 C15        -1.3281   -5.8025   -1.5238 C.ar      1 <0>        -0.1132
     19 C16        -0.6049   -4.8915   -0.7591 C.ar      1 <0>         0.0632
     20 N2          0.2180   -3.8346   -1.1211 N.pl3     1 <0>        -0.5424
     21 H2          0.4086   -3.5762   -2.0364 H         1 <0>         0.4251
     22 N3          0.4346   -3.6041    2.4257 N.2       1 <0>        -0.2807
     23 O2         -0.0801   -4.2653    3.3097 O.2       1 <0>         0.0258
     24 H3         -0.9601    1.9001    0.0260 H         1 <0>         0.1313
     25 H4          1.1469    3.1685    0.0078 H         1 <0>         0.1340
     26 H5          3.3046    1.9993   -0.0191 H         1 <0>         0.1285
     27 H6         -0.9243   -0.5592    0.0083 H         1 <0>         0.1229
     28 H7          3.9627   -3.5749   -0.9380 H         1 <0>         0.4047
     29 H8         -1.4750   -6.0251    2.3265 H         1 <0>         0.1455
     30 H9         -2.7428   -7.6202    0.9462 H         1 <0>         0.1335
     31 H10        -2.6482   -7.4764   -1.5072 H         1 <0>         0.1325
     32 H11        -1.2933   -5.7487   -2.6019 H         1 <0>         0.1251
@<TRIPOS>BOND
     1    1    6 ar
     2    1    2 ar
     3    1   24 1
     4    2    3 ar
     5    2   25 1
     6    3    4 ar
     7    3   26 1
     8    4    9 1
     9    4    5 ar
    10    5    6 ar
    11    5    7 1
    12    6   27 1
    13    7    8 2
    14    7   12 1
    15    8    9 1
    16    8   11 1
    17    9   10 1
    18   11   28 1
    19   12   20 1
    20   12   13 2
    21   13   14 1
    22   13   22 1
    23   14   19 ar
    24   14   15 ar
    25   15   16 ar
    26   15   29 1
    27   16   17 ar
    28   16   30 1
    29   17   18 ar
    30   17   31 1
    31   18   19 ar
    32   18   32 1
    33   19   20 1
    34   20   21 1
    35   22   23 2
@<TRIPOS>MOLECULE
ZINC18230030
   32    35     0     0     0
SMALL
USER_CHARGES

@<TRIPOS>ATOM
      1 C1         -0.0166    1.3757    0.0096 C.ar      1 <0>        -0.1357
      2 C2          1.1722    2.0867    0.0021 C.ar      1 <0>        -0.0871
      3 C3          2.3853    1.4289   -0.0135 C.ar      1 <0>        -0.1330
      4 C4          2.4252    0.0389   -0.0214 C.ar      1 <0>         0.1465
      5 C5          1.2200   -0.6774   -0.0133 C.ar      1 <0>        -0.0875
      6 C6          0.0021   -0.0041    0.0020 C.ar      1 <0>        -0.0793
      7 C7          1.5867   -2.1097   -0.0238 C.2       1 <0>        -0.2136
      8 C8          0.7284   -3.2007   -0.0213 C.2       1 <0>         0.3077
      9 C9          1.1246   -4.6257   -0.0260 C.2       1 <0>         0.1435
     10 N1          2.3359   -5.1133   -0.0337 N.2       1 <0>        -0.2047
     11 O1          2.5348   -6.5152   -0.0374 O.3       1 <0>        -0.3879
     12 C10        -0.1511   -5.3804   -0.0197 C.ar      1 <0>        -0.1524
     13 C11        -0.4460   -6.7399   -0.0207 C.ar      1 <0>        -0.0325
     14 C12        -1.7620   -7.1560   -0.0139 C.ar      1 <0>        -0.1476
     15 C13        -2.7850   -6.2226   -0.0067 C.ar      1 <0>        -0.0650
     16 C14        -2.5032   -4.8720   -0.0061 C.ar      1 <0>        -0.1436
     17 C15        -1.1821   -4.4335   -0.0119 C.ar      1 <0>         0.1573
     18 N2         -0.6401   -3.1547   -0.0078 N.pl3     1 <0>        -0.6231
     19 C16         3.0542   -2.1288   -0.0380 C.2       1 <0>         0.5661
     20 O2          3.7569   -3.1240   -0.0505 O.2       1 <0>        -0.4814
     21 N3          3.4872   -0.8566   -0.0360 N.am      1 <0>        -0.6546
     22 H1         -0.9596    1.9020    0.0260 H         1 <0>         0.1299
     23 H2          1.1495    3.1665    0.0081 H         1 <0>         0.1317
     24 H3          3.3053    1.9946   -0.0200 H         1 <0>         0.1287
     25 H4         -0.9244   -0.5591    0.0079 H         1 <0>         0.1145
     26 H5          3.4646   -6.7806   -0.0431 H         1 <0>         0.4151
     27 H6          0.3522   -7.4674   -0.0270 H         1 <0>         0.1376
     28 H7         -1.9942   -8.2107   -0.0147 H         1 <0>         0.1348
     29 H8         -3.8126   -6.5549   -0.0018 H         1 <0>         0.1367
     30 H9         -3.3094   -4.1534   -0.0008 H         1 <0>         0.1326
     31 H10        -1.1620   -2.3371    0.0014 H         1 <0>         0.4278
     32 H11         4.4217   -0.5969   -0.0438 H         1 <0>         0.4186
@<TRIPOS>BOND
     1    1    6 ar
     2    1    2 ar
     3    1   22 1
     4    2    3 ar
     5    2   23 1
     6    3    4 ar
     7    3   24 1
     8    4   21 1
     9    4    5 ar
    10    5    6 ar
    11    5    7 1
    12    6   25 1
    13    7    8 2
    14    7   19 1
    15    8   18 1
    16    8    9 1
    17    9   10 2
    18    9   12 1
    19   10   11 1
    20   11   26 1
    21   12   17 ar
    22   12   13 ar
    23   13   14 ar
    24   13   27 1
    25   14   15 ar
    26   14   28 1
    27   15   16 ar
    28   15   29 1
    29   16   17 ar
    30   16   30 1
    31   17   18 1
    32   18   31 1
    33   19   20 2
    34   19   21 am
    35   21   32 1
@<TRIPOS>MOLECULE
ZINC36176941
   44    47     0     0     0
SMALL
USER_CHARGES

@<TRIPOS>ATOM
      1 C1          1.0151    1.3799    2.9701 C.ar      1 <0>        -0.1293
      2 C2          1.5956    0.2250    3.4614 C.ar      1 <0>        -0.0993
      3 C3          2.5363   -0.4508    2.7091 C.ar      1 <0>        -0.1195
      4 C4          2.8986    0.0304    1.4579 C.ar      1 <0>         0.1516
      5 C5          2.3134    1.1902    0.9671 C.ar      1 <0>        -0.1429
      6 C6          1.3737    1.8616    1.7245 C.ar      1 <0>        -0.0983
      7 N1          3.8517   -0.6517    0.6934 N.am      1 <0>        -0.6761
      8 C7          3.9398   -1.9945    0.7679 C.2       1 <0>         0.7044
      9 O1          3.1317   -2.6212    1.4256 O.2       1 <0>        -0.5477
     10 N2          4.9237   -2.6426    0.1133 N.am      1 <0>        -0.6849
     11 C8          4.9524   -4.0403    0.1011 C.ar      1 <0>         0.1941
     12 C9          3.7623   -4.7586    0.1019 C.ar      1 <0>        -0.1112
     13 C10         3.7874   -6.1364    0.0898 C.ar      1 <0>        -0.0624
     14 C11         5.0093   -6.8105    0.0768 C.ar      1 <0>        -0.1030
     15 C12         6.2024   -6.0867    0.0761 C.ar      1 <0>        -0.1072
     16 C13         6.1710   -4.7089    0.0824 C.ar      1 <0>        -0.1433
     17 C14         5.0397   -8.2906    0.0644 C.ar      1 <0>         0.0934
     18 C15         4.2913   -9.0196    0.9698 C.ar      1 <0>        -0.1465
     19 C16         4.3106  -10.4114    0.9693 C.ar      1 <0>         0.0139
     20 C17         5.0544  -11.1317    0.0933 C.ar      1 <0>        -0.1622
     21 C18         5.8541  -10.4820   -0.8713 C.ar      1 <0>         0.2422
     22 C19         5.8564   -9.0117   -0.9089 C.ar      1 <0>        -0.2390
     23 C20         6.7077   -8.6451   -1.9416 C.2       1 <0>         0.5281
     24 N3          7.1841   -9.7727   -2.4977 N.pl3     1 <0>        -0.4402
     25 N4          6.6651  -10.8887   -1.8313 N.pl3     1 <0>        -0.4224
     26 H1          7.8031   -9.8075   -3.2437 H         1 <0>         0.4687
     27 N5          7.0117   -7.3491   -2.3306 N.pl3     1 <0>        -0.7907
     28 H2          0.2767    1.9043    3.5586 H         1 <0>         0.1268
     29 H3          1.3135   -0.1487    4.4346 H         1 <0>         0.1280
     30 H4          2.9899   -1.3523    3.0937 H         1 <0>         0.1345
     31 H5          2.5930    1.5670   -0.0057 H         1 <0>         0.1260
     32 H6          0.9184    2.7638    1.3435 H         1 <0>         0.1296
     33 H7          4.4489   -0.1581    0.1098 H         1 <0>         0.4103
     34 H8          5.6119   -2.1393   -0.3493 H         1 <0>         0.4133
     35 H9          2.8170   -4.2363    0.1123 H         1 <0>         0.1492
     36 H10         2.8625   -6.6940    0.0908 H         1 <0>         0.1393
     37 H11         7.1495   -6.6057    0.0664 H         1 <0>         0.1322
     38 H12         7.0940   -4.1482    0.0770 H         1 <0>         0.1389
     39 H13         3.6800   -8.4990    1.6920 H         1 <0>         0.1520
     40 H14         3.7097  -10.9386    1.6954 H         1 <0>         0.1562
     41 H15         5.0350  -12.2107    0.1345 H         1 <0>         0.1543
     42 H16         6.6143   -6.5969   -1.8645 H         1 <0>         0.4418
     43 H17         7.6218   -7.1947   -3.0688 H         1 <0>         0.4241
     44 H18         6.8600  -11.8138   -2.0482 H         1 <0>         0.4732
@<TRIPOS>BOND
     1    1    6 ar
     2    1    2 ar
     3    1   28 1
     4    2    3 ar
     5    2   29 1
     6    3    4 ar
     7    3   30 1
     8    4    5 ar
     9    4    7 1
    10    5    6 ar
    11    5   31 1
    12    6   32 1
    13    7    8 am
    14    7   33 1
    15    8    9 2
    16    8   10 am
    17   10   11 1
    18   10   34 1
    19   11   16 ar
    20   11   12 ar
    21   12   13 ar
    22   12   35 1
    23   13   14 ar
    24   13   36 1
    25   14   15 ar
    26   14   17 1
    27   15   16 ar
    28   15   37 1
    29   16   38 1
    30   17   22 ar
    31   17   18 ar
    32   18   19 ar
    33   18   39 1
    34   19   20 ar
    35   19   40 1
    36   20   21 ar
    37   20   41 1
    38   21   22 ar
    39   21   25 2
    40   22   23 2
    41   23   27 1
    42   23   24 1
    43   24   26 1
    44   24   25 1
    45   25   44 1
    46   27   42 1
    47   27   43 1
@<TRIPOS>MOLECULE
ZINC36176941
   43    46     0     0     0
SMALL
USER_CHARGES

@<TRIPOS>ATOM
      1 C1          1.0531    1.4922    2.2958 C.ar      1 <0>        -0.1344
      2 C2          1.5486    0.3342    2.8665 C.ar      1 <0>        -0.0996
      3 C3          2.5591   -0.3685    2.2399 C.ar      1 <0>        -0.1197
      4 C4          3.0771    0.0888    1.0353 C.ar      1 <0>         0.1595
      5 C5          2.5770    1.2518    0.4646 C.ar      1 <0>        -0.1460
      6 C6          1.5668    1.9502    1.0964 C.ar      1 <0>        -0.0998
      7 N1          4.1013   -0.6207    0.3981 N.am      1 <0>        -0.6813
      8 C7          4.1499   -1.9643    0.4923 C.2       1 <0>         0.7034
      9 O1          3.2547   -2.5673    1.0521 O.2       1 <0>        -0.5502
     10 N2          5.1909   -2.6395   -0.0339 N.am      1 <0>        -0.6816
     11 C8          5.1910   -4.0377   -0.0303 C.ar      1 <0>         0.1686
     12 C9          3.9948   -4.7318   -0.1695 C.ar      1 <0>        -0.1157
     13 C10         3.9919   -6.1101   -0.1663 C.ar      1 <0>        -0.0776
     14 C11         5.1911   -6.8085   -0.0237 C.ar      1 <0>        -0.0698
     15 C12         6.3903   -6.1093    0.1153 C.ar      1 <0>        -0.0887
     16 C13         6.3879   -4.7310    0.1066 C.ar      1 <0>        -0.1446
     17 C14         5.1911   -8.2898   -0.0194 C.ar      1 <0>         0.0382
     18 C15         4.6519   -8.9928   -1.0876 C.ar      1 <0>        -0.1554
     19 C16         4.6519  -10.3791   -1.0846 C.ar      1 <0>        -0.0590
     20 C17         5.1840  -11.0823   -0.0266 C.ar      1 <0>        -0.1528
     21 C18         5.7319  -10.4033    1.0597 C.ar      1 <0>         0.1540
     22 C19         5.7435   -8.9968    1.0657 C.ar      1 <0>        -0.1852
     23 C20         6.3820   -8.5953    2.3176 C.2       1 <0>         0.3652
     24 N3          6.7097   -9.6839    2.9627 N.2       1 <0>        -0.3206
     25 N4          6.3202  -10.8096    2.2296 N.pl3     1 <0>        -0.5094
     26 N5          6.6032   -7.2836    2.7473 N.pl3     1 <0>        -0.8360
     27 H1          0.2601    2.0377    2.7857 H         1 <0>         0.1242
     28 H2          1.1453   -0.0208    3.8033 H         1 <0>         0.1263
     29 H3          2.9462   -1.2725    2.6864 H         1 <0>         0.1355
     30 H4          2.9780    1.6101   -0.4720 H         1 <0>         0.1252
     31 H5          1.1776    2.8549    0.6532 H         1 <0>         0.1272
     32 H6          4.7762   -0.1455   -0.1113 H         1 <0>         0.4089
     33 H7          5.9401   -2.1554   -0.4151 H         1 <0>         0.4098
     34 H8          3.0667   -4.1906   -0.2799 H         1 <0>         0.1398
     35 H9          3.0621   -6.6489   -0.2738 H         1 <0>         0.1312
     36 H10         7.3200   -6.6475    0.2263 H         1 <0>         0.1315
     37 H11         7.3164   -4.1892    0.2101 H         1 <0>         0.1306
     38 H12         4.2299   -8.4573   -1.9252 H         1 <0>         0.1294
     39 H13         4.2292  -10.9143   -1.9221 H         1 <0>         0.1327
     40 H14         5.1763  -12.1622   -0.0390 H         1 <0>         0.1280
     41 H15         6.2115   -6.5414    2.2609 H         1 <0>         0.4120
     42 H16         7.1484   -7.1157    3.5318 H         1 <0>         0.4051
     43 H17         6.4550  -11.7311    2.5006 H         1 <0>         0.4411
@<TRIPOS>BOND
     1    1    6 ar
     2    1    2 ar
     3    1   27 1
     4    2    3 ar
     5    2   28 1
     6    3    4 ar
     7    3   29 1
     8    4    5 ar
     9    4    7 1
    10    5    6 ar
    11    5   30 1
    12    6   31 1
    13    7    8 am
    14    7   32 1
    15    8    9 2
    16    8   10 am
    17   10   11 1
    18   10   33 1
    19   11   16 ar
    20   11   12 ar
    21   12   13 ar
    22   12   34 1
    23   13   14 ar
    24   13   35 1
    25   14   15 ar
    26   14   17 1
    27   15   16 ar
    28   15   36 1
    29   16   37 1
    30   17   22 ar
    31   17   18 ar
    32   18   19 ar
    33   18   38 1
    34   19   20 ar
    35   19   39 1
    36   20   21 ar
    37   20   40 1
    38   21   22 ar
    39   21   25 1
    40   22   23 1
    41   23   26 1
    42   23   24 2
    43   24   25 1
    44   25   43 1
    45   26   41 1
    46   26   42 1
@<TRIPOS>MOLECULE
ZINC28604289
   47    50     0     0     0
SMALL
USER_CHARGES
1-[4-(3-amino-2H-indazol-4-yl)phenyl]-3-(m-tolyl)urea
@<TRIPOS>ATOM
      1 C1         -2.1118    0.8723   -0.7793 C.3       1 <0>        -0.1197
      2 C2         -1.1650    1.9221   -1.3014 C.ar      1 <0>        -0.0651
      3 C3         -0.3650    1.6480   -2.3958 C.ar      1 <0>        -0.1317
      4 C4          0.5011    2.6102   -2.8811 C.ar      1 <0>        -0.0975
      5 C5          0.5734    3.8474   -2.2709 C.ar      1 <0>        -0.1271
      6 C6         -0.2247    4.1239   -1.1688 C.ar      1 <0>         0.1607
      7 C7         -1.0934    3.1550   -0.6835 C.ar      1 <0>        -0.1457
      8 N1         -0.1535    5.3761   -0.5481 N.am      1 <0>        -0.6896
      9 C8          1.0253    6.0251   -0.4734 C.2       1 <0>         0.7086
     10 O1          2.0093    5.5630   -1.0178 O.2       1 <0>        -0.5592
     11 N2          1.1133    7.1865    0.2049 N.am      1 <0>        -0.6988
     12 C9          2.3103    7.9086    0.2021 C.ar      1 <0>         0.1943
     13 C10         3.5265    7.2354    0.1959 C.ar      1 <0>        -0.1166
     14 C11         4.7082    7.9446    0.1882 C.ar      1 <0>        -0.1158
     15 C12         4.6830    9.3399    0.1971 C.ar      1 <0>        -0.0966
     16 C13         3.4605   10.0129    0.2088 C.ar      1 <0>        -0.0678
     17 C14         2.2821    9.2984    0.2115 C.ar      1 <0>        -0.1346
     18 C15         5.9506   10.1046    0.1937 C.ar      1 <0>         0.0882
     19 C16         6.1569   11.1251   -0.7160 C.ar      1 <0>        -0.1522
     20 C17         7.3421   11.8549   -0.7275 C.ar      1 <0>         0.0059
     21 C18         8.3602   11.6091    0.1341 C.ar      1 <0>        -0.1641
     22 C19         8.2510   10.5845    1.0987 C.ar      1 <0>         0.2307
     23 C20         7.0124    9.7929    1.1475 C.ar      1 <0>        -0.2470
     24 C21         7.1737    8.8713    2.1723 C.2       1 <0>         0.5174
     25 N3          8.3904    9.0673    2.7097 N.pl3     1 <0>        -0.4500
     26 H1          8.7297    8.4392    3.5466 H         1 <0>         0.5017
     27 N4          9.0405   10.1150    2.0479 N.pl3     1 <0>        -0.4343
     28 N5          6.2465    7.9200    2.5709 N.pl3     1 <0>        -0.8231
     29 H2         -2.0285   -0.0354   -1.3951 H         1 <0>         0.0694
     30 H3         -3.1428    1.2531   -0.8249 H         1 <0>         0.0725
     31 H4         -1.8551    0.6330    0.2632 H         1 <0>         0.0712
     32 H5         -0.4202    0.6817   -2.8750 H         1 <0>         0.1250
     33 H6          1.1216    2.3945   -3.7383 H         1 <0>         0.1265
     34 H7          1.2496    4.5989   -2.6509 H         1 <0>         0.1375
     35 H8         -1.7154    3.3670    0.1736 H         1 <0>         0.1250
     36 H9         -1.0597    5.8307   -0.1212 H         1 <0>         0.4331
     37 H10         0.2432    7.5661    0.7607 H         1 <0>         0.4377
     38 H11         3.5454    6.1556    0.1928 H         1 <0>         0.1522
     39 H12         5.6528    7.4211    0.1795 H         1 <0>         0.1326
     40 H13         3.4379   11.0927    0.2153 H         1 <0>         0.1386
     41 H14         1.3357    9.8187    0.2205 H         1 <0>         0.1391
     42 H15         5.3817   11.3631   -1.4293 H         1 <0>         0.1471
     43 H16         7.4569   12.6460   -1.4537 H         1 <0>         0.1518
     44 H17         9.2613   12.2021    0.0820 H         1 <0>         0.1504
     45 H18         6.4814    7.2367    3.4003 H         1 <0>         0.4449
     46 H19         5.2762    7.8488    2.0577 H         1 <0>         0.4647
     47 H20        10.0357   10.5569    2.2041 H         1 <0>         0.5094
@<TRIPOS>BOND
     1    1    2 1
     2    1   29 1
     3    1   30 1
     4    1   31 1
     5    2    7 ar
     6    2    3 ar
     7    3    4 ar
     8    3   32 1
     9    4    5 ar
    10    4   33 1
    11    5    6 ar
    12    5   34 1
    13    6    7 ar
    14    6    8 1
    15    7   35 1
    16    8    9 am
    17    8   36 1
    18    9   10 2
    19    9   11 am
    20   11   12 1
    21   11   37 1
    22   12   17 ar
    23   12   13 ar
    24   13   14 ar
    25   13   38 1
    26   14   15 ar
    27   14   39 1
    28   15   16 ar
    29   15   18 1
    30   16   17 ar
    31   16   40 1
    32   17   41 1
    33   18   23 ar
    34   18   19 ar
    35   19   20 ar
    36   19   42 1
    37   20   21 ar
    38   20   43 1
    39   21   22 ar
    40   21   44 1
    41   22   27 2
    42   22   23 ar
    43   23   24 2
    44   24   25 1
    45   24   28 1
    46   25   26 1
    47   25   27 1
    48   27   47 1
    49   28   45 1
    50   28   46 1
@<TRIPOS>MOLECULE
ZINC28604289
   46    49     0     0     0
SMALL
USER_CHARGES
3-[4-(3-amino-1H-indazol-4-yl)phenyl]-1-(m-tolyl)urea
@<TRIPOS>ATOM
      1 C1         -2.0594    0.8347   -1.0190 C.3       1 <0>        -0.1178
      2 C2         -1.1470    1.9287   -1.5104 C.ar      1 <0>        -0.0673
      3 C3         -0.4020    1.7422   -2.6606 C.ar      1 <0>        -0.1358
      4 C4          0.4324    2.7454   -3.1177 C.ar      1 <0>        -0.0981
      5 C5          0.5279    3.9360   -2.4238 C.ar      1 <0>        -0.1269
      6 C6         -0.2147    4.1244   -1.2658 C.ar      1 <0>         0.1679
      7 C7         -1.0516    3.1144   -0.8090 C.ar      1 <0>        -0.1481
      8 N1         -0.1199    5.3291   -0.5602 N.am      1 <0>        -0.6945
      9 C8          1.0589    5.9790   -0.4918 C.2       1 <0>         0.7083
     10 O1          2.0172    5.5674   -1.1168 O.2       1 <0>        -0.5619
     11 N2          1.1754    7.0851    0.2694 N.am      1 <0>        -0.6950
     12 C9          2.3660    7.8182    0.2597 C.ar      1 <0>         0.1671
     13 C10         3.5849    7.1602    0.1449 C.ar      1 <0>        -0.1173
     14 C11         4.7598    7.8808    0.1293 C.ar      1 <0>        -0.1054
     15 C12         4.7253    9.2710    0.2404 C.ar      1 <0>        -0.0601
     16 C13         3.5009    9.9284    0.3613 C.ar      1 <0>        -0.0832
     17 C14         2.3287    9.2032    0.3706 C.ar      1 <0>        -0.1386
     18 C15         5.9866   10.0477    0.2297 C.ar      1 <0>         0.0397
     19 C16         6.2952   10.8961    1.2837 C.ar      1 <0>        -0.1702
     20 C17         7.4777   11.6197    1.2767 C.ar      1 <0>        -0.0654
     21 C18         8.3599   11.5193    0.2238 C.ar      1 <0>        -0.1287
     22 C19         8.0742   10.6795   -0.8506 C.ar      1 <0>         0.1317
     23 C20         6.8801    9.9360   -0.8527 C.ar      1 <0>        -0.2296
     24 C21         6.8757    9.1672   -2.0958 C.2       1 <0>         0.3911
     25 N3          7.9754    9.4522   -2.7424 N.pl3     1 <0>        -0.4329
     26 N4          8.7339   10.3732   -2.0128 N.2       1 <0>        -0.3723
     27 N5          5.8755    8.2863   -2.5173 N.pl3     1 <0>        -0.8707
     28 H1         -2.0020   -0.0252   -1.7026 H         1 <0>         0.0676
     29 H2         -3.0937    1.2076   -0.9849 H         1 <0>         0.0708
     30 H3         -1.7485    0.5232   -0.0109 H         1 <0>         0.0705
     31 H4         -0.4754    0.8125   -3.2054 H         1 <0>         0.1226
     32 H5          1.0097    2.5983   -4.0185 H         1 <0>         0.1249
     33 H6          1.1793    4.7196   -2.7817 H         1 <0>         0.1382
     34 H7         -1.6305    3.2579    0.0914 H         1 <0>         0.1241
     35 H8         -1.0074    5.7457   -0.0614 H         1 <0>         0.4307
     36 H9          0.3338    7.4111    0.8983 H         1 <0>         0.4321
     37 H10         3.6112    6.0835    0.0636 H         1 <0>         0.1439
     38 H11         5.7064    7.3693    0.0360 H         1 <0>         0.1292
     39 H12         3.4713   11.0046    0.4471 H         1 <0>         0.1321
     40 H13         1.3805    9.7117    0.4637 H         1 <0>         0.1296
     41 H14         5.6125   10.9903    2.1153 H         1 <0>         0.1226
     42 H15         7.7079   12.2734    2.1050 H         1 <0>         0.1267
     43 H16         9.2753   12.0924    0.2313 H         1 <0>         0.1234
     44 H17         5.9766    7.7578   -3.4767 H         1 <0>         0.4195
     45 H18         4.9873    8.1216   -1.8896 H         1 <0>         0.4396
     46 H19         8.1798    8.9801   -3.7147 H         1 <0>         0.4658
@<TRIPOS>BOND
     1    1    2 1
     2    1   28 1
     3    1   29 1
     4    1   30 1
     5    2    7 ar
     6    2    3 ar
     7    3    4 ar
     8    3   31 1
     9    4    5 ar
    10    4   32 1
    11    5    6 ar
    12    5   33 1
    13    6    7 ar
    14    6    8 1
    15    7   34 1
    16    8    9 am
    17    8   35 1
    18    9   10 2
    19    9   11 am
    20   11   12 1
    21   11   36 1
    22   12   17 ar
    23   12   13 ar
    24   13   14 ar
    25   13   37 1
    26   14   15 ar
    27   14   38 1
    28   15   16 ar
    29   15   18 1
    30   16   17 ar
    31   16   39 1
    32   17   40 1
    33   18   23 ar
    34   18   19 ar
    35   19   20 ar
    36   19   41 1
    37   20   21 ar
    38   20   42 1
    39   21   22 ar
    40   21   43 1
    41   22   23 ar
    42   22   26 2
    43   23   24 2
    44   24   27 1
    45   24   25 1
    46   25   46 1
    47   25   26 1
    48   27   44 1
    49   27   45 1
@<TRIPOS>MOLECULE
ZINC28604308
   48    51     0     0     0
SMALL
USER_CHARGES
N-[4-(3-amino-2H-indazol-4-yl)phenyl]cyclohexanecarboxamide
@<TRIPOS>ATOM
      1 C1          1.1269    2.0888   -0.2056 C.ar      1 <0>         0.0066
      2 C2          2.3780    1.4788   -0.2136 C.ar      1 <0>        -0.1517
      3 C3          2.5125    0.1136   -0.0421 C.ar      1 <0>         0.0885
      4 C4          1.3071   -0.6892    0.1499 C.ar      1 <0>        -0.2475
      5 C5          0.0047   -0.0060    0.1517 C.ar      1 <0>         0.2312
      6 C6         -0.0243    1.3932   -0.0317 C.ar      1 <0>        -0.1655
      7 N1         -0.9133   -0.9368    0.3403 N.pl3     1 <0>        -0.4521
      8 N2         -0.2866   -2.1823    0.4609 N.pl3     1 <0>        -0.4468
      9 H1         -0.8895   -3.0879    0.6237 H         1 <0>         0.5006
     10 C7          1.0452   -2.0376    0.3472 C.2       1 <0>         0.5342
     11 N3          1.9875   -3.0529    0.4154 N.pl3     1 <0>        -0.8239
     12 C8          3.8498   -0.5215   -0.0533 C.ar      1 <0>        -0.0980
     13 C9          4.2200   -1.3899    0.9745 C.ar      1 <0>        -0.1144
     14 C10         5.4633   -1.9841    0.9583 C.ar      1 <0>        -0.1435
     15 C11         6.3525   -1.7106   -0.0746 C.ar      1 <0>         0.1804
     16 C12         5.9889   -0.8412   -1.0966 C.ar      1 <0>        -0.1137
     17 C13         4.7447   -0.2485   -1.0888 C.ar      1 <0>        -0.0658
     18 N4          7.6150   -2.3107   -0.0855 N.am      1 <0>        -0.6921
     19 C14         8.6740   -1.6435   -0.5852 C.2       1 <0>         0.5207
     20 O1          8.5524   -0.4892   -0.9373 O.2       1 <0>        -0.5122
     21 C15        10.0092   -2.3316   -0.7067 C.3       1 <0>        -0.1030
     22 C16        10.4775   -2.7843    0.6778 C.3       1 <0>        -0.1109
     23 C17        11.8331   -3.4829    0.5545 C.3       1 <0>        -0.1198
     24 C18        12.8558   -2.5109   -0.0372 C.3       1 <0>        -0.1259
     25 C19        12.3876   -2.0581   -1.4216 C.3       1 <0>        -0.1220
     26 C20        11.0320   -1.3595   -1.2983 C.3       1 <0>        -0.1021
     27 H2          1.0706    3.1585   -0.3435 H         1 <0>         0.1518
     28 H3          3.2610    2.0838   -0.3568 H         1 <0>         0.1475
     29 H4         -0.9708    1.9133   -0.0380 H         1 <0>         0.1503
     30 H5          1.6654   -4.0924    0.5760 H         1 <0>         0.4454
     31 H6          3.0570   -2.8187    0.3089 H         1 <0>         0.4642
     32 H7          3.5311   -1.5996    1.7794 H         1 <0>         0.1336
     33 H8          5.7487   -2.6597    1.7511 H         1 <0>         0.1386
     34 H9          6.6819   -0.6304   -1.8976 H         1 <0>         0.1454
     35 H10         4.4625    0.4263   -1.8833 H         1 <0>         0.1376
     36 H11         7.7441   -3.3275    0.3138 H         1 <0>         0.4396
     37 H12         9.8966   -3.2039   -1.3673 H         1 <0>         0.1038
     38 H13        10.5748   -1.9086    1.3364 H         1 <0>         0.0710
     39 H14         9.7422   -3.4831    1.1032 H         1 <0>         0.0652
     40 H15        12.1697   -3.8083    1.5499 H         1 <0>         0.0695
     41 H16        11.7358   -4.3586   -0.1041 H         1 <0>         0.0666
     42 H17        12.9532   -1.6353    0.6214 H         1 <0>         0.0644
     43 H18        13.8304   -3.0132   -0.1259 H         1 <0>         0.0673
     44 H19        13.1229   -1.3592   -1.8469 H         1 <0>         0.0700
     45 H20        12.2903   -2.9337   -2.0803 H         1 <0>         0.0644
     46 H21        10.6954   -1.0340   -2.2936 H         1 <0>         0.0710
     47 H22        11.1293   -0.4839   -0.6396 H         1 <0>         0.0721
     48 H23        -1.9772   -0.6601    0.3792 H         1 <0>         0.5093
@<TRIPOS>BOND
     1    1    6 ar
     2    1    2 ar
     3    1   27 1
     4    2    3 ar
     5    2   28 1
     6    3    4 ar
     7    3   12 1
     8    4   10 2
     9    4    5 ar
    10    5    6 ar
    11    5    7 2
    12    6   29 1
    13    7    8 1
    14    7   48 1
    15    8    9 1
    16    8   10 1
    17   10   11 1
    18   11   30 1
    19   11   31 1
    20   12   17 ar
    21   12   13 ar
    22   13   14 ar
    23   13   32 1
    24   14   15 ar
    25   14   33 1
    26   15   16 ar
    27   15   18 1
    28   16   17 ar
    29   16   34 1
    30   17   35 1
    31   18   19 am
    32   18   36 1
    33   19   20 2
    34   19   21 1
    35   21   26 1
    36   21   22 1
    37   21   37 1
    38   22   23 1
    39   22   38 1
    40   22   39 1
    41   23   24 1
    42   23   40 1
    43   23   41 1
    44   24   25 1
    45   24   42 1
    46   24   43 1
    47   25   26 1
    48   25   44 1
    49   25   45 1
    50   26   46 1
    51   26   47 1
@<TRIPOS>MOLECULE
ZINC28604308
   47    50     0     0     0
SMALL
USER_CHARGES
N-[4-(3-amino-1H-indazol-4-yl)phenyl]cyclohexanecarboxamide
@<TRIPOS>ATOM
      1 C1         -5.2575    0.5699   -0.3666 C.ar      1 <0>        -0.0648
      2 C2         -4.3585   -0.4838   -0.4334 C.ar      1 <0>        -0.1683
      3 C3         -3.0157   -0.2780   -0.1517 C.ar      1 <0>         0.0386
      4 C4         -2.5729    1.0109    0.2036 C.ar      1 <0>        -0.2282
      5 C5         -3.4943    2.0712    0.2677 C.ar      1 <0>         0.1313
      6 C6         -4.8371    1.8347   -0.0213 C.ar      1 <0>        -0.1283
      7 N1         -2.7885    3.1884    0.6327 N.2       1 <0>        -0.3713
      8 N2         -1.4432    2.8460    0.8034 N.pl3     1 <0>        -0.4316
      9 C7         -1.2710    1.5742    0.5556 C.2       1 <0>         0.3887
     10 N3         -0.0610    0.8773    0.6211 N.pl3     1 <0>        -0.8725
     11 C8         -2.0561   -1.4043   -0.2233 C.ar      1 <0>        -0.0605
     12 C9         -0.9422   -1.3212   -1.0587 C.ar      1 <0>        -0.1051
     13 C10        -0.0478   -2.3682   -1.1190 C.ar      1 <0>        -0.1443
     14 C11        -0.2611   -3.5108   -0.3567 C.ar      1 <0>         0.1512
     15 C12        -1.3736   -3.5988    0.4720 C.ar      1 <0>        -0.1157
     16 C13        -2.2680   -2.5523    0.5405 C.ar      1 <0>        -0.0828
     17 N4          0.6449   -4.5735   -0.4239 N.am      1 <0>        -0.6879
     18 C14         0.2011   -5.8435   -0.3414 C.2       1 <0>         0.5177
     19 O1         -0.9729   -6.0632   -0.1307 O.2       1 <0>        -0.5186
     20 C15         1.1637   -6.9906   -0.5111 C.3       1 <0>        -0.1025
     21 C16         1.8094   -6.9138   -1.8961 C.3       1 <0>        -0.1105
     22 C17         2.7867   -8.0783   -2.0684 C.3       1 <0>        -0.1190
     23 C18         2.0320   -9.4021   -1.9303 C.3       1 <0>        -0.1247
     24 C19         1.3863   -9.4788   -0.5453 C.3       1 <0>        -0.1210
     25 C20         0.4090   -8.3144   -0.3729 C.3       1 <0>        -0.1015
     26 H1         -6.3001    0.3966   -0.5890 H         1 <0>         0.1272
     27 H2         -4.7055   -1.4697   -0.7058 H         1 <0>         0.1230
     28 H3         -5.5494    2.6451    0.0263 H         1 <0>         0.1238
     29 H4          0.8633    1.4052    0.8984 H         1 <0>         0.4186
     30 H5         -0.0332   -0.1989    0.3953 H         1 <0>         0.4379
     31 H6         -0.7783   -0.4354   -1.6546 H         1 <0>         0.1300
     32 H7          0.8171   -2.3026   -1.7623 H         1 <0>         0.1296
     33 H8         -1.5370   -4.4879    1.0630 H         1 <0>         0.1406
     34 H9         -3.1319   -2.6210    1.1849 H         1 <0>         0.1305
     35 H10         1.7198   -4.3731   -0.5440 H         1 <0>         0.4337
     36 H11         1.9378   -6.9185    0.2671 H         1 <0>         0.1003
     37 H12         1.0286   -6.9731   -2.6685 H         1 <0>         0.0698
     38 H13         2.3520   -5.9621   -1.9954 H         1 <0>         0.0668
     39 H14         3.2511   -8.0231   -3.0640 H         1 <0>         0.0675
     40 H15         3.5676   -8.0191   -1.2959 H         1 <0>         0.0655
     41 H16         1.2511   -9.4613   -2.7027 H         1 <0>         0.0637
     42 H17         2.7345  -10.2394   -2.0542 H         1 <0>         0.0647
     43 H18         0.8438  -10.4306   -0.4459 H         1 <0>         0.0677
     44 H19         2.1672   -9.4195    0.2271 H         1 <0>         0.0634
     45 H20        -0.0552   -8.3696    0.6228 H         1 <0>         0.0706
     46 H21        -0.3719   -8.3737   -1.1453 H         1 <0>         0.0714
     47 H22        -0.5863    3.4700    1.0971 H         1 <0>         0.4655
@<TRIPOS>BOND
     1    1    6 ar
     2    1    2 ar
     3    1   26 1
     4    2    3 ar
     5    2   27 1
     6    3    4 ar
     7    3   11 1
     8    4    5 ar
     9    4    9 2
    10    5    6 ar
    11    5    7 2
    12    6   28 1
    13    7    8 1
    14    8    9 1
    15    8   47 1
    16    9   10 1
    17   10   29 1
    18   10   30 1
    19   11   16 ar
    20   11   12 ar
    21   12   13 ar
    22   12   31 1
    23   13   14 ar
    24   13   32 1
    25   14   15 ar
    26   14   17 1
    27   15   16 ar
    28   15   33 1
    29   16   34 1
    30   17   18 am
    31   17   35 1
    32   18   19 2
    33   18   20 1
    34   20   25 1
    35   20   21 1
    36   20   36 1
    37   21   22 1
    38   21   37 1
    39   21   38 1
    40   22   23 1
    41   22   39 1
    42   22   40 1
    43   23   24 1
    44   23   41 1
    45   23   42 1
    46   24   25 1
    47   24   43 1
    48   24   44 1
    49   25   45 1
    50   25   46 1
@<TRIPOS>MOLECULE
ZINC35324130
   30    32     0     0     0
SMALL
USER_CHARGES

@<TRIPOS>ATOM
      1 C1         -0.0163    1.3520    0.0095 C.ar      1 <0>         0.0151
      2 C2          1.1459    2.1180    0.0025 C.ar      1 <0>        -0.1556
      3 C3          2.3956    1.5269   -0.0131 C.ar      1 <0>         0.1072
      4 C4          2.4792    0.0683   -0.0217 C.ar      1 <0>        -0.2421
      5 C5          1.2276   -0.7040   -0.0134 C.ar      1 <0>         0.2419
      6 C6          0.0021   -0.0041    0.0020 C.ar      1 <0>        -0.1677
      7 N1          1.5678   -1.9803   -0.0241 N.pl3     1 <0>        -0.4241
      8 H1          3.4600   -2.9168   -0.0485 H         1 <0>         0.4680
      9 N2          2.9633   -2.0837   -0.0388 N.pl3     1 <0>        -0.4419
     10 C7          3.5133   -0.8569   -0.0374 C.2       1 <0>         0.5285
     11 N3          4.8697   -0.5681   -0.0502 N.pl3     1 <0>        -0.7905
     12 C8          3.6231    2.3544   -0.0213 C.ar      1 <0>        -0.1526
     13 C9          4.6485    2.0930    0.8886 C.ar      1 <0>        -0.0767
     14 C10         5.7902    2.8646    0.8784 C.ar      1 <0>        -0.1967
     15 C11         5.9210    3.9030   -0.0371 C.ar      1 <0>         0.2431
     16 C12         4.9008    4.1656   -0.9449 C.ar      1 <0>        -0.1906
     17 C13         3.7594    3.3936   -0.9429 C.ar      1 <0>        -0.0330
     18 N4          7.0776    4.6832   -0.0446 N.pl3     1 <0>        -0.8644
     19 H2         -0.9705    1.8576    0.0259 H         1 <0>         0.1542
     20 H3          1.0699    3.1953    0.0090 H         1 <0>         0.1498
     21 H4         -0.9282   -0.5526    0.0083 H         1 <0>         0.1527
     22 H5          5.1692    0.3545   -0.0486 H         1 <0>         0.4427
     23 H6          5.5190   -1.2887   -0.0607 H         1 <0>         0.4234
     24 H7          4.5471    1.2871    1.6003 H         1 <0>         0.1259
     25 H8          6.5840    2.6627    1.5824 H         1 <0>         0.1321
     26 H9          5.0048    4.9730   -1.6546 H         1 <0>         0.1334
     27 H10         2.9692    3.5953   -1.6508 H         1 <0>         0.1340
     28 H11         7.7896    4.5010    0.5885 H         1 <0>         0.4052
     29 H12         7.1698    5.4078   -0.6828 H         1 <0>         0.4064
     30 H13         0.9488   -2.7270   -0.0215 H         1 <0>         0.4725
@<TRIPOS>BOND
     1    1    6 ar
     2    1    2 ar
     3    1   19 1
     4    2    3 ar
     5    2   20 1
     6    3    4 ar
     7    3   12 1
     8    4    5 ar
     9    4   10 2
    10    5    6 ar
    11    5    7 2
    12    6   21 1
    13    7    9 1
    14    7   30 1
    15    8    9 1
    16    9   10 1
    17   10   11 1
    18   11   22 1
    19   11   23 1
    20   12   17 ar
    21   12   13 ar
    22   13   14 ar
    23   13   24 1
    24   14   15 ar
    25   14   25 1
    26   15   16 ar
    27   15   18 1
    28   16   17 ar
    29   16   26 1
    30   17   27 1
    31   18   28 1
    32   18   29 1
@<TRIPOS>MOLECULE
ZINC35324130
   29    31     0     0     0
SMALL
USER_CHARGES

@<TRIPOS>ATOM
      1 C1         -0.0132    1.3559   -0.2859 C.ar      1 <0>        -0.0580
      2 C2          1.1678    2.0821   -0.3182 C.ar      1 <0>        -0.1615
      3 C3          2.3876    1.4437   -0.1464 C.ar      1 <0>         0.0498
      4 C4          2.4164    0.0510    0.0616 C.ar      1 <0>        -0.1883
      5 C5          1.2120   -0.6741    0.0927 C.ar      1 <0>         0.1540
      6 C6          0.0016   -0.0059   -0.0834 C.ar      1 <0>        -0.1578
      7 N1          1.5447   -1.9866    0.3076 N.pl3     1 <0>        -0.5105
      8 N2          2.9351   -2.0967    0.4117 N.2       1 <0>        -0.3234
      9 C7          3.4879   -0.9203    0.2728 C.2       1 <0>         0.3660
     10 N3          4.8570   -0.6418    0.3172 N.pl3     1 <0>        -0.8360
     11 C8          3.6486    2.2200   -0.1820 C.ar      1 <0>        -0.1189
     12 C9          4.6513    1.8828   -1.0915 C.ar      1 <0>        -0.0581
     13 C10         5.8237    2.6066   -1.1226 C.ar      1 <0>        -0.1992
     14 C11         6.0076    3.6722   -0.2485 C.ar      1 <0>         0.2230
     15 C12         5.0099    4.0103    0.6589 C.ar      1 <0>        -0.1971
     16 C13         3.8333    3.2932    0.6901 C.ar      1 <0>        -0.0483
     17 N4          7.1958    4.4032   -0.2816 N.pl3     1 <0>        -0.8757
     18 H1         -0.9564    1.8654   -0.4169 H         1 <0>         0.1311
     19 H2          1.1379    3.1497   -0.4782 H         1 <0>         0.1278
     20 H3         -0.9267   -0.5575   -0.0610 H         1 <0>         0.1266
     21 H4          5.1648    0.2781    0.3231 H         1 <0>         0.4126
     22 H5          5.4992   -1.3683    0.3421 H         1 <0>         0.4043
     23 H6          4.5091    1.0550   -1.7704 H         1 <0>         0.1248
     24 H7          6.6004    2.3458   -1.8262 H         1 <0>         0.1239
     25 H8          5.1553    4.8382    1.3371 H         1 <0>         0.1235
     26 H9          3.0566    3.5592    1.3918 H         1 <0>         0.1257
     27 H10         7.8926    4.1678   -0.9141 H         1 <0>         0.3995
     28 H11         7.3250    5.1467    0.3278 H         1 <0>         0.3996
     29 H12         0.9159   -2.7219    0.3765 H         1 <0>         0.4405
@<TRIPOS>BOND
     1    1    6 ar
     2    1    2 ar
     3    1   18 1
     4    2    3 ar
     5    2   19 1
     6    3    4 ar
     7    3   11 1
     8    4    5 ar
     9    4    9 1
    10    5    6 ar
    11    5    7 1
    12    6   20 1
    13    7    8 1
    14    7   29 1
    15    8    9 2
    16    9   10 1
    17   10   21 1
    18   10   22 1
    19   11   16 ar
    20   11   12 ar
    21   12   13 ar
    22   12   23 1
    23   13   14 ar
    24   13   24 1
    25   14   15 ar
    26   14   17 1
    27   15   16 ar
    28   15   25 1
    29   16   26 1
    30   17   27 1
    31   17   28 1
@<TRIPOS>MOLECULE
ZINC35324132
   42    45     0     0     0
SMALL
USER_CHARGES

@<TRIPOS>ATOM
      1 C1         -0.0939    1.2542   -0.5545 C.ar      1 <0>        -0.0830
      2 C2          1.0044    1.8273   -1.1708 C.ar      1 <0>        -0.1242
      3 C3          2.2112    1.1593   -1.1968 C.ar      1 <0>        -0.0533
      4 C4          2.3228   -0.0972   -0.5991 C.ar      1 <0>        -0.1476
      5 C5          1.2109   -0.6695    0.0213 C.ar      1 <0>        -0.0857
      6 C6          0.0099    0.0090    0.0397 C.ar      1 <0>        -0.1257
      7 C7          3.6125   -0.8189   -0.6235 C.2       1 <0>         0.5660
      8 O1          4.5790   -0.3183   -1.1649 O.2       1 <0>        -0.5084
      9 N1          3.7170   -2.0320   -0.0456 N.am      1 <0>        -0.6748
     10 C8          4.9069   -2.7562   -0.1519 C.ar      1 <0>         0.1741
     11 C9          6.1273   -2.0900   -0.1490 C.ar      1 <0>        -0.1117
     12 C10         7.3026   -2.8018   -0.2532 C.ar      1 <0>        -0.0647
     13 C11         7.2672   -4.1927   -0.3617 C.ar      1 <0>        -0.1013
     14 C12         6.0408   -4.8588   -0.3644 C.ar      1 <0>        -0.1094
     15 C13         4.8688   -4.1422   -0.2545 C.ar      1 <0>        -0.1411
     16 C14         8.5281   -4.9602   -0.4744 C.ar      1 <0>         0.0930
     17 C15         9.4935   -4.6003   -1.3962 C.ar      1 <0>        -0.1464
     18 C16        10.6833   -5.3132   -1.5130 C.ar      1 <0>         0.0138
     19 C17        10.9682   -6.3911   -0.7409 C.ar      1 <0>        -0.1620
     20 C18        10.0483   -6.8396    0.2311 C.ar      1 <0>         0.2423
     21 C19         8.7812   -6.1102    0.3904 C.ar      1 <0>        -0.2390
     22 C20         8.0819   -6.7513    1.4031 C.2       1 <0>         0.5280
     23 N2          8.8384   -7.7746    1.8370 N.pl3     1 <0>        -0.4401
     24 N3         10.0332   -7.8254    1.1101 N.pl3     1 <0>        -0.4223
     25 H1          8.5894   -8.3910    2.5434 H         1 <0>         0.4688
     26 N4          6.8287   -6.3995    1.8819 N.pl3     1 <0>        -0.7906
     27 H2         -1.0352    1.7832   -0.5334 H         1 <0>         0.1331
     28 H3          0.9167    2.7995   -1.6328 H         1 <0>         0.1357
     29 H4          3.0675    1.6074   -1.6787 H         1 <0>         0.1389
     30 H5          1.2906   -1.6415    0.4852 H         1 <0>         0.1241
     31 H6         -0.8512   -0.4327    0.5190 H         1 <0>         0.1333
     32 H7          2.9660   -2.4022    0.4442 H         1 <0>         0.4152
     33 H8          6.1541   -1.0136   -0.0653 H         1 <0>         0.1523
     34 H9          8.2503   -2.2838   -0.2513 H         1 <0>         0.1395
     35 H10         6.0104   -5.9351   -0.4483 H         1 <0>         0.1322
     36 H11         3.9196   -4.6574   -0.2524 H         1 <0>         0.1389
     37 H12         9.3211   -3.7494   -2.0386 H         1 <0>         0.1519
     38 H13        11.4081   -4.9956   -2.2480 H         1 <0>         0.1563
     39 H14        11.9061   -6.9106   -0.8710 H         1 <0>         0.1544
     40 H15         6.3599   -5.6400    1.5018 H         1 <0>         0.4419
     41 H16         6.4209   -6.9129    2.5967 H         1 <0>         0.4242
     42 H17        10.7422   -8.4749    1.2386 H         1 <0>         0.4732
@<TRIPOS>BOND
     1    1    6 ar
     2    1    2 ar
     3    1   27 1
     4    2    3 ar
     5    2   28 1
     6    3    4 ar
     7    3   29 1
     8    4    5 ar
     9    4    7 1
    10    5    6 ar
    11    5   30 1
    12    6   31 1
    13    7    8 2
    14    7    9 am
    15    9   10 1
    16    9   32 1
    17   10   15 ar
    18   10   11 ar
    19   11   12 ar
    20   11   33 1
    21   12   13 ar
    22   12   34 1
    23   13   14 ar
    24   13   16 1
    25   14   15 ar
    26   14   35 1
    27   15   36 1
    28   16   21 ar
    29   16   17 ar
    30   17   18 ar
    31   17   37 1
    32   18   19 ar
    33   18   38 1
    34   19   20 ar
    35   19   39 1
    36   20   21 ar
    37   20   24 2
    38   21   22 2
    39   22   26 1
    40   22   23 1
    41   23   25 1
    42   23   24 1
    43   24   42 1
    44   26   40 1
    45   26   41 1
@<TRIPOS>MOLECULE
ZINC35324132
   41    44     0     0     0
SMALL
USER_CHARGES

@<TRIPOS>ATOM
      1 C1         -0.7424    0.1408    0.1829 C.ar      1 <0>        -0.0890
      2 C2          0.3670    0.8984   -0.1484 C.ar      1 <0>        -0.1262
      3 C3          1.6171    0.3161   -0.1871 C.ar      1 <0>        -0.0562
      4 C4          1.7612   -1.0404    0.1089 C.ar      1 <0>        -0.1402
      5 C5          0.6377   -1.7989    0.4423 C.ar      1 <0>        -0.0859
      6 C6         -0.6066   -1.2042    0.4773 C.ar      1 <0>        -0.1265
      7 C7          3.0974   -1.6711    0.0689 C.2       1 <0>         0.5611
      8 O1          4.0739   -1.0081   -0.2223 O.2       1 <0>        -0.5131
      9 N1          3.2331   -2.9811    0.3552 N.am      1 <0>        -0.6713
     10 C8          4.4752   -3.6036    0.2065 C.ar      1 <0>         0.1480
     11 C9          5.6383   -2.9207    0.5430 C.ar      1 <0>        -0.1130
     12 C10         6.8648   -3.5324    0.3973 C.ar      1 <0>        -0.0808
     13 C11         6.9382   -4.8384   -0.0880 C.ar      1 <0>        -0.0667
     14 C12         5.7693   -5.5216   -0.4245 C.ar      1 <0>        -0.0911
     15 C13         4.5452   -4.9069   -0.2723 C.ar      1 <0>        -0.1409
     16 C14         8.2549   -5.4982   -0.2460 C.ar      1 <0>         0.0375
     17 C15         9.1128   -5.6173    0.8384 C.ar      1 <0>        -0.1550
     18 C16        10.3451   -6.2351    0.6914 C.ar      1 <0>        -0.0590
     19 C17        10.7403   -6.7398   -0.5277 C.ar      1 <0>        -0.1525
     20 C18         9.9001   -6.6342   -1.6341 C.ar      1 <0>         0.1539
     21 C19         8.6447   -6.0151   -1.4964 C.ar      1 <0>        -0.1850
     22 C20         8.0117   -6.0696   -2.8127 C.2       1 <0>         0.3651
     23 N2          8.8378   -6.6745   -3.6253 N.2       1 <0>        -0.3202
     24 N3         10.0072   -7.0265   -2.9435 N.pl3     1 <0>        -0.5093
     25 N4          6.7504   -5.5657   -3.1431 N.pl3     1 <0>        -0.8362
     26 H1         -1.7182    0.6026    0.2162 H         1 <0>         0.1300
     27 H2          0.2541    1.9477   -0.3775 H         1 <0>         0.1328
     28 H3          2.4822    0.9084   -0.4462 H         1 <0>         0.1380
     29 H4          0.7424   -2.8489    0.6724 H         1 <0>         0.1258
     30 H5         -1.4765   -1.7898    0.7355 H         1 <0>         0.1315
     31 H6          2.4686   -3.4917    0.6644 H         1 <0>         0.4113
     32 H7          5.5809   -1.9097    0.9186 H         1 <0>         0.1408
     33 H8          7.7682   -3.0012    0.6582 H         1 <0>         0.1315
     34 H9          5.8235   -6.5325   -0.8007 H         1 <0>         0.1315
     35 H10         3.6398   -5.4367   -0.5291 H         1 <0>         0.1308
     36 H11         8.8191   -5.2265    1.8014 H         1 <0>         0.1295
     37 H12        11.0035   -6.3215    1.5431 H         1 <0>         0.1328
     38 H13        11.7036   -7.2180   -0.6262 H         1 <0>         0.1281
     39 H14         6.2675   -5.0131   -2.5087 H         1 <0>         0.4119
     40 H15         6.3581   -5.7685   -4.0067 H         1 <0>         0.4052
     41 H16        10.7683   -7.4851   -3.3324 H         1 <0>         0.4412
@<TRIPOS>BOND
     1    1    6 ar
     2    1    2 ar
     3    1   26 1
     4    2    3 ar
     5    2   27 1
     6    3    4 ar
     7    3   28 1
     8    4    5 ar
     9    4    7 1
    10    5    6 ar
    11    5   29 1
    12    6   30 1
    13    7    8 2
    14    7    9 am
    15    9   10 1
    16    9   31 1
    17   10   15 ar
    18   10   11 ar
    19   11   12 ar
    20   11   32 1
    21   12   13 ar
    22   12   33 1
    23   13   14 ar
    24   13   16 1
    25   14   15 ar
    26   14   34 1
    27   15   35 1
    28   16   21 ar
    29   16   17 ar
    30   17   18 ar
    31   17   36 1
    32   18   19 ar
    33   18   37 1
    34   19   20 ar
    35   19   38 1
    36   20   21 ar
    37   20   24 1
    38   21   22 1
    39   22   25 1
    40   22   23 2
    41   23   24 1
    42   24   41 1
    43   25   39 1
    44   25   40 1
