@<TRIPOS>MOLECULE
ZINC53070632
   49    52     0     0     0
SMALL
USER_CHARGES

@<TRIPOS>ATOM
      1 C1          0.1172    1.6508   -1.0405 C.ar      1 <0>        -0.0950
      2 C2          1.3282    2.3156   -1.0379 C.ar      1 <0>        -0.0996
      3 C3          2.1971    2.1693    0.0353 C.ar      1 <0>         0.1482
      4 C4          1.8460    1.3545    1.1036 C.ar      1 <0>        -0.1090
      5 C5          0.6332    0.6919    1.0955 C.ar      1 <0>        -0.0255
      6 C6         -0.2305    0.8401    0.0240 C.ar      1 <0>        -0.1078
      7 Cl1         0.1928   -0.3275    2.4299 Cl        1 <0>        -0.0626
      8 N1          3.4245    2.8413    0.0400 N.am      1 <0>        -0.5626
      9 C7          4.6501    2.0559   -0.0734 C.3       1 <0>         0.1194
     10 C8          5.8122    2.9560   -0.4973 C.3       1 <0>         0.0339
     11 N2          5.8446    4.1333    0.3856 N.3       1 <0>        -0.5307
     12 C9          4.6821    4.9932    0.1262 C.3       1 <0>         0.0436
     13 C10         3.4224    4.1745    0.1428 C.2       1 <0>         0.5253
     14 O1          2.3593    4.7467    0.2590 O.2       1 <0>        -0.5257
     15 C11         7.0989    4.8802    0.2214 C.3       1 <0>         0.1243
     16 C12         7.2798    5.8203    1.3851 C.2       1 <0>        -0.0173
     17 C13         6.9108    7.1145    1.4365 C.2       1 <0>        -0.0153
     18 N3          7.2472    7.5943    2.6430 N.2       1 <0>        -0.4893
     19 C14         7.8107    6.6467    3.3412 C.2       1 <0>         0.1903
     20 N4          7.8453    5.5214    2.5953 N.pl3     1 <0>        -0.4424
     21 C15         8.3895    4.2240    3.0038 C.3       1 <0>         0.1420
     22 C16         9.8051    4.0932    2.5039 C.ar      1 <0>        -0.0864
     23 C17        10.0571    3.4323    1.3147 C.ar      1 <0>        -0.1030
     24 C18        11.3505    3.3088    0.8512 C.ar      1 <0>        -0.0693
     25 C19        12.4065    3.8530    1.5849 C.ar      1 <0>        -0.0149
     26 C20        12.1450    4.5191    2.7840 C.ar      1 <0>        -0.0677
     27 C21        10.8463    4.6394    3.2333 C.ar      1 <0>        -0.0977
     28 C22        13.7518    3.7283    1.1101 C.1       1 <0>         0.2456
     29 N5         14.8189    3.6293    0.7334 N.1       1 <0>        -0.4036
     30 H1         -0.5606    1.7680   -1.8730 H         1 <0>         0.1387
     31 H2          1.5990    2.9483   -1.8702 H         1 <0>         0.1283
     32 H3          2.5199    1.2386    1.9395 H         1 <0>         0.1355
     33 H4         -1.1779    0.3218    0.0197 H         1 <0>         0.1379
     34 H5          4.8783    1.6006    0.8903 H         1 <0>         0.0788
     35 H6          4.5098    1.2720   -0.8176 H         1 <0>         0.0863
     36 H7          6.7501    2.4076   -0.4097 H         1 <0>         0.1017
     37 H8          5.6687    3.2767   -1.5291 H         1 <0>         0.0541
     38 H9          4.6249    5.7654    0.8933 H         1 <0>         0.1213
     39 H10         4.7908    5.4635   -0.8511 H         1 <0>         0.0794
     40 H11         7.9352    4.1821    0.1848 H         1 <0>         0.0900
     41 H12         7.0624    5.4523   -0.7057 H         1 <0>         0.0692
     42 H13         6.4285    7.6688    0.6450 H         1 <0>         0.1658
     43 H14         8.1838    6.7449    4.3499 H         1 <0>         0.2043
     44 H15         8.3802    4.1523    4.0914 H         1 <0>         0.1084
     45 H16         7.7798    3.4252    2.5817 H         1 <0>         0.1081
     46 H17         9.2394    3.0119    0.7482 H         1 <0>         0.1339
     47 H18        11.5459    2.7921   -0.0768 H         1 <0>         0.1372
     48 H19        12.9572    4.9423    3.3564 H         1 <0>         0.1376
     49 H20        10.6421    5.1578    4.1585 H         1 <0>         0.1362
@<TRIPOS>BOND
     1    1    6 ar
     2    1    2 ar
     3    1   30 1
     4    2    3 ar
     5    2   31 1
     6    3    4 ar
     7    3    8 1
     8    4    5 ar
     9    4   32 1
    10    5    6 ar
    11    5    7 1
    12    6   33 1
    13    8   13 am
    14    8    9 1
    15    9   10 1
    16    9   34 1
    17    9   35 1
    18   10   11 1
    19   10   36 1
    20   10   37 1
    21   11   12 1
    22   11   15 1
    23   12   13 1
    24   12   38 1
    25   12   39 1
    26   13   14 2
    27   15   16 1
    28   15   40 1
    29   15   41 1
    30   16   20 1
    31   16   17 2
    32   17   18 1
    33   17   42 1
    34   18   19 2
    35   19   20 1
    36   19   43 1
    37   20   21 1
    38   21   22 1
    39   21   44 1
    40   21   45 1
    41   22   27 ar
    42   22   23 ar
    43   23   24 ar
    44   23   46 1
    45   24   25 ar
    46   24   47 1
    47   25   26 ar
    48   25   28 1
    49   26   27 ar
    50   26   48 1
    51   27   49 1
    52   28   29 3
@<TRIPOS>MOLECULE
ZINC53070632
   50    53     0     0     0
SMALL
USER_CHARGES

@<TRIPOS>ATOM
      1 C1          0.1172    1.6508   -1.0405 C.ar      1 <0>        -0.0928
      2 C2          1.3282    2.3156   -1.0379 C.ar      1 <0>        -0.0984
      3 C3          2.1971    2.1693    0.0353 C.ar      1 <0>         0.1382
      4 C4          1.8460    1.3545    1.1036 C.ar      1 <0>        -0.1082
      5 C5          0.6332    0.6919    1.0955 C.ar      1 <0>        -0.0258
      6 C6         -0.2305    0.8401    0.0240 C.ar      1 <0>        -0.1022
      7 Cl1         0.1928   -0.3275    2.4299 Cl        1 <0>        -0.0567
      8 N1          3.4245    2.8413    0.0400 N.am      1 <0>        -0.5579
      9 C7          4.6501    2.0559   -0.0734 C.3       1 <0>         0.1161
     10 C8          5.8122    2.9560   -0.4973 C.3       1 <0>         0.0350
     11 N2          5.8446    4.1333    0.3856 N.3       1 <0>        -0.5333
     12 C9          4.6821    4.9932    0.1262 C.3       1 <0>         0.0384
     13 C10         3.4224    4.1745    0.1428 C.2       1 <0>         0.5210
     14 O1          2.3593    4.7467    0.2590 O.2       1 <0>        -0.5193
     15 C11         7.0989    4.8802    0.2214 C.3       1 <0>         0.1034
     16 C12         7.2798    5.8203    1.3851 C.2       1 <0>         0.0651
     17 C13         6.9108    7.1145    1.4365 C.2       1 <0>         0.0071
     18 N3          7.2472    7.5943    2.6430 N.pl3     1 <0>        -0.4724
     19 C14         7.8107    6.6467    3.3412 C.cat     1 <0>         0.2935
     20 N4          7.8453    5.5214    2.5953 N.pl3     1 <0>        -0.3930
     21 C15         8.3895    4.2240    3.0038 C.3       1 <0>         0.1359
     22 C16         9.8051    4.0932    2.5039 C.ar      1 <0>        -0.1190
     23 C17        10.0571    3.4323    1.3147 C.ar      1 <0>        -0.0946
     24 C18        11.3505    3.3088    0.8512 C.ar      1 <0>        -0.0677
     25 C19        12.4065    3.8530    1.5849 C.ar      1 <0>         0.0123
     26 C20        12.1450    4.5191    2.7840 C.ar      1 <0>        -0.0678
     27 C21        10.8463    4.6394    3.2333 C.ar      1 <0>        -0.0946
     28 C22        13.7518    3.7283    1.1101 C.1       1 <0>         0.2287
     29 N5         14.8189    3.6293    0.7334 N.1       1 <0>        -0.3775
     30 H1         -0.5606    1.7680   -1.8730 H         1 <0>         0.1413
     31 H2          1.5990    2.9483   -1.8702 H         1 <0>         0.1283
     32 H3          2.5199    1.2386    1.9395 H         1 <0>         0.1346
     33 H4         -1.1779    0.3218    0.0197 H         1 <0>         0.1409
     34 H5          4.8783    1.6006    0.8903 H         1 <0>         0.0822
     35 H6          4.5098    1.2720   -0.8176 H         1 <0>         0.0937
     36 H7          6.7501    2.4076   -0.4097 H         1 <0>         0.1082
     37 H8          5.6687    3.2767   -1.5291 H         1 <0>         0.0637
     38 H9          4.6249    5.7654    0.8933 H         1 <0>         0.1133
     39 H10         4.7908    5.4635   -0.8511 H         1 <0>         0.0867
     40 H11         7.9352    4.1821    0.1848 H         1 <0>         0.1131
     41 H12         7.0624    5.4523   -0.7057 H         1 <0>         0.0940
     42 H13         6.4285    7.6688    0.6450 H         1 <0>         0.2215
     43 H14         8.1838    6.7449    4.3499 H         1 <0>         0.2612
     44 H15         8.3802    4.1523    4.0914 H         1 <0>         0.1344
     45 H16         7.7798    3.4252    2.5817 H         1 <0>         0.1370
     46 H17         9.2394    3.0119    0.7482 H         1 <0>         0.1383
     47 H18        11.5459    2.7921   -0.0768 H         1 <0>         0.1450
     48 H19        12.9572    4.9423    3.3564 H         1 <0>         0.1443
     49 H20        10.6421    5.1578    4.1585 H         1 <0>         0.1384
     50 H21         7.0959    8.5025    2.9483 H         1 <0>         0.4664
@<TRIPOS>BOND
     1    1    6 ar
     2    1    2 ar
     3    1   30 1
     4    2    3 ar
     5    2   31 1
     6    3    4 ar
     7    3    8 1
     8    4    5 ar
     9    4   32 1
    10    5    6 ar
    11    5    7 1
    12    6   33 1
    13    8   13 am
    14    8    9 1
    15    9   10 1
    16    9   34 1
    17    9   35 1
    18   10   11 1
    19   10   36 1
    20   10   37 1
    21   11   12 1
    22   11   15 1
    23   12   13 1
    24   12   38 1
    25   12   39 1
    26   13   14 2
    27   15   16 1
    28   15   40 1
    29   15   41 1
    30   16   20 1
    31   16   17 2
    32   17   18 1
    33   17   42 1
    34   18   19 2
    35   18   50 1
    36   19   20 1
    37   19   43 1
    38   20   21 1
    39   21   22 1
    40   21   44 1
    41   21   45 1
    42   22   27 ar
    43   22   23 ar
    44   23   24 ar
    45   23   46 1
    46   24   25 ar
    47   24   47 1
    48   25   26 ar
    49   25   28 1
    50   26   27 ar
    51   26   48 1
    52   27   49 1
    53   28   29 3
@<TRIPOS>MOLECULE
ZINC28004647
   73    74     0     0     0
SMALL
USER_CHARGES
(2S)-2-[[(2S)-2-[[(2S)-2-[[(2R)-2-amino-3-sulfanyl-propanoyl]amino]-3-methyl-butanoyl]amino]-3-(2-naphthyl)propanoyl]amino]-4-methylsulfanyl-butanoic acid
@<TRIPOS>ATOM
      1 C1          4.8238   -2.7545    4.1075 C.3       1 <0>        -0.1612
      2 C2          4.8284   -4.2684    3.8863 C.3       1 <0>        -0.0945
      3 C3          6.0979   -4.8687    4.4936 C.3       1 <0>        -0.1362
      4 C4          3.6003   -4.8857    4.5585 C.3       1 <0>         0.1367
      5 H1          3.5936   -4.6761    5.6383 H         1 <0>         0.1135
      6 C5          2.3498   -4.3340    3.9237 C.2       1 <0>         0.5135
      7 O1          1.8332   -4.9176    2.9945 O.2       1 <0>        -0.5224
      8 N1          1.8054   -3.1922    4.3888 N.am      1 <0>        -0.7105
      9 C6          0.6497   -2.6018    3.7090 C.3       1 <0>         0.1443
     10 H2          0.7741   -2.7776    2.6303 H         1 <0>         0.1102
     11 C7         -0.6343   -3.2526    4.2275 C.3       1 <0>        -0.0937
     12 C8         -0.6485   -4.7102    3.8450 C.ar      1 <0>        -0.0501
     13 C9         -0.0944   -5.6523    4.7098 C.ar      1 <0>        -0.0847
     14 C10        -0.0906   -6.9762    4.3944 C.ar      1 <0>        -0.1201
     15 C11        -0.6534   -7.4032    3.1796 C.ar      1 <0>        -0.0465
     16 C12        -0.6686   -8.7617    2.8197 C.ar      1 <0>        -0.1181
     17 C13        -1.2228   -9.1383    1.6351 C.ar      1 <0>        -0.1145
     18 C14        -1.7772   -8.1962    0.7705 C.ar      1 <0>        -0.1229
     19 C15        -1.7809   -6.8723    1.0859 C.ar      1 <0>        -0.0983
     20 C16        -1.2173   -6.4453    2.3004 C.ar      1 <0>        -0.0379
     21 C17        -1.2072   -5.0874    2.6628 C.ar      1 <0>        -0.0868
     22 C18         0.6082   -1.1206    3.9834 C.2       1 <0>         0.5139
     23 O2          1.4602   -0.6085    4.6783 O.2       1 <0>        -0.5425
     24 N2         -0.3756   -0.3649    3.4566 N.am      1 <0>        -0.7005
     25 C19        -0.4159    1.0751    3.7233 C.3       1 <0>         0.1124
     26 H3          0.6234    1.4298    3.7876 H         1 <0>         0.0911
     27 C20        -1.1687    1.7820    2.5944 C.3       1 <0>        -0.0933
     28 C21        -0.3857    1.6340    1.2883 C.3       1 <0>        -0.0773
     29 S1         -1.2784    2.4721   -0.0501 S.3       1 <0>        -0.2667
     30 C22        -0.2327    2.2068   -1.5084 C.3       1 <0>        -0.1243
     31 C23        -1.1220    1.3241    5.0311 C.2       1 <0>         0.4601
     32 O3         -1.5480    0.3943    5.6743 O.co2     1 <0>        -0.6280
     33 O4         -1.2779    2.5790    5.4813 O.co2     1 <0>        -0.7573
     34 N3          3.6318   -6.3408    4.3912 N.am      1 <0>        -0.6918
     35 C24         4.3286   -7.1036    5.2567 C.2       1 <0>         0.5067
     36 O5          4.9295   -6.5855    6.1739 O.2       1 <0>        -0.5180
     37 C25         4.3610   -8.6004    5.0847 C.3       1 <0>         0.0521
     38 H4          4.4815   -8.8493    4.0200 H         1 <0>         0.1723
     39 C26         3.0733   -9.2063    5.6466 C.3       1 <0>        -0.1082
     40 S2          3.1123  -11.0081    5.4395 S.3       1 <0>        -0.1414
     41 N4          5.5165   -9.1513    5.8053 N.4       1 <0>        -0.6717
     42 H5          3.9111   -2.3229    3.6709 H         1 <0>         0.0705
     43 H6          5.7067   -2.3107    3.6243 H         1 <0>         0.0670
     44 H7          4.8503   -2.5415    5.1864 H         1 <0>         0.0651
     45 H8          4.8019   -4.4814    2.8074 H         1 <0>         0.0811
     46 H9          6.1012   -5.9571    4.3345 H         1 <0>         0.0386
     47 H10         6.1244   -4.6557    5.5725 H         1 <0>         0.0699
     48 H11         6.9808   -4.4248    4.0104 H         1 <0>         0.0586
     49 H12         2.2287   -2.7036    5.2788 H         1 <0>         0.4365
     50 H13        -0.6756   -3.1605    5.3229 H         1 <0>         0.0894
     51 H14        -1.5057   -2.7486    3.7841 H         1 <0>         0.0946
     52 H15         0.3388   -5.3268    5.6440 H         1 <0>         0.1098
     53 H16         0.3424   -7.6949    5.0744 H         1 <0>         0.1047
     54 H17        -0.2430   -9.5029    3.4798 H         1 <0>         0.1124
     55 H18        -1.2334  -10.1829    1.3611 H         1 <0>         0.1181
     56 H19        -2.2106   -8.5216   -0.1637 H         1 <0>         0.1213
     57 H20        -2.2141   -6.1535    0.4061 H         1 <0>         0.1264
     58 H21        -1.6372   -4.3468    2.0048 H         1 <0>         0.1247
     59 H22        -1.1483   -0.8294    2.8264 H         1 <0>         0.4105
     60 H23        -2.1645    1.3295    2.4782 H         1 <0>         0.0742
     61 H24        -1.2771    2.8492    2.8380 H         1 <0>         0.1000
     62 H25         0.6101    2.0866    1.4045 H         1 <0>         0.0796
     63 H26        -0.2772    0.5668    1.0447 H         1 <0>         0.0762
     64 H27        -0.6964    2.6848   -2.3839 H         1 <0>         0.1004
     65 H28        -0.1275    1.1275   -1.6927 H         1 <0>         0.0727
     66 H29         0.7599    2.6473   -1.3329 H         1 <0>         0.0745
     67 H30         3.0868   -6.8107    3.5592 H         1 <0>         0.4445
     68 H31         2.9892   -8.9618    6.7158 H         1 <0>         0.1184
     69 H32         2.2080   -8.7938    5.1070 H         1 <0>         0.1345
     70 H33         2.2665  -11.6200    5.7862 H         1 <0>         0.0231
     71 H34         5.5401  -10.2439    5.6797 H         1 <0>         0.4671
     72 H35         5.4324   -8.9068    6.8745 H         1 <0>         0.4638
     73 H36         6.4423   -8.7157    5.4013 H         1 <0>         0.4644
@<TRIPOS>BOND
     1    1    2 1
     2    1   42 1
     3    1   43 1
     4    1   44 1
     5    2    3 1
     6    2    4 1
     7    2   45 1
     8    3   46 1
     9    3   47 1
    10    3   48 1
    11    4    5 1
    12    4    6 1
    13    4   34 1
    14    6    7 2
    15    6    8 am
    16    8    9 1
    17    8   49 1
    18    9   10 1
    19    9   11 1
    20    9   22 1
    21   11   12 1
    22   11   50 1
    23   11   51 1
    24   12   21 ar
    25   12   13 ar
    26   13   14 ar
    27   13   52 1
    28   14   15 ar
    29   14   53 1
    30   15   20 ar
    31   15   16 ar
    32   16   17 ar
    33   16   54 1
    34   17   18 ar
    35   17   55 1
    36   18   19 ar
    37   18   56 1
    38   19   20 ar
    39   19   57 1
    40   20   21 ar
    41   21   58 1
    42   22   23 2
    43   22   24 am
    44   24   25 1
    45   24   59 1
    46   25   26 1
    47   25   27 1
    48   25   31 1
    49   27   28 1
    50   27   60 1
    51   27   61 1
    52   28   29 1
    53   28   62 1
    54   28   63 1
    55   29   30 1
    56   30   64 1
    57   30   65 1
    58   30   66 1
    59   31   32 2
    60   31   33 1
    61   34   35 am
    62   34   67 1
    63   35   36 2
    64   35   37 1
    65   37   38 1
    66   37   39 1
    67   37   41 1
    68   39   40 1
    69   39   68 1
    70   39   69 1
    71   40   70 1
    72   41   71 1
    73   41   72 1
    74   41   73 1
@<TRIPOS>MOLECULE
ZINC28004647
   72    73     0     0     0
SMALL
USER_CHARGES
(2S)-2-[[(2S)-2-[[(2S)-2-[[(2R)-2-amino-3-sulfanyl-propanoyl]amino]-3-methyl-butanoyl]amino]-3-(2-naphthyl)propanoyl]amino]-4-methylsulfanyl-butanoic acid
@<TRIPOS>ATOM
      1 C1          4.8238   -2.7545    4.1075 C.3       1 <0>        -0.1570
      2 C2          4.8284   -4.2684    3.8863 C.3       1 <0>        -0.0932
      3 C3          6.0979   -4.8687    4.4936 C.3       1 <0>        -0.1357
      4 C4          3.6003   -4.8857    4.5585 C.3       1 <0>         0.1407
      5 H1          3.5936   -4.6761    5.6383 H         1 <0>         0.1044
      6 C5          2.3498   -4.3340    3.9237 C.2       1 <0>         0.5173
      7 O1          1.8332   -4.9176    2.9945 O.2       1 <0>        -0.5245
      8 N1          1.8054   -3.1922    4.3888 N.am      1 <0>        -0.7171
      9 C6          0.6497   -2.6018    3.7090 C.3       1 <0>         0.1446
     10 H2          0.7741   -2.7776    2.6303 H         1 <0>         0.1081
     11 C7         -0.6343   -3.2526    4.2275 C.3       1 <0>        -0.0917
     12 C8         -0.6485   -4.7102    3.8450 C.ar      1 <0>        -0.0463
     13 C9         -0.0944   -5.6523    4.7098 C.ar      1 <0>        -0.0865
     14 C10        -0.0906   -6.9762    4.3944 C.ar      1 <0>        -0.1096
     15 C11        -0.6534   -7.4032    3.1796 C.ar      1 <0>        -0.0460
     16 C12        -0.6686   -8.7617    2.8197 C.ar      1 <0>        -0.1087
     17 C13        -1.2228   -9.1383    1.6351 C.ar      1 <0>        -0.1218
     18 C14        -1.7772   -8.1962    0.7705 C.ar      1 <0>        -0.1237
     19 C15        -1.7809   -6.8723    1.0859 C.ar      1 <0>        -0.1033
     20 C16        -1.2173   -6.4453    2.3004 C.ar      1 <0>        -0.0375
     21 C17        -1.2072   -5.0874    2.6628 C.ar      1 <0>        -0.0950
     22 C18         0.6082   -1.1206    3.9834 C.2       1 <0>         0.5156
     23 O2          1.4602   -0.6085    4.6783 O.2       1 <0>        -0.5409
     24 N2         -0.3756   -0.3649    3.4566 N.am      1 <0>        -0.7041
     25 C19        -0.4159    1.0751    3.7233 C.3       1 <0>         0.1124
     26 H3          0.6234    1.4298    3.7876 H         1 <0>         0.0904
     27 C20        -1.1687    1.7820    2.5944 C.3       1 <0>        -0.0918
     28 C21        -0.3857    1.6340    1.2883 C.3       1 <0>        -0.0765
     29 S1         -1.2784    2.4721   -0.0501 S.3       1 <0>        -0.2707
     30 C22        -0.2327    2.2068   -1.5084 C.3       1 <0>        -0.1238
     31 C23        -1.1220    1.3241    5.0311 C.2       1 <0>         0.4603
     32 O3         -1.5480    0.3943    5.6743 O.co2     1 <0>        -0.6255
     33 O4         -1.2779    2.5790    5.4813 O.co2     1 <0>        -0.7622
     34 N3          3.6318   -6.3408    4.3912 N.am      1 <0>        -0.7235
     35 C24         4.3286   -7.1036    5.2567 C.2       1 <0>         0.5227
     36 O5          4.9295   -6.5855    6.1739 O.2       1 <0>        -0.5086
     37 C25         4.3610   -8.6004    5.0847 C.3       1 <0>         0.0928
     38 H4          4.4815   -8.8493    4.0200 H         1 <0>         0.0715
     39 C26         3.0733   -9.2063    5.6466 C.3       1 <0>        -0.0495
     40 S2          3.1123  -11.0081    5.4395 S.3       1 <0>        -0.1618
     41 N4          5.5165   -9.1513    5.8053 N.3       1 <0>        -0.8066
     42 H5          3.9111   -2.3229    3.6709 H         1 <0>         0.0657
     43 H6          5.7067   -2.3107    3.6243 H         1 <0>         0.0603
     44 H7          4.8503   -2.5415    5.1864 H         1 <0>         0.0623
     45 H8          4.8019   -4.4814    2.8074 H         1 <0>         0.0745
     46 H9          6.1012   -5.9571    4.3345 H         1 <0>         0.0503
     47 H10         6.1244   -4.6557    5.5725 H         1 <0>         0.0679
     48 H11         6.9808   -4.4248    4.0104 H         1 <0>         0.0491
     49 H12         2.2287   -2.7036    5.2788 H         1 <0>         0.4346
     50 H13        -0.6756   -3.1605    5.3229 H         1 <0>         0.0878
     51 H14        -1.5057   -2.7486    3.7841 H         1 <0>         0.0906
     52 H15         0.3388   -5.3268    5.6440 H         1 <0>         0.1112
     53 H16         0.3424   -7.6949    5.0744 H         1 <0>         0.1108
     54 H17        -0.2430   -9.5029    3.4798 H         1 <0>         0.1160
     55 H18        -1.2334  -10.1829    1.3611 H         1 <0>         0.1166
     56 H19        -2.2106   -8.5216   -0.1637 H         1 <0>         0.1177
     57 H20        -2.2141   -6.1535    0.4061 H         1 <0>         0.1230
     58 H21        -1.6372   -4.3468    2.0048 H         1 <0>         0.1215
     59 H22        -1.1483   -0.8294    2.8264 H         1 <0>         0.4096
     60 H23        -2.1645    1.3295    2.4782 H         1 <0>         0.0734
     61 H24        -1.2771    2.8492    2.8380 H         1 <0>         0.0980
     62 H25         0.6101    2.0866    1.4045 H         1 <0>         0.0799
     63 H26        -0.2772    0.5668    1.0447 H         1 <0>         0.0782
     64 H27        -0.6964    2.6848   -2.3839 H         1 <0>         0.0990
     65 H28        -0.1275    1.1275   -1.6927 H         1 <0>         0.0735
     66 H29         0.7599    2.6473   -1.3329 H         1 <0>         0.0742
     67 H30         3.0868   -6.8107    3.5592 H         1 <0>         0.4304
     68 H31         2.9892   -8.9618    6.7158 H         1 <0>         0.0970
     69 H32         2.2080   -8.7938    5.1070 H         1 <0>         0.0908
     70 H33         2.2665  -11.6200    5.7862 H         1 <0>        -0.0058
     71 H34         5.5401  -10.2439    5.6797 H         1 <0>         0.3567
     72 H35         6.4423   -8.7157    5.4013 H         1 <0>         0.3474
@<TRIPOS>BOND
     1    1    2 1
     2    1   42 1
     3    1   43 1
     4    1   44 1
     5    2    3 1
     6    2    4 1
     7    2   45 1
     8    3   46 1
     9    3   47 1
    10    3   48 1
    11    4    5 1
    12    4    6 1
    13    4   34 1
    14    6    7 2
    15    6    8 am
    16    8    9 1
    17    8   49 1
    18    9   10 1
    19    9   11 1
    20    9   22 1
    21   11   12 1
    22   11   50 1
    23   11   51 1
    24   12   21 ar
    25   12   13 ar
    26   13   14 ar
    27   13   52 1
    28   14   15 ar
    29   14   53 1
    30   15   20 ar
    31   15   16 ar
    32   16   17 ar
    33   16   54 1
    34   17   18 ar
    35   17   55 1
    36   18   19 ar
    37   18   56 1
    38   19   20 ar
    39   19   57 1
    40   20   21 ar
    41   21   58 1
    42   22   23 2
    43   22   24 am
    44   24   25 1
    45   24   59 1
    46   25   26 1
    47   25   27 1
    48   25   31 1
    49   27   28 1
    50   27   60 1
    51   27   61 1
    52   28   29 1
    53   28   62 1
    54   28   63 1
    55   29   30 1
    56   30   64 1
    57   30   65 1
    58   30   66 1
    59   31   32 2
    60   31   33 1
    61   34   35 am
    62   34   67 1
    63   35   36 2
    64   35   37 1
    65   37   38 1
    66   37   39 1
    67   37   41 1
    68   39   40 1
    69   39   68 1
    70   39   69 1
    71   40   70 1
    72   41   71 1
    73   41   72 1
