@<TRIPOS>MOLECULE
ZINC12494625
   49    48     0     0     0
SMALL
USER_CHARGES

@<TRIPOS>ATOM
      1 C1         -0.0930    1.3680   -0.0355 C.3       1 <0>        -0.1175
      2 C2          0.1712   -0.1134    0.0459 C.2       1 <0>        -0.1451
      3 C3          0.3911   -0.6767    1.2079 C.2       1 <0>        -0.1572
      4 C4          0.2651    0.1321    2.4732 C.3       1 <0>        -0.0924
      5 C5         -0.7088   -0.5622    3.4274 C.3       1 <0>        -0.0696
      6 C6         -0.8349    0.2466    4.6927 C.2       1 <0>        -0.1402
      7 C7         -1.8114    1.1098    4.8238 C.2       1 <0>        -0.1483
      8 C8         -1.9933    1.8502    6.1237 C.3       1 <0>        -0.1000
      9 C9         -2.0250    3.3557    5.8530 C.3       1 <0>        -0.0601
     10 C10        -2.2069    4.0961    7.1530 C.2       1 <0>        -0.1694
     11 C11        -1.1623    4.5509    7.7995 C.2       1 <0>        -0.1155
     12 C12        -1.3442    5.2912    9.0994 C.3       1 <0>         0.1485
     13 O1         -0.3953    4.8147   10.0558 O.3       1 <0>        -0.7651
     14 P1         -0.3030    5.3851   11.5585 P.3       1 <0>         2.2799
     15 O2         -0.1236    6.9191   11.5170 O.2       1 <0>        -1.1176
     16 O3         -1.6010    5.0388   12.3215 O.3       1 <0>        -1.1292
     17 O4          0.9552    4.7178   12.3095 O.3       1 <0>        -1.0909
     18 P2          1.7637    5.0619   13.6585 P.3       1 <0>         2.2111
     19 O5          1.9355    6.6141   13.7829 O.2       1 <0>        -1.1924
     20 O6          0.9678    4.5238   14.8960 O.3       1 <0>        -1.2037
     21 O7          3.1746    4.3826   13.6095 O.3       1 <0>        -1.2038
     22 C13        -3.5906    4.3132    7.7092 C.3       1 <0>        -0.1166
     23 C14         0.1625    0.0623    5.8073 C.3       1 <0>        -0.1247
     24 C15         0.1823   -0.9468   -1.2097 C.3       1 <0>        -0.1137
     25 H1          0.7227    1.9094    0.4438 H         1 <0>         0.0667
     26 H2         -0.1631    1.6677   -1.0811 H         1 <0>         0.0557
     27 H3         -1.0297    1.5984    0.4721 H         1 <0>         0.0669
     28 H4          0.6628   -1.7207    1.2592 H         1 <0>         0.1055
     29 H5          1.2420    0.2166    2.9493 H         1 <0>         0.0727
     30 H6         -0.1092    1.1271    2.2327 H         1 <0>         0.0726
     31 H7         -1.6857   -0.6468    2.9514 H         1 <0>         0.0624
     32 H8         -0.3345   -1.5573    3.6680 H         1 <0>         0.0653
     33 H9         -2.4862    1.2910    4.0002 H         1 <0>         0.1024
     34 H10        -2.9311    1.5446    6.5877 H         1 <0>         0.0719
     35 H11        -1.1646    1.6187    6.7927 H         1 <0>         0.0807
     36 H12        -1.0872    3.6613    5.3891 H         1 <0>         0.0624
     37 H13        -2.8538    3.5873    5.1840 H         1 <0>         0.0589
     38 H14        -0.1707    4.3953    7.4009 H         1 <0>         0.1104
     39 H15        -1.1900    6.3576    8.9349 H         1 <0>         0.0573
     40 H16        -2.3537    5.1238    9.4747 H         1 <0>         0.0556
     41 H17        -3.8565    3.4786    8.3579 H         1 <0>         0.0651
     42 H18        -3.6103    5.2399    8.2828 H         1 <0>         0.0706
     43 H19        -4.3057    4.3782    6.8892 H         1 <0>         0.0507
     44 H20         0.9474    0.8136    5.7205 H         1 <0>         0.0690
     45 H21        -0.3413    0.1724    6.7676 H         1 <0>         0.0748
     46 H22         0.6028   -0.9326    5.7401 H         1 <0>         0.0551
     47 H23        -0.0186   -0.3094   -2.0707 H         1 <0>         0.0581
     48 H24         1.1592   -1.4165   -1.3253 H         1 <0>         0.0610
     49 H25        -0.5855   -1.7175   -1.1410 H         1 <0>         0.0618
@<TRIPOS>BOND
     1    1    2 1
     2    1   25 1
     3    1   26 1
     4    1   27 1
     5    2    3 2
     6    2   24 1
     7    3    4 1
     8    3   28 1
     9    4    5 1
    10    4   29 1
    11    4   30 1
    12    5    6 1
    13    5   31 1
    14    5   32 1
    15    6    7 2
    16    6   23 1
    17    7    8 1
    18    7   33 1
    19    8    9 1
    20    8   34 1
    21    8   35 1
    22    9   10 1
    23    9   36 1
    24    9   37 1
    25   10   11 2
    26   10   22 1
    27   11   12 1
    28   11   38 1
    29   12   13 1
    30   12   39 1
    31   12   40 1
    32   13   14 1
    33   14   15 2
    34   14   16 1
    35   14   17 1
    36   17   18 1
    37   18   19 2
    38   18   20 1
    39   18   21 1
    40   22   41 1
    41   22   42 1
    42   22   43 1
    43   23   44 1
    44   23   45 1
    45   23   46 1
    46   24   47 1
    47   24   48 1
    48   24   49 1
@<TRIPOS>MOLECULE
ZINC12494625
   50    49     0     0     0
SMALL
USER_CHARGES

@<TRIPOS>ATOM
      1 C1         -0.0930    1.3680   -0.0355 C.3       1 <0>        -0.1181
      2 C2          0.1712   -0.1134    0.0459 C.2       1 <0>        -0.1412
      3 C3          0.3911   -0.6767    1.2079 C.2       1 <0>        -0.1610
      4 C4          0.2651    0.1321    2.4732 C.3       1 <0>        -0.0908
      5 C5         -0.7088   -0.5622    3.4274 C.3       1 <0>        -0.0715
      6 C6         -0.8349    0.2466    4.6927 C.2       1 <0>        -0.1376
      7 C7         -1.8114    1.1098    4.8238 C.2       1 <0>        -0.1510
      8 C8         -1.9933    1.8502    6.1237 C.3       1 <0>        -0.0974
      9 C9         -2.0250    3.3557    5.8531 C.3       1 <0>        -0.0648
     10 C10        -2.2069    4.0961    7.1530 C.2       1 <0>        -0.1538
     11 C11        -1.1623    4.5509    7.7995 C.2       1 <0>        -0.1296
     12 C12        -1.3442    5.2912    9.0994 C.3       1 <0>         0.1517
     13 O1         -0.3953    4.8147   10.0558 O.3       1 <0>        -0.7690
     14 P1         -0.3029    5.3851   11.5586 P.3       1 <0>         2.2964
     15 O2         -0.1236    6.9191   11.5171 O.2       1 <0>        -1.1093
     16 O3         -1.6010    5.0388   12.3215 O.3       1 <0>        -1.1070
     17 O4          0.9552    4.7177   12.3095 O.3       1 <0>        -1.0895
     18 P2          1.7637    5.0619   13.6585 P.3       1 <0>         2.2771
     19 O5          0.7629    5.3758   14.7929 O.2       1 <0>        -1.1133
     20 O6          2.6709    3.7994   14.0774 O.3       1 <0>        -0.9094
     21 O7          2.6699    6.2896   13.4169 O.3       1 <0>        -1.1136
     22 C13        -3.5906    4.3132    7.7092 C.3       1 <0>        -0.1208
     23 C14         0.1625    0.0622    5.8073 C.3       1 <0>        -0.1235
     24 C15         0.1823   -0.9468   -1.2097 C.3       1 <0>        -0.1151
     25 H1          0.7227    1.9094    0.4438 H         1 <0>         0.0661
     26 H2         -0.1631    1.6678   -1.0811 H         1 <0>         0.0570
     27 H3         -1.0296    1.5985    0.4721 H         1 <0>         0.0670
     28 H4          0.6628   -1.7207    1.2592 H         1 <0>         0.1061
     29 H5          1.2420    0.2167    2.9492 H         1 <0>         0.0710
     30 H6         -0.1093    1.1271    2.2327 H         1 <0>         0.0723
     31 H7         -1.6857   -0.6468    2.9514 H         1 <0>         0.0640
     32 H8         -0.3345   -1.5573    3.6680 H         1 <0>         0.0660
     33 H9         -2.4862    1.2910    4.0002 H         1 <0>         0.1043
     34 H10        -2.9311    1.5446    6.5877 H         1 <0>         0.0721
     35 H11        -1.1646    1.6186    6.7927 H         1 <0>         0.0784
     36 H12        -1.0872    3.6613    5.3891 H         1 <0>         0.0641
     37 H13        -2.8538    3.5873    5.1840 H         1 <0>         0.0627
     38 H14        -0.1707    4.3952    7.4009 H         1 <0>         0.1113
     39 H15        -1.1899    6.3576    8.9349 H         1 <0>         0.0615
     40 H16        -2.3537    5.1238    9.4747 H         1 <0>         0.0605
     41 H17        -3.8565    3.4786    8.3579 H         1 <0>         0.0669
     42 H18        -3.6103    5.2399    8.2828 H         1 <0>         0.0706
     43 H19        -4.3057    4.3782    6.8892 H         1 <0>         0.0554
     44 H20         0.9474    0.8136    5.7205 H         1 <0>         0.0676
     45 H21        -0.3413    0.1724    6.7676 H         1 <0>         0.0724
     46 H22         0.6028   -0.9326    5.7401 H         1 <0>         0.0561
     47 H23         1.1922   -0.9740   -1.6188 H         1 <0>         0.0628
     48 H24        -0.1424   -1.9607   -0.9756 H         1 <0>         0.0598
     49 H25        -0.4950   -0.5086   -1.9427 H         1 <0>         0.0610
     50 H26         3.1870    3.9362   14.8836 H         1 <0>         0.4049
@<TRIPOS>BOND
     1    1    2 1
     2    1   25 1
     3    1   26 1
     4    1   27 1
     5    2    3 2
     6    2   24 1
     7    3    4 1
     8    3   28 1
     9    4    5 1
    10    4   29 1
    11    4   30 1
    12    5    6 1
    13    5   31 1
    14    5   32 1
    15    6    7 2
    16    6   23 1
    17    7    8 1
    18    7   33 1
    19    8    9 1
    20    8   34 1
    21    8   35 1
    22    9   10 1
    23    9   36 1
    24    9   37 1
    25   10   11 2
    26   10   22 1
    27   11   12 1
    28   11   38 1
    29   12   13 1
    30   12   39 1
    31   12   40 1
    32   13   14 1
    33   14   15 2
    34   14   16 1
    35   14   17 1
    36   17   18 1
    37   18   19 2
    38   18   20 1
    39   18   21 1
    40   20   50 1
    41   22   41 1
    42   22   42 1
    43   22   43 1
    44   23   44 1
    45   23   45 1
    46   23   46 1
    47   24   47 1
    48   24   48 1
    49   24   49 1
