@<TRIPOS>MOLECULE
ZINC13470225
   22    21     0     0     0
SMALL
USER_CHARGES

@<TRIPOS>ATOM
      1 C1          1.0700    2.4799    0.2958 C.3       1 <0>        -0.0609
      2 C2          0.4048    2.7521    1.6465 C.3       1 <0>        -0.1787
      3 C3         -0.1719    4.1444    1.6510 C.2       1 <0>         0.4941
      4 O1         -0.0612    4.8532    0.6652 O.co2     1 <0>        -0.7030
      5 O2         -0.7492    4.5619    2.6404 O.co2     1 <0>        -0.7303
      6 C4          1.6517    1.0648    0.2897 C.3       1 <0>        -0.1298
      7 H1          0.8723    0.3505    0.5550 H         1 <0>         0.0609
      8 C5          2.7912    0.9775    1.3070 C.3       1 <0>        -0.6932
      9 P1          3.1859   -0.7730    1.6285 P.3       1 <0>         2.2432
     10 O3          1.9061   -1.5164    2.0718 O.2       1 <0>        -1.1063
     11 O4          3.7380   -1.4216    0.3396 O.3       1 <0>        -1.0847
     12 O5          4.2927   -0.8682    2.7938 O.3       1 <0>        -0.9068
     13 C6          2.1798    0.7447   -1.0849 C.2       1 <0>         0.5210
     14 O6          3.1479    1.3441   -1.5208 O.co2     1 <0>        -0.7189
     15 O7          1.6390   -0.1136   -1.7611 O.co2     1 <0>        -0.7063
     16 H2          0.3296    2.5718   -0.4988 H         1 <0>         0.0414
     17 H3          1.8698    3.2023    0.1325 H         1 <0>         0.0450
     18 H4         -0.3929    2.0279    1.8112 H         1 <0>         0.0521
     19 H5          1.1459    2.6633    2.4409 H         1 <0>         0.0499
     20 H6          3.6722    1.4816    0.9098 H         1 <0>         0.0666
     21 H7          2.4860    1.4578    2.2366 H         1 <0>         0.0493
     22 H8          4.5512   -1.7727    3.0177 H         1 <0>         0.3956
@<TRIPOS>BOND
     1    1    2 1
     2    1    6 1
     3    1   16 1
     4    1   17 1
     5    2    3 1
     6    2   18 1
     7    2   19 1
     8    3    4 2
     9    3    5 1
    10    6    7 1
    11    6    8 1
    12    6   13 1
    13    8    9 1
    14    8   20 1
    15    8   21 1
    16    9   10 2
    17    9   11 1
    18    9   12 1
    19   12   22 1
    20   13   14 2
    21   13   15 1
@<TRIPOS>MOLECULE
ZINC13519041
   25    24     0     0     0
SMALL
USER_CHARGES
(2R)-2-(3-sulfanylpropyl)pentanedioic acid
@<TRIPOS>ATOM
      1 C1         -0.7387    2.3032    1.2708 C.3       1 <0>        -0.1090
      2 C2         -0.7594    3.8330    1.2792 C.3       1 <0>        -0.0824
      3 C3         -1.4755    4.3264    2.5380 C.3       1 <0>        -0.1351
      4 H1         -1.0017    3.8933    3.4189 H         1 <0>         0.0626
      5 C4         -1.3877    5.8522    2.6098 C.3       1 <0>        -0.0651
      6 C5         -1.9936    6.3364    3.9286 C.3       1 <0>        -0.1662
      7 C6         -1.9070    7.8393    3.9994 C.2       1 <0>         0.4621
      8 O1         -1.4115    8.4594    3.0884 O.co2     1 <0>        -0.6595
      9 C7         -2.9226    3.9083    2.4892 C.2       1 <0>         0.4703
     10 O2         -3.3384    3.2802    1.5446 O.co2     1 <0>        -0.6502
     11 C8         -0.0225    1.8097    0.0120 C.3       1 <0>        -0.0496
     12 S1          0.0021   -0.0041    0.0020 S.3       1 <0>        -0.2636
     13 H2         -1.7613    1.9259    1.2785 H         1 <0>         0.1044
     14 H3         -0.2115    1.9421    2.1539 H         1 <0>         0.0578
     15 H4          0.2632    4.2103    1.2715 H         1 <0>         0.0432
     16 H5         -1.2866    4.1941    0.3961 H         1 <0>         0.0607
     17 H6         -0.3431    6.1589    2.5556 H         1 <0>         0.0406
     18 H7         -1.9379    6.2875    1.7757 H         1 <0>         0.0477
     19 H8         -3.0381    6.0297    3.9829 H         1 <0>         0.1125
     20 H9         -1.4433    5.9012    4.7628 H         1 <0>         0.0477
     21 H10         1.0001    2.1870    0.0043 H         1 <0>         0.0737
     22 H11        -0.5497    2.1708   -0.8711 H         1 <0>         0.0807
     23 H12         0.6481   -0.3145   -1.1361 H         1 <0>         0.0693
     24 O3         -2.3803    8.4890    5.0744 O.co2     1 <0>        -0.7951
     25 O4         -3.7495    4.2338    3.4952 O.co2     1 <0>        -0.7576
@<TRIPOS>BOND
     1    1    2 1
     2    1   11 1
     3    1   13 1
     4    1   14 1
     5    2    3 1
     6    2   15 1
     7    2   16 1
     8    3    4 1
     9    3    5 1
    10    3    9 1
    11    5    6 1
    12    5   17 1
    13    5   18 1
    14    6    7 1
    15    6   19 1
    16    6   20 1
    17    7    8 2
    18    7   24 1
    19    9   10 2
    20    9   25 1
    21   11   12 1
    22   11   21 1
    23   11   22 1
    24   12   23 1
@<TRIPOS>MOLECULE
ZINC28469972
   22    21     0     0     0
SMALL
USER_CHARGES

@<TRIPOS>ATOM
      1 C1         -0.0187    1.5258    0.0104 C.3       1 <0>        -0.0601
      2 C2          0.0021   -0.0041    0.0020 C.3       1 <0>        -0.1748
      3 C3         -1.4117   -0.5257    0.0127 C.2       1 <0>         0.4971
      4 O1         -2.3491    0.2539    0.0259 O.co2     1 <0>        -0.7103
      5 O2         -1.6182   -1.7273    0.0082 O.co2     1 <0>        -0.7289
      6 C4          1.4167    2.0553   -0.0004 C.3       1 <0>        -0.1318
      7 H1          1.9535    1.6326   -0.8497 H         1 <0>         0.0561
      8 C5          1.3967    3.5807   -0.1178 C.3       1 <0>        -0.6913
      9 P1          3.0576    4.1769   -0.5753 P.3       1 <0>         2.2389
     10 O3          4.0924    3.6510    0.4443 O.2       1 <0>        -1.0743
     11 O4          3.4184    3.6630   -1.9870 O.3       1 <0>        -1.1088
     12 O5          3.0700    5.7868   -0.5708 O.3       1 <0>        -0.9072
     13 C6          2.1081    1.6590    1.2786 C.2       1 <0>         0.5258
     14 O6          3.1106    0.9661    1.2403 O.co2     1 <0>        -0.6914
     15 O7          1.6649    2.0311    2.3517 O.co2     1 <0>        -0.7287
     16 H2         -0.5459    1.8868   -0.8726 H         1 <0>         0.0283
     17 H3         -0.5289    1.8773    0.9072 H         1 <0>         0.0483
     18 H4          0.5123   -0.3556   -0.8948 H         1 <0>         0.0485
     19 H5          0.5293   -0.3651    0.8851 H         1 <0>         0.0614
     20 H6          0.6805    3.8768   -0.8843 H         1 <0>         0.0430
     21 H7          1.1055    4.0149    0.8387 H         1 <0>         0.0642
     22 H8          3.9243    6.1742   -0.8057 H         1 <0>         0.3960
@<TRIPOS>BOND
     1    1    2 1
     2    1    6 1
     3    1   16 1
     4    1   17 1
     5    2    3 1
     6    2   18 1
     7    2   19 1
     8    3    4 2
     9    3    5 1
    10    6    7 1
    11    6    8 1
    12    6   13 1
    13    8    9 1
    14    8   20 1
    15    8   21 1
    16    9   10 2
    17    9   11 1
    18    9   12 1
    19   12   22 1
    20   13   14 2
    21   13   15 1
@<TRIPOS>MOLECULE
ZINC13686592
   32    32     0     0     0
SMALL
USER_CHARGES
4-[(2S)-2-carboxy-5-sulfanyl-pentyl]benzoic acid
@<TRIPOS>ATOM
      1 C1         -0.1395    0.1023    5.6519 C.ar      1 <0>        -0.0485
      2 C2          0.5939   -0.2721    6.7586 C.ar      1 <0>        -0.0856
      3 C3          1.6461    0.5328    7.1998 C.ar      1 <0>        -0.1272
      4 C4          1.9518    1.7095    6.5133 C.ar      1 <0>        -0.1064
      5 C5          1.2136    2.0693    5.4050 C.ar      1 <0>        -0.1424
      6 C6          0.1722    1.2671    4.9732 C.ar      1 <0>        -0.0741
      7 C7         -0.6301    1.6669    3.7618 C.3       1 <0>        -0.0488
      8 C8          0.0111    1.0724    2.5063 C.3       1 <0>        -0.1297
      9 H1          1.0569    1.3753    2.4543 H         1 <0>         0.0681
     10 C9         -0.7288    1.5792    1.2668 C.3       1 <0>        -0.0821
     11 C10        -0.0127    1.0858    0.0080 C.3       1 <0>        -0.1099
     12 C11        -0.7527    1.5927   -1.2315 C.3       1 <0>        -0.0507
     13 S1          0.0964    1.0076   -2.7240 S.3       1 <0>        -0.2594
     14 C12        -0.0742   -0.4311    2.5626 C.2       1 <0>         0.4611
     15 O1         -0.6662   -1.0353    1.6998 O.co2     1 <0>        -0.6498
     16 C13         2.4326    0.1408    8.3873 C.2       1 <0>         0.4960
     17 O2          3.3476    0.8428    8.7685 O.co2     1 <0>        -0.6480
     18 H2         -0.9563   -0.5172    5.3120 H         1 <0>         0.1087
     19 H3          0.3524   -1.1838    7.2848 H         1 <0>         0.1170
     20 H4          2.7646    2.3364    6.8491 H         1 <0>         0.1121
     21 H5          1.4492    2.9791    4.8728 H         1 <0>         0.1012
     22 H6         -0.6484    2.7537    3.6806 H         1 <0>         0.0522
     23 H7         -1.6491    1.2929    3.8612 H         1 <0>         0.0565
     24 H8         -0.7436    2.6691    1.2728 H         1 <0>         0.0423
     25 H9         -1.7514    1.2020    1.2746 H         1 <0>         0.0609
     26 H10         0.0021   -0.0041    0.0020 H         1 <0>         0.1061
     27 H11         1.0099    1.4631    0.0003 H         1 <0>         0.0593
     28 H12        -1.7753    1.2154   -1.2238 H         1 <0>         0.0802
     29 H13        -0.7675    2.6825   -1.2255 H         1 <0>         0.0730
     30 H14        -0.6368    1.5101   -3.7335 H         1 <0>         0.0701
     31 O3          0.5074   -1.0991    3.5712 O.co2     1 <0>        -0.7357
     32 O4          2.1350   -0.9952    9.0474 O.co2     1 <0>        -0.7666
@<TRIPOS>BOND
     1    1    6 ar
     2    1    2 ar
     3    1   18 1
     4    2    3 ar
     5    2   19 1
     6    3    4 ar
     7    3   16 1
     8    4    5 ar
     9    4   20 1
    10    5    6 ar
    11    5   21 1
    12    6    7 1
    13    7    8 1
    14    7   22 1
    15    7   23 1
    16    8    9 1
    17    8   10 1
    18    8   14 1
    19   10   11 1
    20   10   24 1
    21   10   25 1
    22   11   12 1
    23   11   26 1
    24   11   27 1
    25   12   13 1
    26   12   28 1
    27   12   29 1
    28   13   30 1
    29   14   15 2
    30   14   31 1
    31   16   17 2
    32   16   32 1
@<TRIPOS>MOLECULE
ZINC13686596
   32    32     0     0     0
SMALL
USER_CHARGES
4-[(2R)-2-carboxy-5-sulfanyl-pentyl]benzoic acid
@<TRIPOS>ATOM
      1 C1         -0.5260   -0.2271    2.9864 C.ar      1 <0>        -0.1432
      2 C2          0.0722   -0.7833    4.0981 C.ar      1 <0>        -0.0978
      3 C3          1.1295   -0.1194    4.7235 C.ar      1 <0>        -0.1270
      4 C4          1.5774    1.1014    4.2151 C.ar      1 <0>        -0.0951
      5 C5          0.9735    1.6436    3.0996 C.ar      1 <0>        -0.0467
      6 C6         -0.0738    0.9805    2.4848 C.ar      1 <0>        -0.0747
      7 C7         -0.7288    1.5792    1.2668 C.3       1 <0>        -0.0487
      8 C8         -0.0127    1.0858    0.0080 C.3       1 <0>        -0.1298
      9 H1          0.0021   -0.0041    0.0020 H         1 <0>         0.0685
     10 C9         -0.7527    1.5927   -1.2315 C.3       1 <0>        -0.0821
     11 C10        -0.1114    0.9981   -2.4870 C.3       1 <0>        -0.1100
     12 C11        -0.8514    1.5050   -3.7265 C.3       1 <0>        -0.0507
     13 S1         -0.0911    0.8001   -5.2150 S.3       1 <0>        -0.2593
     14 C12         1.4011    1.6074   -0.0027 C.2       1 <0>         0.4614
     15 O1          1.7782    2.3123   -0.9087 O.co2     1 <0>        -0.6497
     16 C13         1.7716   -0.7064    5.9174 C.2       1 <0>         0.4959
     17 O2          2.6915   -0.1268    6.4591 O.co2     1 <0>        -0.6423
     18 H2         -1.3466   -0.7375    2.5041 H         1 <0>         0.1014
     19 H3         -0.2788   -1.7281    4.4860 H         1 <0>         0.1161
     20 H4          2.3949    1.6199    4.6938 H         1 <0>         0.1130
     21 H5          1.3191    2.5877    2.7051 H         1 <0>         0.1088
     22 H6         -0.6662    2.6662    1.3180 H         1 <0>         0.0563
     23 H7         -1.7755    1.2768    1.2315 H         1 <0>         0.0525
     24 H8         -1.7985    1.2898   -1.1795 H         1 <0>         0.0424
     25 H9         -0.6910    2.6801   -1.2722 H         1 <0>         0.0608
     26 H10         0.9344    1.3010   -2.5390 H         1 <0>         0.1059
     27 H11        -0.1731   -0.0894   -2.4463 H         1 <0>         0.0595
     28 H12        -1.8972    1.2021   -3.6745 H         1 <0>         0.0731
     29 H13        -0.7897    2.5925   -3.7672 H         1 <0>         0.0801
     30 H14        -0.8176    1.3115   -6.2248 H         1 <0>         0.0701
     31 O3          2.2415    1.2890    0.9944 O.co2     1 <0>        -0.7364
     32 O4          1.3371   -1.8844    6.4054 O.co2     1 <0>        -0.7724
@<TRIPOS>BOND
     1    1    6 ar
     2    1    2 ar
     3    1   18 1
     4    2    3 ar
     5    2   19 1
     6    3    4 ar
     7    3   16 1
     8    4    5 ar
     9    4   20 1
    10    5    6 ar
    11    5   21 1
    12    6    7 1
    13    7    8 1
    14    7   22 1
    15    7   23 1
    16    8    9 1
    17    8   10 1
    18    8   14 1
    19   10   11 1
    20   10   24 1
    21   10   25 1
    22   11   12 1
    23   11   26 1
    24   11   27 1
    25   12   13 1
    26   12   28 1
    27   12   29 1
    28   13   30 1
    29   14   15 2
    30   14   31 1
    31   16   17 2
    32   16   32 1
@<TRIPOS>MOLECULE
ZINC13686598
   26    26     0     0     0
SMALL
USER_CHARGES
3-[(2S)-3-hydroxy-3-oxo-2-(sulfanylmethyl)propyl]benzoic acid
@<TRIPOS>ATOM
      1 C1         -1.3889   -0.4454   -4.4413 C.ar      1 <0>        -0.1496
      2 C2         -1.0933   -1.0195   -3.2173 C.ar      1 <0>        -0.1198
      3 C3          0.0903   -0.7126   -2.5700 C.ar      1 <0>        -0.0910
      4 C4          0.9844    0.1690   -3.1418 C.ar      1 <0>        -0.0570
      5 C5          0.6925    0.7517   -4.3764 C.ar      1 <0>        -0.1182
      6 C6         -0.5041    0.4375   -5.0242 C.ar      1 <0>        -0.0879
      7 C7          1.6453    1.6961   -4.9949 C.2       1 <0>         0.4941
      8 O1          2.6854    1.9672   -4.4292 O.co2     1 <0>        -0.6284
      9 C8          0.4034   -1.3422   -1.2371 C.3       1 <0>        -0.0581
     10 C9          1.0801   -2.6964   -1.4592 C.3       1 <0>        -0.1095
     11 H1          0.4527   -3.3153   -2.1006 H         1 <0>         0.0787
     12 C10         1.2779   -3.3946   -0.1122 C.3       1 <0>        -0.0299
     13 S1         -0.3397   -3.7930    0.6057 S.3       1 <0>        -0.2694
     14 C11         2.4193   -2.4867   -2.1178 C.2       1 <0>         0.4789
     15 O2          3.2827   -1.8639   -1.5463 O.co2     1 <0>        -0.6363
     16 H2         -2.3126   -0.6928   -4.9433 H         1 <0>         0.1074
     17 H3         -1.7899   -1.7099   -2.7651 H         1 <0>         0.1085
     18 H4          1.9081    0.4074   -2.6356 H         1 <0>         0.1255
     19 H5         -0.7359    0.8845   -5.9796 H         1 <0>         0.1212
     20 H6          1.0717   -0.6899   -0.6751 H         1 <0>         0.0704
     21 H7         -0.5206   -1.4853   -0.6769 H         1 <0>         0.0695
     22 H8          1.8463   -4.3130   -0.2591 H         1 <0>         0.0764
     23 H9          1.8223   -2.7343    0.5628 H         1 <0>         0.0858
     24 H10        -0.0394   -4.3948    1.7704 H         1 <0>         0.0667
     25 O3          1.3605    2.2567   -6.1863 O.co2     1 <0>        -0.7721
     26 O4          2.6529   -2.9918   -3.3392 O.co2     1 <0>        -0.7563
@<TRIPOS>BOND
     1    1    6 ar
     2    1    2 ar
     3    1   16 1
     4    2    3 ar
     5    2   17 1
     6    3    4 ar
     7    3    9 1
     8    4    5 ar
     9    4   18 1
    10    5    6 ar
    11    5    7 1
    12    6   19 1
    13    7    8 2
    14    7   25 1
    15    9   10 1
    16    9   20 1
    17    9   21 1
    18   10   11 1
    19   10   12 1
    20   10   14 1
    21   12   13 1
    22   12   22 1
    23   12   23 1
    24   13   24 1
    25   14   15 2
    26   14   26 1
@<TRIPOS>MOLECULE
ZINC13686602
   26    26     0     0     0
SMALL
USER_CHARGES
3-[(2R)-3-hydroxy-3-oxo-2-(sulfanylmethyl)propyl]benzoic acid
@<TRIPOS>ATOM
      1 C1          0.2524    3.2498   -4.1106 C.ar      1 <0>        -0.1432
      2 C2          0.6121    2.6184   -2.9328 C.ar      1 <0>        -0.0942
      3 C3          1.8899    2.7664   -2.4235 C.ar      1 <0>        -0.0928
      4 C4          2.8147    3.5456   -3.0877 C.ar      1 <0>        -0.0788
      5 C5          2.4566    4.1904   -4.2730 C.ar      1 <0>        -0.1266
      6 C6          1.1668    4.0323   -4.7843 C.ar      1 <0>        -0.0847
      7 C7          3.4397    5.0312   -4.9865 C.2       1 <0>         0.4965
      8 O1          4.5625    5.1627   -4.5419 O.co2     1 <0>        -0.6391
      9 C8          2.2726    2.0747   -1.1405 C.3       1 <0>        -0.0491
     10 C9          2.8569    0.6969   -1.4586 C.3       1 <0>        -0.1199
     11 H1          3.6746    0.8047   -2.1713 H         1 <0>         0.0811
     12 C10         3.3826    0.0565   -0.1724 C.3       1 <0>        -0.0398
     13 S1          4.2069   -1.5098   -0.5699 S.3       1 <0>        -0.2265
     14 C11         1.7842   -0.1785   -2.0536 C.2       1 <0>         0.4861
     15 O2          0.7802   -0.4158   -1.4246 O.co2     1 <0>        -0.6495
     16 H2         -0.7466    3.1297   -4.5029 H         1 <0>         0.1096
     17 H3         -0.1078    2.0071   -2.4091 H         1 <0>         0.1164
     18 H4          3.8119    3.6600   -2.6892 H         1 <0>         0.1199
     19 H5          0.8846    4.5250   -5.7030 H         1 <0>         0.1219
     20 H6          3.0167    2.6720   -0.6136 H         1 <0>         0.0602
     21 H7          1.3891    1.9585   -0.5128 H         1 <0>         0.0712
     22 H8          4.0939    0.7306    0.3047 H         1 <0>         0.0720
     23 H9          2.5504   -0.1328    0.5057 H         1 <0>         0.0829
     24 H10         4.6207   -1.9717    0.6236 H         1 <0>         0.0493
     25 O3          3.0910    5.6520   -6.1300 O.co2     1 <0>        -0.7671
     26 O4          1.9440   -0.6946   -3.2824 O.co2     1 <0>        -0.7559
@<TRIPOS>BOND
     1    1    6 ar
     2    1    2 ar
     3    1   16 1
     4    2    3 ar
     5    2   17 1
     6    3    4 ar
     7    3    9 1
     8    4    5 ar
     9    4   18 1
    10    5    6 ar
    11    5    7 1
    12    6   19 1
    13    7    8 2
    14    7   25 1
    15    9   10 1
    16    9   20 1
    17    9   21 1
    18   10   11 1
    19   10   12 1
    20   10   14 1
    21   12   13 1
    22   12   22 1
    23   12   23 1
    24   13   24 1
    25   14   15 2
    26   14   26 1
@<TRIPOS>MOLECULE
ZINC13686580
   32    32     0     0     0
SMALL
USER_CHARGES
2-[(2S)-2-carboxy-5-sulfanyl-pentyl]benzoic acid
@<TRIPOS>ATOM
      1 C1          0.4833   -0.1445    6.8825 C.ar      1 <0>        -0.1283
      2 C2          1.6419    0.5374    7.2106 C.ar      1 <0>        -0.1597
      3 C3          2.0778    1.5819    6.4225 C.ar      1 <0>        -0.0898
      4 C4          1.3494    1.9481    5.2886 C.ar      1 <0>        -0.1240
      5 C5          0.1786    1.2593    4.9665 C.ar      1 <0>        -0.0081
      6 C6         -0.2455    0.2158    5.7631 C.ar      1 <0>        -0.0833
      7 C7         -0.6169    1.6507    3.7478 C.3       1 <0>        -0.0523
      8 C8          0.0776    1.1183    2.4928 C.3       1 <0>        -0.1097
      9 H1          1.1086    1.4713    2.4707 H         1 <0>         0.0811
     10 C9         -0.6601    1.6202    1.2499 C.3       1 <0>        -0.0749
     11 C10         0.1044    1.1924   -0.0044 C.3       1 <0>        -0.1081
     12 C11        -0.6333    1.6943   -1.2473 C.3       1 <0>        -0.0469
     13 S1          0.2731    1.1870   -2.7345 S.3       1 <0>        -0.2633
     14 C12         0.0629   -0.3885    2.5115 C.2       1 <0>         0.4621
     15 O1         -0.4818   -0.9984    1.6219 O.co2     1 <0>        -0.6576
     16 C13         1.8129    3.0625    4.4369 C.2       1 <0>         0.4959
     17 O2          1.1266    3.4450    3.5105 O.co2     1 <0>        -0.6199
     18 H2          0.1466   -0.9619    7.5029 H         1 <0>         0.0991
     19 H3          2.2063    0.2507    8.0857 H         1 <0>         0.1000
     20 H4          2.9826    2.1128    6.6792 H         1 <0>         0.1159
     21 H5         -1.1487   -0.3208    5.5126 H         1 <0>         0.1021
     22 H6         -0.6852    2.7372    3.6921 H         1 <0>         0.0924
     23 H7         -1.6187    1.2267    3.8162 H         1 <0>         0.0323
     24 H8         -0.7269    2.7077    1.2814 H         1 <0>         0.0497
     25 H9         -1.6635    1.1951    1.2265 H         1 <0>         0.0496
     26 H10         0.1712    0.1049   -0.0360 H         1 <0>         0.1002
     27 H11         1.1078    1.6175    0.0189 H         1 <0>         0.0608
     28 H12        -1.6367    1.2691   -1.2707 H         1 <0>         0.0777
     29 H13        -0.7001    2.7818   -1.2158 H         1 <0>         0.0747
     30 H14        -0.4622    1.6791   -3.7475 H         1 <0>         0.0661
     31 O3          0.6548   -1.0531    3.5163 O.co2     1 <0>        -0.7575
     32 O4          2.9967    3.6545    4.6875 O.co2     1 <0>        -0.7764
@<TRIPOS>BOND
     1    1    6 ar
     2    1    2 ar
     3    1   18 1
     4    2    3 ar
     5    2   19 1
     6    3    4 ar
     7    3   20 1
     8    4    5 ar
     9    4   16 1
    10    5    6 ar
    11    5    7 1
    12    6   21 1
    13    7    8 1
    14    7   22 1
    15    7   23 1
    16    8    9 1
    17    8   10 1
    18    8   14 1
    19   10   11 1
    20   10   24 1
    21   10   25 1
    22   11   12 1
    23   11   26 1
    24   11   27 1
    25   12   13 1
    26   12   28 1
    27   12   29 1
    28   13   30 1
    29   14   15 2
    30   14   31 1
    31   16   17 2
    32   16   32 1
@<TRIPOS>MOLECULE
ZINC13686584
   32    32     0     0     0
SMALL
USER_CHARGES
2-[(2R)-2-carboxy-5-sulfanyl-pentyl]benzoic acid
@<TRIPOS>ATOM
      1 C1          0.3463   -0.0571   -3.0941 C.ar      1 <0>        -0.1280
      2 C2         -0.7884    0.2952   -3.8036 C.ar      1 <0>        -0.1574
      3 C3         -1.5326    1.3913   -3.4203 C.ar      1 <0>        -0.0854
      4 C4         -1.1387    2.1462   -2.3135 C.ar      1 <0>        -0.1198
      5 C5          0.0071    1.7851   -1.6022 C.ar      1 <0>        -0.0302
      6 C6          0.7422    0.6863   -1.9966 C.ar      1 <0>        -0.1211
      7 C7          0.4396    2.5935   -0.4061 C.3       1 <0>        -0.0545
      8 C8          1.1867    3.8425   -0.8779 C.3       1 <0>        -0.1080
      9 H1          0.5552    4.4060   -1.5647 H         1 <0>         0.0829
     10 C9          1.5331    4.7160    0.3295 C.3       1 <0>        -0.0810
     11 C10         2.1685    6.0221   -0.1514 C.3       1 <0>        -0.1016
     12 C11         2.5149    6.8956    1.0560 C.3       1 <0>        -0.0513
     13 S1          3.2683    8.4442    0.4858 S.3       1 <0>        -0.2590
     14 C12         2.4547    3.4334   -1.5822 C.2       1 <0>         0.4759
     15 O1          3.2266    2.6750   -1.0446 O.co2     1 <0>        -0.6582
     16 C13        -1.9311    3.3213   -1.8968 C.2       1 <0>         0.4937
     17 O2         -1.5324    4.0351   -0.9984 O.co2     1 <0>        -0.6116
     18 H2          0.9252   -0.9166   -3.3983 H         1 <0>         0.1051
     19 H3         -1.0921   -0.2897   -4.6592 H         1 <0>         0.1053
     20 H4         -2.4181    1.6650   -3.9747 H         1 <0>         0.1210
     21 H5          1.6263    0.4032   -1.4446 H         1 <0>         0.1162
     22 H6         -0.4379    2.8903    0.1683 H         1 <0>         0.0888
     23 H7          1.0976    1.9915    0.2206 H         1 <0>         0.0462
     24 H8          0.6249    4.9385    0.8896 H         1 <0>         0.0578
     25 H9          2.2355    4.1854    0.9723 H         1 <0>         0.0520
     26 H10         3.0768    5.7996   -0.7114 H         1 <0>         0.0782
     27 H11         1.4661    6.5527   -0.7942 H         1 <0>         0.0733
     28 H12         1.6066    7.1181    1.6161 H         1 <0>         0.0795
     29 H13         3.2173    6.3650    1.6988 H         1 <0>         0.0779
     30 H14         3.5252    9.1183    1.6209 H         1 <0>         0.0669
     31 O3          2.7264    3.9114   -2.8066 O.co2     1 <0>        -0.7790
     32 O4         -3.0959    3.6011   -2.5130 O.co2     1 <0>        -0.7746
@<TRIPOS>BOND
     1    1    6 ar
     2    1    2 ar
     3    1   18 1
     4    2    3 ar
     5    2   19 1
     6    3    4 ar
     7    3   20 1
     8    4    5 ar
     9    4   16 1
    10    5    6 ar
    11    5    7 1
    12    6   21 1
    13    7    8 1
    14    7   22 1
    15    7   23 1
    16    8    9 1
    17    8   10 1
    18    8   14 1
    19   10   11 1
    20   10   24 1
    21   10   25 1
    22   11   12 1
    23   11   26 1
    24   11   27 1
    25   12   13 1
    26   12   28 1
    27   12   29 1
    28   13   30 1
    29   14   15 2
    30   14   31 1
    31   16   17 2
    32   16   32 1
@<TRIPOS>MOLECULE
ZINC28876401
   21    20     0     0     0
SMALL
USER_CHARGES

@<TRIPOS>ATOM
      1 C1         -0.0187    1.5258    0.0104 C.3       1 <0>        -0.0709
      2 C2          0.0021   -0.0041    0.0020 C.3       1 <0>        -0.1720
      3 C3         -1.4117   -0.5257    0.0127 C.2       1 <0>         0.4937
      4 O1         -2.3491    0.2539    0.0259 O.co2     1 <0>        -0.7095
      5 O2         -1.6182   -1.7273    0.0082 O.co2     1 <0>        -0.7286
      6 C4          1.4167    2.0553   -0.0004 C.3       1 <0>         0.0923
      7 H1          1.9535    1.6326   -0.8497 H         1 <0>         0.0563
      8 C5          1.3970    3.5578   -0.1160 C.2       1 <0>         0.4868
      9 O3          1.7295    4.2467    0.8334 O.co2     1 <0>        -0.6978
     10 O4          1.0484    4.0844   -1.1589 O.co2     1 <0>        -0.7290
     11 N1          2.0888    1.6700    1.2430 N.pl3     1 <0>        -1.1314
     12 P1          3.6862    1.2988    1.2306 P.3       1 <0>         2.3360
     13 O5          4.1403    0.9302    2.6606 O.2       1 <0>        -1.1539
     14 O6          3.9289    0.0991    0.2879 O.3       1 <0>        -1.1455
     15 O7          4.5283    2.5688    0.7107 O.3       1 <0>        -0.9023
     16 H2         -0.5459    1.8868   -0.8726 H         1 <0>         0.0537
     17 H3         -0.5289    1.8773    0.9072 H         1 <0>         0.0442
     18 H4          0.5123   -0.3556   -0.8948 H         1 <0>         0.0514
     19 H5          0.5293   -0.3651    0.8851 H         1 <0>         0.0609
     20 H6          1.5890    1.6344    2.0735 H         1 <0>         0.3798
     21 H7          5.4833    2.4206    0.6775 H         1 <0>         0.3857
@<TRIPOS>BOND
     1    1    2 1
     2    1    6 1
     3    1   16 1
     4    1   17 1
     5    2    3 1
     6    2   18 1
     7    2   19 1
     8    3    4 2
     9    3    5 1
    10    6    7 1
    11    6    8 1
    12    6   11 1
    13    8    9 2
    14    8   10 1
    15   11   12 1
    16   11   20 1
    17   12   13 2
    18   12   14 1
    19   12   15 1
    20   15   21 1
@<TRIPOS>MOLECULE
ZINC13779018
   19    19     0     0     0
SMALL
USER_CHARGES

@<TRIPOS>ATOM
      1 C1         -0.0187    1.5258    0.0104 C.3       1 <0>         0.1559
      2 C2          0.0021   -0.0041    0.0020 C.3       1 <0>        -0.0639
      3 H1          0.4501   -0.3665    0.9272 H         1 <0>         0.1320
      4 C3         -1.4075   -0.5249   -0.1112 C.2       1 <0>         0.4991
      5 O1         -1.7761   -1.0680   -1.1386 O.co2     1 <0>        -0.6678
      6 O2         -2.1794   -0.4033    0.8248 O.co2     1 <0>        -0.6405
      7 N1          0.7922   -0.4768   -1.1426 N.4       1 <0>        -0.6027
      8 N2          1.3557    2.0329    0.0000 N.pl3     1 <0>        -0.5059
      9 C4          2.1974    2.0610   -1.0502 C.2       1 <0>         0.5942
     10 O3          1.9169    1.6204   -2.2941 O.3       1 <0>        -0.6607
     11 N3          3.3403    2.5907   -0.6628 N.2       1 <0>        -0.6559
     12 C5          3.2823    2.9189    0.6279 C.2       1 <0>         0.5845
     13 O4          4.1815    3.4284    1.2748 O.2       1 <0>        -0.5268
     14 O5          2.0627    2.5981    1.0944 O.3       1 <0>        -0.1559
     15 H2         -0.5459    1.8868   -0.8726 H         1 <0>         0.1126
     16 H3         -0.5289    1.8773    0.9072 H         1 <0>         0.1283
     17 H4          0.3774   -0.1413   -1.9991 H         1 <0>         0.4369
     18 H5          1.7359   -0.1280   -1.0669 H         1 <0>         0.4173
     19 H6          0.8059   -1.4857   -1.1482 H         1 <0>         0.4191
@<TRIPOS>BOND
     1    1    2 1
     2    1    8 1
     3    1   15 1
     4    1   16 1
     5    2    3 1
     6    2    4 1
     7    2    7 1
     8    4    5 2
     9    4    6 1
    10    7   17 1
    11    7   18 1
    12    7   19 1
    13    8   14 1
    14    8    9 1
    15    9   10 1
    16    9   11 2
    17   11   12 1
    18   12   13 2
    19   12   14 1
@<TRIPOS>MOLECULE
ZINC13779018
   20    20     0     0     0
SMALL
USER_CHARGES

@<TRIPOS>ATOM
      1 C1         -0.0187    1.5258    0.0104 C.3       1 <0>         0.1622
      2 C2          0.0021   -0.0041    0.0020 C.3       1 <0>         0.0738
      3 H1          0.4501   -0.3665    0.9272 H         1 <0>         0.1320
      4 C3         -1.4075   -0.5249   -0.1112 C.2       1 <0>         0.4457
      5 O1         -1.8299   -0.8975   -1.1801 O.2       1 <0>        -0.5041
      6 O2         -2.1938   -0.5750    0.9756 O.3       1 <0>        -0.5011
      7 N1          0.7922   -0.4768   -1.1426 N.3       1 <0>        -0.8119
      8 N2          1.3557    2.0329    0.0000 N.pl3     1 <0>        -0.4321
      9 C4          2.1974    2.0610   -1.0502 C.2       1 <0>         0.6249
     10 N3          3.3406    2.5899   -0.6626 N.2       1 <0>        -0.6311
     11 C5          3.2828    2.9177    0.6282 C.2       1 <0>         0.5998
     12 O3          4.1822    3.4265    1.2753 O.2       1 <0>        -0.4634
     13 O4          2.0627    2.5981    1.0944 O.3       1 <0>        -0.1103
     14 O5          1.9169    1.6204   -2.2941 O.3       1 <0>        -0.4110
     15 H2         -0.5459    1.8868   -0.8726 H         1 <0>         0.1177
     16 H3         -0.5289    1.8773    0.9072 H         1 <0>         0.1297
     17 H4         -3.0795   -0.9232    0.8045 H         1 <0>         0.4131
     18 H5          0.8750   -1.4823   -1.1342 H         1 <0>         0.3592
     19 H6          0.3968   -0.1538   -2.0130 H         1 <0>         0.3617
     20 H7          2.6463    1.7214   -2.9209 H         1 <0>         0.4452
@<TRIPOS>BOND
     1    1    2 1
     2    1    8 1
     3    1   15 1
     4    1   16 1
     5    2    3 1
     6    2    4 1
     7    2    7 1
     8    4    5 2
     9    4    6 1
    10    6   17 1
    11    7   18 1
    12    7   19 1
    13    8   13 1
    14    8    9 1
    15    9   10 2
    16    9   14 1
    17   10   11 1
    18   11   12 2
    19   11   13 1
    20   14   20 1
@<TRIPOS>MOLECULE
ZINC13519063
   17    16     0     0     0
SMALL
USER_CHARGES
5-sulfanylpentanoic acid
@<TRIPOS>ATOM
      1 C1          2.6961    3.5480   -0.0046 C.3       1 <0>        -0.0932
      2 C2          2.7554    5.0768    0.0030 C.3       1 <0>        -0.1051
      3 C3          4.2166    5.5306   -0.0085 C.3       1 <0>        -0.0581
      4 S1          4.2869    7.3432    0.0006 S.3       1 <0>        -0.2665
      5 C4          1.2350    3.0943    0.0069 C.3       1 <0>        -0.1574
      6 C5          1.1765    1.5884   -0.0006 C.2       1 <0>         0.4577
      7 O1          2.1986    0.9442   -0.0139 O.co2     1 <0>        -0.6432
      8 H1          3.2039    3.1603    0.8785 H         1 <0>         0.0624
      9 H2          3.1869    3.1698   -0.9014 H         1 <0>         0.0624
     10 H3          2.2476    5.4646   -0.8801 H         1 <0>         0.0707
     11 H4          2.2646    5.4550    0.8998 H         1 <0>         0.0707
     12 H5          4.7244    5.1428    0.8746 H         1 <0>         0.0830
     13 H6          4.7074    5.1524   -0.9053 H         1 <0>         0.0830
     14 H7          5.6036    7.6178   -0.0105 H         1 <0>         0.0825
     15 H8          0.7272    3.4820   -0.8762 H         1 <0>         0.0644
     16 H9          0.7441    3.4725    0.9036 H         1 <0>         0.0644
     17 O2         -0.0110    0.9628    0.0073 O.co2     1 <0>        -0.7777
@<TRIPOS>BOND
     1    1    2 1
     2    1    5 1
     3    1    8 1
     4    1    9 1
     5    2    3 1
     6    2   10 1
     7    2   11 1
     8    3    4 1
     9    3   12 1
    10    3   13 1
    11    4   14 1
    12    5    6 1
    13    5   15 1
    14    5   16 1
    15    6    7 2
    16    6   17 1
@<TRIPOS>MOLECULE
ZINC13519034
   25    24     0     0     0
SMALL
USER_CHARGES
(2S)-2-(3-sulfanylpropyl)pentanedioic acid
@<TRIPOS>ATOM
      1 C1         -0.3439    3.9007    1.2129 C.3       1 <0>        -0.1199
      2 C2         -1.4165    2.8114    1.2733 C.3       1 <0>        -0.0795
      3 C3         -1.3295    1.9397    0.0189 C.3       1 <0>        -0.1351
      4 H1         -1.4000    2.5704   -0.8673 H         1 <0>         0.0628
      5 C4         -2.4788    0.9298    0.0189 C.3       1 <0>        -0.0677
      6 C5         -2.4657    0.1423   -1.2929 C.3       1 <0>        -0.1577
      7 C6         -3.5978   -0.8524   -1.2929 C.2       1 <0>         0.4660
      8 O1         -4.3390   -0.9242   -0.3414 O.co2     1 <0>        -0.6536
      9 C7         -0.0143    1.2041    0.0087 C.2       1 <0>         0.4680
     10 O2          0.0021   -0.0041    0.0020 O.co2     1 <0>        -0.6260
     11 C8         -0.4309    4.7723    2.4673 C.3       1 <0>        -0.0528
     12 S1          0.8408    6.0639    2.3956 S.3       1 <0>        -0.2565
     13 H2          0.6415    3.4378    1.1598 H         1 <0>         0.1254
     14 H3         -0.5031    4.5187    0.3292 H         1 <0>         0.0606
     15 H4         -2.4019    3.2743    1.3264 H         1 <0>         0.0451
     16 H5         -1.2574    2.1933    2.1570 H         1 <0>         0.0518
     17 H6         -2.3587    0.2426    0.8564 H         1 <0>         0.0563
     18 H7         -3.4271    1.4585    0.1158 H         1 <0>         0.0382
     19 H8         -2.5859    0.8295   -2.1304 H         1 <0>         0.0451
     20 H9         -1.5175   -0.3864   -1.3898 H         1 <0>         0.0912
     21 H10        -1.4163    5.2353    2.5204 H         1 <0>         0.0710
     22 H11        -0.2718    4.1543    3.3509 H         1 <0>         0.0765
     23 H12         0.6667    6.7556    3.5359 H         1 <0>         0.0640
     24 O3         -3.7826   -1.6587   -2.3500 O.co2     1 <0>        -0.7956
     25 O4          1.1389    1.8910    0.0013 O.co2     1 <0>        -0.7776
@<TRIPOS>BOND
     1    1    2 1
     2    1   11 1
     3    1   13 1
     4    1   14 1
     5    2    3 1
     6    2   15 1
     7    2   16 1
     8    3    4 1
     9    3    5 1
    10    3    9 1
    11    5    6 1
    12    5   17 1
    13    5   18 1
    14    6    7 1
    15    6   19 1
    16    6   20 1
    17    7    8 2
    18    7   24 1
    19    9   10 2
    20    9   25 1
    21   11   12 1
    22   11   21 1
    23   11   22 1
    24   12   23 1
@<TRIPOS>MOLECULE
ZINC13686653
   34    34     0     0     0
SMALL
USER_CHARGES
3-[(2S)-2-carbamoyl-5-sulfanyl-pentyl]benzoic acid
@<TRIPOS>ATOM
      1 C1         -0.1794    5.2018    4.0766 C.ar      1 <0>        -0.1386
      2 C2         -0.3887    3.8344    4.0388 C.ar      1 <0>        -0.1204
      3 C3         -0.9636    3.2467    2.9260 C.ar      1 <0>        -0.1069
      4 C4         -1.3419    4.0229    1.8500 C.ar      1 <0>        -0.0778
      5 C5         -1.1385    5.4037    1.8836 C.ar      1 <0>        -0.1118
      6 C6         -0.5528    5.9896    3.0078 C.ar      1 <0>        -0.0786
      7 C7         -1.5414    6.2412    0.7354 C.2       1 <0>         0.4875
      8 O1         -2.0510    5.7287   -0.2410 O.co2     1 <0>        -0.6310
      9 C8         -1.1827    1.7561    2.8918 C.3       1 <0>        -0.0607
     10 C9          0.1016    1.0622    2.4337 C.3       1 <0>        -0.0967
     11 H1          0.9304    1.3762    3.0681 H         1 <0>         0.0918
     12 C10         0.3975    1.4438    0.9819 C.3       1 <0>        -0.1074
     13 C11         1.7447    0.8515    0.5634 C.3       1 <0>        -0.1018
     14 C12         2.0406    1.2332   -0.8884 C.3       1 <0>        -0.0613
     15 S1          3.6379    0.5309   -1.3847 S.3       1 <0>        -0.2650
     16 C13        -0.0708   -0.4315    2.5353 C.2       1 <0>         0.5232
     17 O2         -0.5860   -1.0457    1.6252 O.2       1 <0>        -0.5387
     18 N1          0.3475   -1.0847    3.6374 N.am      1 <0>        -0.8589
     19 H2          0.2737    5.6537    4.9466 H         1 <0>         0.1153
     20 H3         -0.0982    3.2226    4.8801 H         1 <0>         0.1122
     21 H4         -1.7946    3.5634    0.9838 H         1 <0>         0.1260
     22 H5         -0.3930    7.0572    3.0404 H         1 <0>         0.1285
     23 H6         -1.9893    1.5234    2.1966 H         1 <0>         0.0797
     24 H7         -1.4497    1.4051    3.8886 H         1 <0>         0.0724
     25 H8          0.4343    2.5295    0.8919 H         1 <0>         0.0861
     26 H9         -0.3881    1.0521    0.3359 H         1 <0>         0.0807
     27 H10         1.7079   -0.2342    0.6534 H         1 <0>         0.0722
     28 H11         2.5303    1.2433    1.2094 H         1 <0>         0.0723
     29 H12         1.2550    0.8414   -1.5345 H         1 <0>         0.0859
     30 H13         2.0774    2.3188   -0.9784 H         1 <0>         0.0884
     31 H14         3.7859    0.9288   -2.6609 H         1 <0>         0.0890
     32 H15         0.8243   -0.6059    4.3334 H         1 <0>         0.4010
     33 H16         0.1718   -2.0337    3.7348 H         1 <0>         0.3982
     34 O3         -1.3438    7.5732    0.7710 O.co2     1 <0>        -0.7549
@<TRIPOS>BOND
     1    1    6 ar
     2    1    2 ar
     3    1   19 1
     4    2    3 ar
     5    2   20 1
     6    3    4 ar
     7    3    9 1
     8    4    5 ar
     9    4   21 1
    10    5    6 ar
    11    5    7 1
    12    6   22 1
    13    7    8 2
    14    7   34 1
    15    9   10 1
    16    9   23 1
    17    9   24 1
    18   10   11 1
    19   10   12 1
    20   10   16 1
    21   12   13 1
    22   12   25 1
    23   12   26 1
    24   13   14 1
    25   13   27 1
    26   13   28 1
    27   14   15 1
    28   14   29 1
    29   14   30 1
    30   15   31 1
    31   16   17 2
    32   16   18 am
    33   18   32 1
    34   18   33 1
@<TRIPOS>MOLECULE
ZINC13686656
   34    34     0     0     0
SMALL
USER_CHARGES
3-[(2R)-2-carbamoyl-5-sulfanyl-pentyl]benzoic acid
@<TRIPOS>ATOM
      1 C1         -4.2893    1.8982   -1.6674 C.ar      1 <0>        -0.1384
      2 C2         -2.9904    2.1998   -1.2975 C.ar      1 <0>        -0.1132
      3 C3         -1.9286    1.5025   -1.8456 C.ar      1 <0>        -0.1162
      4 C4         -2.1584    0.5047   -2.7703 C.ar      1 <0>        -0.0796
      5 C5         -3.4666    0.1917   -3.1441 C.ar      1 <0>        -0.1123
      6 C6         -4.5337    0.8993   -2.5865 C.ar      1 <0>        -0.0774
      7 C7         -3.7206   -0.8795   -4.1292 C.2       1 <0>         0.4877
      8 O1         -2.7905   -1.4932   -4.6125 O.co2     1 <0>        -0.6314
      9 C8         -0.5176    1.8377   -1.4363 C.3       1 <0>        -0.0612
     10 C9         -0.0710    0.8896   -0.3216 C.3       1 <0>        -0.1038
     11 H1         -0.1936   -0.1421   -0.6513 H         1 <0>         0.0942
     12 C10         1.4005    1.1479    0.0086 C.3       1 <0>        -0.1002
     13 C11         1.8815    0.1186    1.0334 C.3       1 <0>        -0.1079
     14 C12         3.3529    0.3770    1.3636 C.3       1 <0>        -0.0605
     15 S1          3.9232   -0.8433    2.5786 S.3       1 <0>        -0.2569
     16 C13        -0.9108    1.1276    0.9068 C.2       1 <0>         0.5320
     17 O2         -0.6333    2.0326    1.6651 O.2       1 <0>        -0.5531
     18 N1         -1.9702    0.3348    1.1629 N.am      1 <0>        -0.8486
     19 H2         -5.1136    2.4464   -1.2356 H         1 <0>         0.1140
     20 H3         -2.8046    2.9830   -0.5773 H         1 <0>         0.1094
     21 H4         -1.3284   -0.0357   -3.2010 H         1 <0>         0.1258
     22 H5         -5.5478    0.6651   -2.8746 H         1 <0>         0.1282
     23 H6         -0.4782    2.8658   -1.0763 H         1 <0>         0.0756
     24 H7          0.1455    1.7276   -2.2944 H         1 <0>         0.0845
     25 H8          1.9971    1.0625   -0.8996 H         1 <0>         0.0765
     26 H9          1.5095    2.1506    0.4220 H         1 <0>         0.0793
     27 H10         1.2849    0.2040    1.9416 H         1 <0>         0.0758
     28 H11         1.7725   -0.8840    0.6200 H         1 <0>         0.0765
     29 H12         3.9495    0.2916    0.4554 H         1 <0>         0.0843
     30 H13         3.4619    1.3796    1.7770 H         1 <0>         0.0840
     31 H14         5.2117   -0.5181    2.7862 H         1 <0>         0.0855
     32 H15        -2.1495   -0.4327    0.5975 H         1 <0>         0.4043
     33 H16        -2.5533    0.5317    1.9126 H         1 <0>         0.3980
     34 O3         -4.9839   -1.1756   -4.4914 O.co2     1 <0>        -0.7548
@<TRIPOS>BOND
     1    1    6 ar
     2    1    2 ar
     3    1   19 1
     4    2    3 ar
     5    2   20 1
     6    3    4 ar
     7    3    9 1
     8    4    5 ar
     9    4   21 1
    10    5    6 ar
    11    5    7 1
    12    6   22 1
    13    7    8 2
    14    7   34 1
    15    9   10 1
    16    9   23 1
    17    9   24 1
    18   10   11 1
    19   10   12 1
    20   10   16 1
    21   12   13 1
    22   12   25 1
    23   12   26 1
    24   13   14 1
    25   13   27 1
    26   13   28 1
    27   14   15 1
    28   14   29 1
    29   14   30 1
    30   15   31 1
    31   16   17 2
    32   16   18 am
    33   18   32 1
    34   18   33 1
@<TRIPOS>MOLECULE
ZINC13686644
   36    36     0     0     0
SMALL
USER_CHARGES
3-[(2S)-2-methoxycarbonyl-5-sulfanyl-pentyl]benzoic acid
@<TRIPOS>ATOM
      1 C1          3.6676   -2.3372   -4.2018 C.3       1 <0>         0.0351
      2 O1          2.4181   -2.6551   -3.5340 O.3       1 <0>        -0.3548
      3 C2          2.3458   -2.3932   -2.2195 C.2       1 <0>         0.4744
      4 O2          3.2952   -1.9141   -1.6458 O.2       1 <0>        -0.5074
      5 C3          1.0806   -2.6966   -1.4591 C.3       1 <0>        -0.0772
      6 H1          0.2428   -2.7502   -2.1544 H         1 <0>         0.1091
      7 C4          1.2293   -4.0364   -0.7355 C.3       1 <0>        -0.1042
      8 C5          1.3620   -5.1602   -1.7652 C.3       1 <0>        -0.1113
      9 C6          1.5107   -6.5000   -1.0416 C.3       1 <0>        -0.0633
     10 S1          1.6681   -7.8324   -2.2625 S.3       1 <0>        -0.2523
     11 C7          0.8232   -1.5896   -0.4348 C.3       1 <0>        -0.0615
     12 C8          0.5336   -0.2972   -1.1539 C.ar      1 <0>        -0.1216
     13 C9          1.5511    0.6157   -1.3698 C.ar      1 <0>        -0.1149
     14 C10         1.2941    1.8043   -2.0294 C.ar      1 <0>        -0.1418
     15 C11         0.0200    2.0871   -2.4768 C.ar      1 <0>        -0.0764
     16 C12        -1.0111    1.1706   -2.2625 C.ar      1 <0>        -0.1143
     17 C13        -0.7447   -0.0272   -1.5959 C.ar      1 <0>        -0.0771
     18 C14        -2.3779    1.4668   -2.7383 C.2       1 <0>         0.4891
     19 O3         -3.2731    0.6677   -2.5500 O.co2     1 <0>        -0.6317
     20 H2          3.5917   -2.5974   -5.2575 H         1 <0>         0.0993
     21 H3          3.8707   -1.2708   -4.1041 H         1 <0>         0.0625
     22 H4          4.4783   -2.9049   -3.7450 H         1 <0>         0.0598
     23 H5          2.1192   -4.0129   -0.1066 H         1 <0>         0.0748
     24 H6          0.3507   -4.2139   -0.1153 H         1 <0>         0.0885
     25 H7          0.4721   -5.1837   -2.3942 H         1 <0>         0.0853
     26 H8          2.2406   -4.9828   -2.3855 H         1 <0>         0.0752
     27 H9          2.4007   -6.4765   -0.4127 H         1 <0>         0.0826
     28 H10         0.6321   -6.6775   -0.4214 H         1 <0>         0.0864
     29 H11         1.7909   -8.9447   -1.5163 H         1 <0>         0.0852
     30 H12         1.7041   -1.4654    0.1950 H         1 <0>         0.0828
     31 H13        -0.0316   -1.8598    0.1852 H         1 <0>         0.0885
     32 H14         2.5503    0.3991   -1.0219 H         1 <0>         0.1169
     33 H15         2.0917    2.5143   -2.1906 H         1 <0>         0.1143
     34 H16        -0.1793    3.0155   -2.9913 H         1 <0>         0.1287
     35 H17        -1.5378   -0.7404   -1.4265 H         1 <0>         0.1265
     36 O4         -2.6315    2.6233   -3.3809 O.co2     1 <0>        -0.7552
@<TRIPOS>BOND
     1    1    2 1
     2    1   20 1
     3    1   21 1
     4    1   22 1
     5    2    3 1
     6    3    4 2
     7    3    5 1
     8    5    6 1
     9    5    7 1
    10    5   11 1
    11    7    8 1
    12    7   23 1
    13    7   24 1
    14    8    9 1
    15    8   25 1
    16    8   26 1
    17    9   10 1
    18    9   27 1
    19    9   28 1
    20   10   29 1
    21   11   12 1
    22   11   30 1
    23   11   31 1
    24   12   17 ar
    25   12   13 ar
    26   13   14 ar
    27   13   32 1
    28   14   15 ar
    29   14   33 1
    30   15   16 ar
    31   15   34 1
    32   16   17 ar
    33   16   18 1
    34   17   35 1
    35   18   19 2
    36   18   36 1
@<TRIPOS>MOLECULE
ZINC13686650
   36    36     0     0     0
SMALL
USER_CHARGES
3-[(2R)-2-methoxycarbonyl-5-sulfanyl-pentyl]benzoic acid
@<TRIPOS>ATOM
      1 C1          3.5237    2.0237    3.5555 C.3       1 <0>         0.0392
      2 O1          2.2173    1.3901    3.5682 O.3       1 <0>        -0.3315
      3 C2          1.3840    1.6917    2.5600 C.2       1 <0>         0.4606
      4 O2          1.7345    2.4596    1.6956 O.2       1 <0>        -0.5139
      5 C3          0.0111    1.0724    2.5063 C.3       1 <0>        -0.0760
      6 H1          0.1037   -0.0125    2.4560 H         1 <0>         0.1100
      7 C4         -0.7288    1.5792    1.2668 C.3       1 <0>        -0.0981
      8 C5         -0.0127    1.0858    0.0080 C.3       1 <0>        -0.1153
      9 C6         -0.7527    1.5927   -1.2315 C.3       1 <0>        -0.0586
     10 S1          0.0964    1.0076   -2.7240 S.3       1 <0>        -0.2559
     11 C7         -0.7725    1.4597    3.7620 C.3       1 <0>        -0.0640
     12 C8         -0.1100    0.8562    4.9737 C.ar      1 <0>        -0.1180
     13 C9         -0.4875   -0.4008    5.4127 C.ar      1 <0>        -0.1158
     14 C10         0.1195   -0.9646    6.5207 C.ar      1 <0>        -0.1446
     15 C11         1.0983   -0.2714    7.2024 C.ar      1 <0>        -0.0762
     16 C12         1.4800    0.9994    6.7684 C.ar      1 <0>        -0.1164
     17 C13         0.8671    1.5602    5.6458 C.ar      1 <0>        -0.0440
     18 C14         2.5270    1.7478    7.4936 C.2       1 <0>         0.4898
     19 O3          2.8567    2.8535    7.1138 O.co2     1 <0>        -0.6329
     20 H2          4.0536    1.7457    2.6445 H         1 <0>         0.0551
     21 H3          3.4027    3.1065    3.5894 H         1 <0>         0.0632
     22 H4          4.0955    1.6947    4.4232 H         1 <0>         0.1035
     23 H5         -0.7436    2.6691    1.2728 H         1 <0>         0.0763
     24 H6         -1.7514    1.2020    1.2746 H         1 <0>         0.0787
     25 H7          0.0021   -0.0041    0.0020 H         1 <0>         0.0717
     26 H8          1.0099    1.4631    0.0003 H         1 <0>         0.0941
     27 H9         -1.7753    1.2154   -1.2238 H         1 <0>         0.0811
     28 H10        -0.7675    2.6825   -1.2255 H         1 <0>         0.0838
     29 H11        -0.6368    1.5101   -3.7335 H         1 <0>         0.0839
     30 H12        -0.7889    2.5452    3.8597 H         1 <0>         0.0745
     31 H13        -1.7936    1.0866    3.6826 H         1 <0>         0.0853
     32 H14        -1.2563   -0.9459    4.8853 H         1 <0>         0.1111
     33 H15        -0.1765   -1.9479    6.8552 H         1 <0>         0.1131
     34 H16         1.5680   -0.7107    8.0701 H         1 <0>         0.1262
     35 H17         1.1574    2.5430    5.3050 H         1 <0>         0.1175
     36 O4          3.1162    1.2040    8.5761 O.co2     1 <0>        -0.7576
@<TRIPOS>BOND
     1    1    2 1
     2    1   20 1
     3    1   21 1
     4    1   22 1
     5    2    3 1
     6    3    4 2
     7    3    5 1
     8    5    6 1
     9    5    7 1
    10    5   11 1
    11    7    8 1
    12    7   23 1
    13    7   24 1
    14    8    9 1
    15    8   25 1
    16    8   26 1
    17    9   10 1
    18    9   27 1
    19    9   28 1
    20   10   29 1
    21   11   12 1
    22   11   30 1
    23   11   31 1
    24   12   17 ar
    25   12   13 ar
    26   13   14 ar
    27   13   32 1
    28   14   15 ar
    29   14   33 1
    30   15   16 ar
    31   15   34 1
    32   16   17 ar
    33   16   18 1
    34   17   35 1
    35   18   19 2
    36   18   36 1
@<TRIPOS>MOLECULE
ZINC03817996
   32    32     0     0     0
SMALL
USER_CHARGES
3-(2-carboxy-5-sulfanyl-pentyl)benzoic acid
@<TRIPOS>ATOM
      1 C1          0.1191   -0.9640    6.5214 C.ar      1 <0>        -0.1665
      2 C2         -0.4874   -0.4003    5.4126 C.ar      1 <0>        -0.1259
      3 C3         -0.1100    0.8562    4.9737 C.ar      1 <0>        -0.0938
      4 C4          0.8674    1.5604    5.6460 C.ar      1 <0>         0.0123
      5 C5          1.4798    1.0000    6.7685 C.ar      1 <0>        -0.1297
      6 C6          1.0977   -0.2710    7.2030 C.ar      1 <0>        -0.0861
      7 C7          2.5268    1.7484    7.4938 C.2       1 <0>         0.4971
      8 O1          2.8568    2.8539    7.1138 O.co2     1 <0>        -0.6301
      9 C8         -0.7725    1.4597    3.7620 C.3       1 <0>        -0.0479
     10 C9          0.0111    1.0724    2.5063 C.3       1 <0>        -0.1292
     11 H1          0.1037   -0.0125    2.4560 H         1 <0>         0.0659
     12 C10        -0.7288    1.5792    1.2668 C.3       1 <0>        -0.0820
     13 C11        -0.0127    1.0858    0.0080 C.3       1 <0>        -0.1097
     14 C12        -0.7527    1.5927   -1.2315 C.3       1 <0>        -0.0503
     15 S1          0.0964    1.0076   -2.7240 S.3       1 <0>        -0.2599
     16 C13         1.3840    1.6917    2.5600 C.2       1 <0>         0.4574
     17 O2          1.7345    2.4596    1.6956 O.co2     1 <0>        -0.6498
     18 H2         -0.1773   -1.9470    6.8563 H         1 <0>         0.1006
     19 H3         -1.2561   -0.9456    4.8850 H         1 <0>         0.0990
     20 H4          1.1580    2.5431    5.3050 H         1 <0>         0.1203
     21 H5          1.5671   -0.7102    8.0708 H         1 <0>         0.1156
     22 H6         -0.7889    2.5452    3.8597 H         1 <0>         0.0580
     23 H7         -1.7936    1.0866    3.6826 H         1 <0>         0.0509
     24 H8         -0.7436    2.6691    1.2728 H         1 <0>         0.0617
     25 H9         -1.7514    1.2020    1.2746 H         1 <0>         0.0410
     26 H10         0.0021   -0.0041    0.0020 H         1 <0>         0.0583
     27 H11         1.0099    1.4631    0.0003 H         1 <0>         0.1069
     28 H12        -1.7753    1.2154   -1.2238 H         1 <0>         0.0725
     29 H13        -0.7675    2.6825   -1.2255 H         1 <0>         0.0807
     30 H14        -0.6368    1.5101   -3.7335 H         1 <0>         0.0696
     31 O3          3.1156    1.2047    8.5766 O.co2     1 <0>        -0.7803
     32 O4          2.2173    1.3901    3.5682 O.co2     1 <0>        -0.7268
@<TRIPOS>BOND
     1    1    6 ar
     2    1    2 ar
     3    1   18 1
     4    2    3 ar
     5    2   19 1
     6    3    4 ar
     7    3    9 1
     8    4    5 ar
     9    4   20 1
    10    5    6 ar
    11    5    7 1
    12    6   21 1
    13    7    8 2
    14    7   31 1
    15    9   10 1
    16    9   22 1
    17    9   23 1
    18   10   11 1
    19   10   12 1
    20   10   16 1
    21   12   13 1
    22   12   24 1
    23   12   25 1
    24   13   14 1
    25   13   26 1
    26   13   27 1
    27   14   15 1
    28   14   28 1
    29   14   29 1
    30   15   30 1
    31   16   17 2
    32   16   32 1
@<TRIPOS>MOLECULE
ZINC13686588
   32    32     0     0     0
SMALL
USER_CHARGES
3-[(2S)-2-carboxy-5-sulfanyl-pentyl]benzoic acid
@<TRIPOS>ATOM
      1 C1          1.2936    1.8046   -2.0290 C.ar      1 <0>        -0.1472
      2 C2          1.5506    0.6156   -1.3693 C.ar      1 <0>        -0.0961
      3 C3          0.5334   -0.2970   -1.1536 C.ar      1 <0>        -0.0921
      4 C4         -0.7453   -0.0267   -1.5955 C.ar      1 <0>        -0.0819
      5 C5         -1.0116    1.1709   -2.2617 C.ar      1 <0>        -0.1275
      6 C6          0.0199    2.0875   -2.4761 C.ar      1 <0>        -0.0877
      7 C7         -2.3784    1.4673   -2.7374 C.2       1 <0>         0.4962
      8 O1         -3.2737    0.6682   -2.5491 O.co2     1 <0>        -0.6390
      9 C8          0.8229   -1.5895   -0.4347 C.3       1 <0>        -0.0549
     10 C9          1.0801   -2.6964   -1.4592 C.3       1 <0>        -0.1300
     11 H1          0.2423   -2.7498   -2.1544 H         1 <0>         0.0703
     12 C10         1.2288   -4.0363   -0.7358 C.3       1 <0>        -0.0861
     13 C11         1.3613   -5.1600   -1.7657 C.3       1 <0>        -0.1051
     14 C12         1.5100   -6.4999   -1.0423 C.3       1 <0>        -0.0552
     15 S1          1.6672   -7.8321   -2.2633 S.3       1 <0>        -0.2533
     16 C13         2.3453   -2.3929   -2.2196 C.2       1 <0>         0.4795
     17 O2          3.2947   -1.9139   -1.6460 O.co2     1 <0>        -0.6456
     18 H2          2.0913    2.5147   -2.1902 H         1 <0>         0.1085
     19 H3          2.5498    0.3988   -1.0216 H         1 <0>         0.1214
     20 H4         -1.5385   -0.7398   -1.4262 H         1 <0>         0.1189
     21 H5         -0.1794    3.0160   -2.9906 H         1 <0>         0.1210
     22 H6          1.7039   -1.4655    0.1951 H         1 <0>         0.0706
     23 H7         -0.0319   -1.8597    0.1853 H         1 <0>         0.0545
     24 H8          2.1188   -4.0129   -0.1069 H         1 <0>         0.0592
     25 H9          0.3502   -4.2138   -0.1155 H         1 <0>         0.0526
     26 H10         0.4713   -5.1833   -2.3945 H         1 <0>         0.0728
     27 H11         2.2399   -4.9825   -2.3859 H         1 <0>         0.0890
     28 H12         2.4000   -6.4765   -0.4134 H         1 <0>         0.0788
     29 H13         0.6314   -6.6774   -0.4220 H         1 <0>         0.0776
     30 H14         1.7899   -8.9445   -1.5173 H         1 <0>         0.0687
     31 O3         -2.6320    2.6239   -3.3799 O.co2     1 <0>        -0.7676
     32 O4          2.4175   -2.6549   -3.5341 O.co2     1 <0>        -0.7707
@<TRIPOS>BOND
     1    1    6 ar
     2    1    2 ar
     3    1   18 1
     4    2    3 ar
     5    2   19 1
     6    3    4 ar
     7    3    9 1
     8    4    5 ar
     9    4   20 1
    10    5    6 ar
    11    5    7 1
    12    6   21 1
    13    7    8 2
    14    7   31 1
    15    9   10 1
    16    9   22 1
    17    9   23 1
    18   10   11 1
    19   10   12 1
    20   10   16 1
    21   12   13 1
    22   12   24 1
    23   12   25 1
    24   13   14 1
    25   13   26 1
    26   13   27 1
    27   14   15 1
    28   14   28 1
    29   14   29 1
    30   15   30 1
    31   16   17 2
    32   16   32 1
@<TRIPOS>MOLECULE
ZINC13686572
   30    30     0     0     0
SMALL
USER_CHARGES
(2S)-2-benzyl-5-sulfanyl-pentanoic acid
@<TRIPOS>ATOM
      1 C1          1.7510    2.1514    2.4937 C.ar      1 <0>        -0.1346
      2 C2          0.8566    3.1057    2.0461 C.ar      1 <0>        -0.1242
      3 C3         -0.2895    2.7189    1.3769 C.ar      1 <0>        -0.0947
      4 C4         -0.5438    1.3775    1.1601 C.ar      1 <0>        -0.0651
      5 C5          0.3532    0.4235    1.6031 C.ar      1 <0>        -0.1219
      6 C6          1.4993    0.8104    2.2722 C.ar      1 <0>        -0.1289
      7 C7         -1.7963    0.9555    0.4360 C.3       1 <0>        -0.0647
      8 C8         -2.8807    0.6027    1.4561 C.3       1 <0>        -0.1273
      9 H1         -2.4955   -0.1413    2.1533 H         1 <0>         0.0679
     10 C9         -4.1009    0.0356    0.7277 C.3       1 <0>        -0.0886
     11 C10        -5.1352   -0.4324    1.7535 C.3       1 <0>        -0.1037
     12 C11        -6.3553   -0.9995    1.0251 C.3       1 <0>        -0.0580
     13 S1         -7.5816   -1.5545    2.2412 S.3       1 <0>        -0.2526
     14 C12        -3.2796    1.8425    2.2142 C.2       1 <0>         0.4744
     15 O1         -3.3586    2.9026    1.6399 O.co2     1 <0>        -0.6415
     16 H2          2.6462    2.4536    3.0168 H         1 <0>         0.1130
     17 H3          1.0530    4.1534    2.2194 H         1 <0>         0.1155
     18 H4         -0.9884    3.4644    1.0275 H         1 <0>         0.1300
     19 H5          0.1564   -0.6242    1.4303 H         1 <0>         0.1154
     20 H6          2.1979    0.0648    2.6222 H         1 <0>         0.1139
     21 H7         -2.1438    1.7730   -0.1956 H         1 <0>         0.0769
     22 H8         -1.5822    0.0840   -0.1827 H         1 <0>         0.0585
     23 H9         -4.5391    0.8088    0.0967 H         1 <0>         0.0621
     24 H10        -3.7951   -0.8081    0.1091 H         1 <0>         0.0533
     25 H11        -4.6969   -1.2056    2.3845 H         1 <0>         0.0713
     26 H12        -5.4410    0.4113    2.3720 H         1 <0>         0.0895
     27 H13        -6.7936   -0.2263    0.3940 H         1 <0>         0.0801
     28 H14        -6.0495   -1.8433    0.4065 H         1 <0>         0.0776
     29 H15        -8.5935   -2.0259    1.4911 H         1 <0>         0.0739
     30 O2         -3.5472    1.7691    3.5275 O.co2     1 <0>        -0.7674
@<TRIPOS>BOND
     1    1    6 ar
     2    1    2 ar
     3    1   16 1
     4    2    3 ar
     5    2   17 1
     6    3    4 ar
     7    3   18 1
     8    4    5 ar
     9    4    7 1
    10    5    6 ar
    11    5   19 1
    12    6   20 1
    13    7    8 1
    14    7   21 1
    15    7   22 1
    16    8    9 1
    17    8   10 1
    18    8   14 1
    19   10   11 1
    20   10   23 1
    21   10   24 1
    22   11   12 1
    23   11   25 1
    24   11   26 1
    25   12   13 1
    26   12   27 1
    27   12   28 1
    28   13   29 1
    29   14   15 2
    30   14   30 1
@<TRIPOS>MOLECULE
ZINC13686576
   30    30     0     0     0
SMALL
USER_CHARGES
(2R)-2-benzyl-5-sulfanyl-pentanoic acid
@<TRIPOS>ATOM
      1 C1          1.1047   -0.2506    7.1969 C.ar      1 <0>        -0.1307
      2 C2          1.4769    1.0070    6.7601 C.ar      1 <0>        -0.1339
      3 C3          0.8695    1.5604    5.6485 C.ar      1 <0>        -0.0256
      4 C4         -0.1100    0.8562    4.9737 C.ar      1 <0>        -0.0662
      5 C5         -0.4859   -0.3992    5.4135 C.ar      1 <0>        -0.1234
      6 C6          0.1252   -0.9548    6.5221 C.ar      1 <0>        -0.1443
      7 C7         -0.7725    1.4597    3.7620 C.3       1 <0>        -0.0564
      8 C8          0.0111    1.0724    2.5063 C.3       1 <0>        -0.1289
      9 H1          0.1037   -0.0125    2.4560 H         1 <0>         0.0687
     10 C9         -0.7288    1.5792    1.2668 C.3       1 <0>        -0.0848
     11 C10        -0.0127    1.0858    0.0080 C.3       1 <0>        -0.1092
     12 C11        -0.7527    1.5927   -1.2315 C.3       1 <0>        -0.0532
     13 S1          0.0964    1.0076   -2.7240 S.3       1 <0>        -0.2586
     14 C12         1.3840    1.6917    2.5600 C.2       1 <0>         0.4631
     15 O1          1.7345    2.4596    1.6956 O.co2     1 <0>        -0.6371
     16 H2          1.5790   -0.6828    8.0656 H         1 <0>         0.1070
     17 H3          2.2420    1.5574    7.2876 H         1 <0>         0.1092
     18 H4          1.1600    2.5431    5.3075 H         1 <0>         0.1161
     19 H5         -1.2543   -0.9476    4.8889 H         1 <0>         0.1084
     20 H6         -0.1658   -1.9372    6.8636 H         1 <0>         0.1076
     21 H7         -0.7889    2.5452    3.8597 H         1 <0>         0.0617
     22 H8         -1.7936    1.0866    3.6826 H         1 <0>         0.0580
     23 H9         -0.7436    2.6691    1.2728 H         1 <0>         0.0629
     24 H10        -1.7514    1.2020    1.2746 H         1 <0>         0.0449
     25 H11         0.0021   -0.0041    0.0020 H         1 <0>         0.0595
     26 H12         1.0099    1.4631    0.0003 H         1 <0>         0.1051
     27 H13        -1.7753    1.2154   -1.2238 H         1 <0>         0.0739
     28 H14        -0.7675    2.6825   -1.2255 H         1 <0>         0.0809
     29 H15        -0.6368    1.5101   -3.7335 H         1 <0>         0.0748
     30 O2          2.2173    1.3901    3.5682 O.co2     1 <0>        -0.7495
@<TRIPOS>BOND
     1    1    6 ar
     2    1    2 ar
     3    1   16 1
     4    2    3 ar
     5    2   17 1
     6    3    4 ar
     7    3   18 1
     8    4    5 ar
     9    4    7 1
    10    5    6 ar
    11    5   19 1
    12    6   20 1
    13    7    8 1
    14    7   21 1
    15    7   22 1
    16    8    9 1
    17    8   10 1
    18    8   14 1
    19   10   11 1
    20   10   23 1
    21   10   24 1
    22   11   12 1
    23   11   25 1
    24   11   26 1
    25   12   13 1
    26   12   27 1
    27   12   28 1
    28   13   29 1
    29   14   15 2
    30   14   30 1
@<TRIPOS>MOLECULE
ZINC12502869
   24    24     0     0     0
SMALL
USER_CHARGES
(2S)-2-benzyl-3-sulfanyl-propanoic acid
@<TRIPOS>ATOM
      1 C1          1.7527    2.1456    2.4945 C.ar      1 <0>        -0.1327
      2 C2          0.8578    3.1010    2.0507 C.ar      1 <0>        -0.1242
      3 C3         -0.2888    2.7161    1.3814 C.ar      1 <0>        -0.0926
      4 C4         -0.5431    1.3754    1.1605 C.ar      1 <0>        -0.0663
      5 C5          0.3545    0.4202    1.5997 C.ar      1 <0>        -0.1201
      6 C6          1.5011    0.8051    2.2690 C.ar      1 <0>        -0.1289
      7 C7         -1.7961    0.9554    0.4362 C.3       1 <0>        -0.0592
      8 C8         -2.8807    0.6027    1.4561 C.3       1 <0>        -0.1166
      9 H1         -2.4957   -0.1414    2.1533 H         1 <0>         0.0786
     10 C9         -4.1008    0.0358    0.7275 C.3       1 <0>        -0.0458
     11 S1         -5.3273   -0.5191    1.9434 S.3       1 <0>        -0.2083
     12 C10        -3.2796    1.8425    2.2142 C.2       1 <0>         0.4775
     13 O1         -3.3586    2.9026    1.6399 O.co2     1 <0>        -0.6413
     14 H2          2.6484    2.4463    3.0178 H         1 <0>         0.1135
     15 H3          1.0542    4.1483    2.2272 H         1 <0>         0.1162
     16 H4         -0.9882    3.4626    1.0349 H         1 <0>         0.1310
     17 H5          0.1577   -0.6270    1.4238 H         1 <0>         0.1162
     18 H6          2.2002    0.0586    2.6161 H         1 <0>         0.1146
     19 H7         -2.1429    1.7740   -0.1945 H         1 <0>         0.0799
     20 H8         -1.5830    0.0844   -0.1834 H         1 <0>         0.0609
     21 H9         -4.5389    0.8090    0.0964 H         1 <0>         0.0802
     22 H10        -3.7950   -0.8080    0.1089 H         1 <0>         0.0727
     23 H11        -6.3392   -0.9904    1.1931 H         1 <0>         0.0465
     24 O2         -3.5472    1.7691    3.5275 O.co2     1 <0>        -0.7516
@<TRIPOS>BOND
     1    1    6 ar
     2    1    2 ar
     3    1   14 1
     4    2    3 ar
     5    2   15 1
     6    3    4 ar
     7    3   16 1
     8    4    5 ar
     9    4    7 1
    10    5    6 ar
    11    5   17 1
    12    6   18 1
    13    7    8 1
    14    7   19 1
    15    7   20 1
    16    8    9 1
    17    8   10 1
    18    8   12 1
    19   10   11 1
    20   10   21 1
    21   10   22 1
    22   11   23 1
    23   12   13 2
    24   12   24 1
@<TRIPOS>MOLECULE
ZINC12502871
   24    24     0     0     0
SMALL
USER_CHARGES
(2R)-2-benzyl-3-sulfanyl-propanoic acid
@<TRIPOS>ATOM
      1 C1         -1.5847    1.0779   -5.0088 C.ar      1 <0>        -0.1319
      2 C2         -0.6014    1.7975   -4.3558 C.ar      1 <0>        -0.1194
      3 C3         -0.8610    2.3577   -3.1190 C.ar      1 <0>        -0.0917
      4 C4         -2.1072    2.2072   -2.5399 C.ar      1 <0>        -0.0654
      5 C5         -3.0904    1.4876   -3.1928 C.ar      1 <0>        -0.1189
      6 C6         -2.8291    0.9229   -4.4273 C.ar      1 <0>        -0.1277
      7 C7         -2.3918    2.8224   -1.1940 C.3       1 <0>        -0.0585
      8 C8         -2.9498    4.2340   -1.3862 C.3       1 <0>        -0.1172
      9 H1         -3.8133    4.1961   -2.0503 H         1 <0>         0.0792
     10 C9         -3.3733    4.8039   -0.0309 C.3       1 <0>        -0.0438
     11 S1         -4.1695    6.4155   -0.2748 S.3       1 <0>        -0.2285
     12 C10        -1.8883    5.1155   -1.9922 C.2       1 <0>         0.4812
     13 O1         -0.8727    5.3464   -1.3798 O.co2     1 <0>        -0.6420
     14 H2         -1.3804    0.6364   -5.9730 H         1 <0>         0.1138
     15 H3          0.3710    1.9182   -4.8100 H         1 <0>         0.1164
     16 H4         -0.0914    2.9161   -2.6069 H         1 <0>         0.1236
     17 H5         -4.0626    1.3662   -2.7384 H         1 <0>         0.1162
     18 H6         -3.5972    0.3604   -4.9372 H         1 <0>         0.1146
     19 H7         -3.1223    2.2122   -0.6628 H         1 <0>         0.0639
     20 H8         -1.4698    2.8719   -0.6148 H         1 <0>         0.0763
     21 H9         -4.0751    4.1206    0.4473 H         1 <0>         0.0718
     22 H10        -2.4948    4.9249    0.6029 H         1 <0>         0.0860
     23 H11        -4.4930    6.8103    0.9696 H         1 <0>         0.0585
     24 O2         -2.0710    5.6441   -3.2125 O.co2     1 <0>        -0.7566
@<TRIPOS>BOND
     1    1    6 ar
     2    1    2 ar
     3    1   14 1
     4    2    3 ar
     5    2   15 1
     6    3    4 ar
     7    3   16 1
     8    4    5 ar
     9    4    7 1
    10    5    6 ar
    11    5   17 1
    12    6   18 1
    13    7    8 1
    14    7   19 1
    15    7   20 1
    16    8    9 1
    17    8   10 1
    18    8   12 1
    19   10   11 1
    20   10   21 1
    21   10   22 1
    22   11   23 1
    23   12   13 2
    24   12   24 1
@<TRIPOS>MOLECULE
ZINC03962955
   38    37     0     0     0
SMALL
USER_CHARGES

@<TRIPOS>ATOM
      1 C1          0.8554   -0.2433   -1.2380 C.3       1 <0>        -0.1384
      2 C2         -0.0461   -0.0916   -0.0111 C.3       1 <0>        -0.1009
      3 C3         -1.3348   -0.8885   -0.2236 C.3       1 <0>        -0.1436
      4 C4          0.6827   -0.6207    1.2257 C.3       1 <0>        -0.0995
      5 C5         -0.1607   -0.3438    2.4719 C.3       1 <0>         0.0990
      6 H1         -1.1500   -0.7837    2.3462 H         1 <0>         0.0789
      7 C6          0.5097   -0.9512    3.6773 C.2       1 <0>         0.4918
      8 O1          1.3106   -0.2974    4.3235 O.co2     1 <0>        -0.6915
      9 O2          0.2511   -2.0964    4.0062 O.co2     1 <0>        -0.7137
     10 N1         -0.2901    1.1030    2.6624 N.am      1 <0>        -0.7227
     11 C7         -1.3436    1.6020    3.3389 C.2       1 <0>         0.7078
     12 O3         -2.1866    0.8515    3.7910 O.2       1 <0>        -0.6058
     13 N2         -1.4627    2.9330    3.5141 N.am      1 <0>        -0.7115
     14 C8         -2.6079    3.4755    4.2494 C.3       1 <0>         0.0961
     15 H2         -2.8813    2.7910    5.0524 H         1 <0>         0.0711
     16 C9         -2.2349    4.8353    4.8432 C.3       1 <0>        -0.0770
     17 C10        -1.1333    4.6505    5.8887 C.3       1 <0>        -0.1777
     18 C11        -0.7659    5.9899    6.4736 C.2       1 <0>         0.4940
     19 O4         -1.3327    6.9988    6.0897 O.co2     1 <0>        -0.7051
     20 O5          0.0980    6.0646    7.3306 O.co2     1 <0>        -0.7226
     21 C12        -3.7752    3.6403    3.3106 C.2       1 <0>         0.5002
     22 O6         -4.9150    3.5404    3.7318 O.co2     1 <0>        -0.7135
     23 O7         -3.5798    3.8736    2.1300 O.co2     1 <0>        -0.7037
     24 H3          1.1697   -1.2828   -1.3317 H         1 <0>         0.0467
     25 H4          0.3055    0.0520   -2.1317 H         1 <0>         0.0452
     26 H5          1.7332    0.3929   -1.1248 H         1 <0>         0.0487
     27 H6         -0.2894    0.9610    0.1331 H         1 <0>         0.0753
     28 H7         -1.0915   -1.9412   -0.3678 H         1 <0>         0.0457
     29 H8         -1.9771   -0.7805    0.6505 H         1 <0>         0.0654
     30 H9         -1.8540   -0.5116   -1.1047 H         1 <0>         0.0433
     31 H10         0.8387   -1.6947    1.1239 H         1 <0>         0.0657
     32 H11         1.6466   -0.1209    1.3210 H         1 <0>         0.0587
     33 H12         0.3824    1.7017    2.3017 H         1 <0>         0.3809
     34 H13        -0.7902    3.5318    3.1534 H         1 <0>         0.3825
     35 H14        -1.8768    5.4921    4.0503 H         1 <0>         0.0556
     36 H15        -3.1121    5.2791    5.3141 H         1 <0>         0.0651
     37 H16        -1.4914    3.9937    6.6815 H         1 <0>         0.0523
     38 H17        -0.2561    4.2067    5.4178 H         1 <0>         0.0573
@<TRIPOS>BOND
     1    1    2 1
     2    1   24 1
     3    1   25 1
     4    1   26 1
     5    2    3 1
     6    2    4 1
     7    2   27 1
     8    3   28 1
     9    3   29 1
    10    3   30 1
    11    4    5 1
    12    4   31 1
    13    4   32 1
    14    5    6 1
    15    5    7 1
    16    5   10 1
    17    7    8 2
    18    7    9 1
    19   10   11 am
    20   10   33 1
    21   11   12 2
    22   11   13 am
    23   13   14 1
    24   13   34 1
    25   14   15 1
    26   14   16 1
    27   14   21 1
    28   16   17 1
    29   16   35 1
    30   16   36 1
    31   17   18 1
    32   17   37 1
    33   17   38 1
    34   18   19 2
    35   18   20 1
    36   21   22 2
    37   21   23 1
@<TRIPOS>MOLECULE
ZINC05112946
   19    18     0     0     0
SMALL
USER_CHARGES
(2S)-2-(sulfanylmethyl)pentanedioic acid
@<TRIPOS>ATOM
      1 C1         -2.6065    1.0211   -0.0352 C.3       1 <0>        -0.0718
      2 C2         -2.5895    0.0746    1.1668 C.3       1 <0>        -0.1561
      3 C3         -3.7384   -0.8947    1.0593 C.2       1 <0>         0.4681
      4 O1         -4.4933   -0.8346    0.1178 O.co2     1 <0>        -0.6501
      5 C4         -1.3750    1.9278    0.0121 C.3       1 <0>        -0.1180
      6 H1         -1.3234    2.4201    0.9833 H         1 <0>         0.0749
      7 C5         -1.4766    2.9838   -1.0903 C.3       1 <0>        -0.0245
      8 S1         -2.8870    4.0742   -0.7550 S.3       1 <0>        -0.2640
      9 C6         -0.1334    1.1000   -0.1980 C.2       1 <0>         0.4735
     10 O2         -0.2241   -0.0928   -0.3682 O.co2     1 <0>        -0.6143
     11 H2         -3.5088    1.6318   -0.0040 H         1 <0>         0.0542
     12 H3         -2.5937    0.4387   -0.9565 H         1 <0>         0.0601
     13 H4         -1.6492   -0.4766    1.1819 H         1 <0>         0.0860
     14 H5         -2.6866    0.6526    2.0858 H         1 <0>         0.0463
     15 H6         -0.5597    3.5728   -1.1148 H         1 <0>         0.0849
     16 H7         -1.6183    2.4920   -2.0526 H         1 <0>         0.0735
     17 H8         -2.8731    4.9479   -1.7775 H         1 <0>         0.0593
     18 O3         -3.9230   -1.8248    2.0093 O.co2     1 <0>        -0.7966
     19 O4          1.0730    1.6886   -0.2017 O.co2     1 <0>        -0.7856
@<TRIPOS>BOND
     1    1    2 1
     2    1    5 1
     3    1   11 1
     4    1   12 1
     5    2    3 1
     6    2   13 1
     7    2   14 1
     8    3    4 2
     9    3   18 1
    10    5    6 1
    11    5    7 1
    12    5    9 1
    13    7    8 1
    14    7   15 1
    15    7   16 1
    16    8   17 1
    17    9   10 2
    18    9   19 1
