@<TRIPOS>MOLECULE
ZINC02585424
   24    24     0     0     0
SMALL
USER_CHARGES
2-methylpiperidine-3,4,5-triol
@<TRIPOS>ATOM
      1 C1          1.4028    3.5817   -0.0124 C.3       1 <0>        -0.1803
      2 C2          1.4188    2.0518   -0.0005 C.3       1 <0>         0.0420
      3 H1          1.9403    1.7012    0.8902 H         1 <0>         0.1518
      4 C3         -0.0187    1.5270    0.0104 C.3       1 <0>         0.0985
      5 H2         -0.5279    1.8791    0.9076 H         1 <0>         0.1158
      6 C4          0.0021   -0.0041    0.0020 C.3       1 <0>         0.0713
      7 H3          0.4940   -0.3667    0.9046 H         1 <0>         0.0866
      8 C5          0.7710   -0.4895   -1.2299 C.3       1 <0>         0.0579
      9 H4          0.2572   -0.1595   -2.1329 H         1 <0>         0.0943
     10 C6          2.1856    0.0938   -1.2049 C.3       1 <0>        -0.0384
     11 O1          0.8431   -1.9166   -1.2156 O.3       1 <0>        -0.5414
     12 O2         -1.3375   -0.4996   -0.0437 O.3       1 <0>        -0.5499
     13 O3         -0.7085    2.0011   -1.1477 O.3       1 <0>        -0.5650
     14 H5          0.8895    3.9466    0.8772 H         1 <0>         0.1083
     15 H6          2.4266    3.9557   -0.0201 H         1 <0>         0.0858
     16 H7          0.8810    3.9327   -0.9027 H         1 <0>         0.0926
     17 H8          2.7034   -0.2477   -0.3086 H         1 <0>         0.1390
     18 H9          2.7310   -0.2382   -2.0883 H         1 <0>         0.1386
     19 H10         1.3177   -2.2940   -1.9688 H         1 <0>         0.3995
     20 H11        -1.3998   -1.4645   -0.0514 H         1 <0>         0.4060
     21 H12        -1.6267    1.7039   -1.2078 H         1 <0>         0.4154
     22 N1          2.1161    1.5675   -1.2071 N.4       1 <0>        -0.5080
     23 H13         3.0684    1.9510   -1.2242 H         1 <0>         0.4390
     24 H14         1.6059    1.8808   -2.0412 H         1 <0>         0.4404
@<TRIPOS>BOND
     1    1    2 1
     2    1   14 1
     3    1   15 1
     4    1   16 1
     5    2    3 1
     6    2    4 1
     7    2   22 1
     8    4    5 1
     9    4    6 1
    10    4   13 1
    11    6    7 1
    12    6    8 1
    13    6   12 1
    14    8    9 1
    15    8   10 1
    16    8   11 1
    17   10   17 1
    18   10   18 1
    19   10   22 1
    20   11   19 1
    21   12   20 1
    22   13   21 1
    23   22   23 1
    24   22   24 1
