@<TRIPOS>MOLECULE
ZINC26995305
   17    16     0     0     0
SMALL
USER_CHARGES
3-aminopropylphosphinic acid
@<TRIPOS>ATOM
      1 C1         -0.7527    1.5927   -1.2315 C.3       1 <0>        -0.1367
      2 C2         -0.0366    1.0992   -2.4903 C.3       1 <0>        -0.0003
      3 N1         -0.7471    1.5859   -3.6804 N.4       1 <0>        -0.6861
      4 C3         -0.0127    1.0858    0.0080 C.3       1 <0>        -0.7666
      5 P1         -0.8660    1.6737    1.5079 P.3       1 <0>         2.3960
      6 H1         -1.0272    2.7549    1.6304 H         1 <0>        -0.5137
      7 O1         -2.2545    1.1615    1.5184 O.2       1 <0>        -1.1170
      8 O2         -0.0873    1.1404    2.8122 O.3       1 <0>        -1.1383
      9 H2         -0.7675    2.6926   -1.2255 H         1 <0>         0.0727
     10 H3         -1.7847    1.2121   -1.2237 H         1 <0>         0.1002
     11 H4          0.9954    1.4799   -2.4981 H         1 <0>         0.1210
     12 H5         -0.0217   -0.0007   -2.4963 H         1 <0>         0.1261
     13 H6         -0.2323    1.2311   -4.5854 H         1 <0>         0.4522
     14 H7         -0.7619    2.6858   -3.6743 H         1 <0>         0.4526
     15 H8          0.0022   -0.0141    0.0019 H         1 <0>         0.1025
     16 H9          1.0193    1.4665    0.0002 H         1 <0>         0.0785
     17 H10        -1.7791    1.2052   -3.6725 H         1 <0>         0.4568
@<TRIPOS>BOND
     1    1    2 1
     2    1    4 1
     3    1    9 1
     4    1   10 1
     5    2    3 1
     6    2   11 1
     7    2   12 1
     8    3   13 1
     9    3   14 1
    10    3   17 1
    11    4    5 1
    12    4   15 1
    13    4   16 1
    14    5    6 1
    15    5    7 2
    16    5    8 1
@<TRIPOS>MOLECULE
ZINC20028798
   20    19     0     0     0
SMALL
USER_CHARGES

@<TRIPOS>ATOM
      1 C1         -0.0226    1.8187    0.0120 C.3       1 <0>        -0.7854
      2 P1          0.0021   -0.0041    0.0020 P.3       1 <0>         2.3258
      3 O1          0.7493   -0.5159    1.2537 O.2       1 <0>        -1.0765
      4 C2         -1.7082   -0.6351    0.0149 C.3       1 <0>        -0.7442
      5 C3         -1.6881   -2.1604    0.1323 C.3       1 <0>        -0.1258
      6 C4         -3.1235   -2.6900    0.1431 C.3       1 <0>        -0.0086
      7 N1         -3.1043   -4.1546    0.2558 N.4       1 <0>        -0.6368
      8 O2          0.7253   -0.5023   -1.2691 O.3       1 <0>        -1.0764
      9 H1          0.9999    2.1960    0.0043 H         1 <0>         0.0889
     10 H2         -0.5498    2.1798   -0.8710 H         1 <0>         0.0642
     11 H3         -0.5328    2.1703    0.9088 H         1 <0>         0.0639
     12 H4         -2.2450   -0.2123    0.8642 H         1 <0>         0.0792
     13 H5         -2.2082   -0.3484   -0.9102 H         1 <0>         0.0818
     14 H6         -1.1513   -2.5831   -0.7170 H         1 <0>         0.0978
     15 H7         -1.1881   -2.4471    1.0574 H         1 <0>         0.1004
     16 H8         -3.6604   -2.2673    0.9924 H         1 <0>         0.1251
     17 H9         -3.6236   -2.4033   -0.7820 H         1 <0>         0.1254
     18 H10        -2.6073   -4.5459   -0.5303 H         1 <0>         0.4356
     19 H11        -2.6414   -4.4199    1.1122 H         1 <0>         0.4356
     20 H12        -4.0509   -4.5038    0.2629 H         1 <0>         0.4302
@<TRIPOS>BOND
     1    1    2 1
     2    1    9 1
     3    1   10 1
     4    1   11 1
     5    2    3 2
     6    2    4 1
     7    2    8 1
     8    4    5 1
     9    4   12 1
    10    4   13 1
    11    5    6 1
    12    5   14 1
    13    5   15 1
    14    6    7 1
    15    6   16 1
    16    6   17 1
    17    7   18 1
    18    7   19 1
    19    7   20 1
@<TRIPOS>MOLECULE
ZINC13742954
   21    20     0     0     0
SMALL
USER_CHARGES
[(2S)-3-amino-2-hydroxy-propyl]-methyl-phosphinic acid
@<TRIPOS>ATOM
      1 C1          0.9122   -2.4246    1.4768 C.3       1 <0>        -0.7883
      2 P1          0.7515   -0.6101    1.5494 P.3       1 <0>         2.3262
      3 O1          2.0902   -0.0028    1.7202 O.2       1 <0>        -1.0448
      4 C2          0.0021   -0.0041    0.0020 C.3       1 <0>        -0.7432
      5 C3         -0.0187    1.5258    0.0104 C.3       1 <0>         0.1193
      6 H1         -0.4747    1.9135    0.9333 H         1 <0>         0.0911
      7 C4         -0.7587    2.0326   -1.2291 C.3       1 <0>        -0.0382
      8 N1         -0.7786    3.5014   -1.2210 N.4       1 <0>        -0.6841
      9 O2          1.3220    2.0204    0.0003 O.3       1 <0>        -0.5449
     10 O3         -0.1850   -0.2037    2.7944 O.3       1 <0>        -1.0929
     11 H2         -0.0828   -2.8760    1.3498 H         1 <0>         0.0627
     12 H3          1.3643   -2.7903    2.4105 H         1 <0>         0.0889
     13 H4          1.5521   -2.7023    0.6262 H         1 <0>         0.0632
     14 H5          0.5938   -0.3581   -0.8551 H         1 <0>         0.0875
     15 H6         -1.0268   -0.3844   -0.0806 H         1 <0>         0.0950
     16 H7         -0.2438    1.6778   -2.1341 H         1 <0>         0.1281
     17 H8         -1.7907    1.6518   -1.2213 H         1 <0>         0.1305
     18 H9         -1.3106    3.8658   -2.1122 H         1 <0>         0.4542
     19 H10         0.2534    3.8821   -1.2288 H         1 <0>         0.4498
     20 H11         1.5083    3.1045    0.0043 H         1 <0>         0.3827
     21 H12        -1.2935    3.8561   -0.3160 H         1 <0>         0.4572
@<TRIPOS>BOND
     1    1    2 1
     2    1   11 1
     3    1   12 1
     4    1   13 1
     5    2    3 2
     6    2    4 1
     7    2   10 1
     8    4    5 1
     9    4   14 1
    10    4   15 1
    11    5    6 1
    12    5    7 1
    13    5    9 1
    14    7    8 1
    15    7   16 1
    16    7   17 1
    17    8   18 1
    18    8   19 1
    19    8   21 1
    20    9   20 1
@<TRIPOS>MOLECULE
ZINC22112695
   21    20     0     0     0
SMALL
USER_CHARGES
[(2S)-3-amino-2-hydroxy-propyl]-methyl-phosphinic acid
@<TRIPOS>ATOM
      1 C1         -0.9043    2.4226   -1.4649 C.3       1 <0>        -0.7888
      2 P1         -0.0226    1.8187    0.0120 P.3       1 <0>         2.3272
      3 O1          1.3658    2.3310    0.0015 O.2       1 <0>        -1.0647
      4 C2          0.0021   -0.0041    0.0020 C.3       1 <0>        -0.7433
      5 C3          0.8476   -0.5091    1.1729 C.3       1 <0>         0.1181
      6 H1          1.8370   -0.0285    1.1870 H         1 <0>         0.0921
      7 C4          0.9716   -2.0320    1.0929 C.3       1 <0>        -0.0382
      8 N1          1.7834   -2.5169    2.2172 N.4       1 <0>        -0.6841
      9 O2          0.2204   -0.1463    2.4046 O.3       1 <0>        -0.5443
     10 O3         -0.7762    2.3380    1.3367 O.3       1 <0>        -1.0742
     11 H2         -1.9363    2.0418   -1.4571 H         1 <0>         0.0644
     12 H3         -0.3894    2.0679   -2.3699 H         1 <0>         0.0617
     13 H4         -0.9192    3.5225   -1.4588 H         1 <0>         0.0891
     14 H5         -1.0251   -0.3852    0.1002 H         1 <0>         0.0912
     15 H6          0.4363   -0.3598   -0.9440 H         1 <0>         0.0914
     16 H7         -0.0298   -2.4845    1.1417 H         1 <0>         0.1289
     17 H8          1.4543   -2.3113    0.1448 H         1 <0>         0.1294
     18 H9          1.8726   -3.6118    2.1597 H         1 <0>         0.4542
     19 H10         1.3006   -2.2376    3.1653 H         1 <0>         0.4504
     20 H11         0.6852   -0.4257    3.3617 H         1 <0>         0.3830
     21 H12         2.7848   -2.0644    2.1684 H         1 <0>         0.4566
@<TRIPOS>BOND
     1    1    2 1
     2    1   11 1
     3    1   12 1
     4    1   13 1
     5    2    3 2
     6    2    4 1
     7    2   10 1
     8    4    5 1
     9    4   14 1
    10    4   15 1
    11    5    6 1
    12    5    7 1
    13    5    9 1
    14    7    8 1
    15    7   16 1
    16    7   17 1
    17    8   18 1
    18    8   19 1
    19    8   21 1
    20    9   20 1
@<TRIPOS>MOLECULE
ZINC13742955
   21    20     0     0     0
SMALL
USER_CHARGES
[(2R)-3-amino-2-hydroxy-propyl]-methyl-phosphinic acid
@<TRIPOS>ATOM
      1 C1         -0.1303    0.9813   -2.9648 C.3       1 <0>        -0.7888
      2 P1         -0.8944    1.6897   -1.4689 P.3       1 <0>         2.3272
      3 O1         -2.3144    1.2785   -1.3983 O.2       1 <0>        -1.0648
      4 C2         -0.0127    1.0858    0.0080 C.3       1 <0>        -0.7433
      5 C3         -0.7288    1.5792    1.2668 C.3       1 <0>         0.1185
      6 H1         -1.8023    1.3416    1.2339 H         1 <0>         0.0911
      7 C4         -0.0638    0.9713    2.5033 C.3       1 <0>        -0.0388
      8 N1         -0.8231    1.3483    3.7030 N.4       1 <0>        -0.6841
      9 O2         -0.6468    3.0043    1.3339 O.3       1 <0>        -0.5446
     10 O3         -0.8032    3.2960   -1.5289 O.3       1 <0>        -1.0741
     11 H2          0.9251    1.2869   -3.0173 H         1 <0>         0.0645
     12 H3         -0.6623    1.3457   -3.8560 H         1 <0>         0.0891
     13 H4         -0.1926   -0.1162   -2.9237 H         1 <0>         0.0616
     14 H5          0.0022   -0.0141    0.0019 H         1 <0>         0.0909
     15 H6          1.0193    1.4665    0.0002 H         1 <0>         0.0914
     16 H7         -0.0472   -0.1245    2.4093 H         1 <0>         0.1290
     17 H8          0.9663    1.3477    2.5881 H         1 <0>         0.1297
     18 H9         -0.3449    0.9112    4.5920 H         1 <0>         0.4539
     19 H10        -1.8532    0.9719    3.6183 H         1 <0>         0.4569
     20 H11        -1.1075    3.5427    2.1753 H         1 <0>         0.3845
     21 H12        -0.8397    2.4441    3.7971 H         1 <0>         0.4503
@<TRIPOS>BOND
     1    1    2 1
     2    1   11 1
     3    1   12 1
     4    1   13 1
     5    2    3 2
     6    2    4 1
     7    2   10 1
     8    4    5 1
     9    4   14 1
    10    4   15 1
    11    5    6 1
    12    5    7 1
    13    5    9 1
    14    7    8 1
    15    7   16 1
    16    7   17 1
    17    8   18 1
    18    8   19 1
    19    8   21 1
    20    9   20 1
@<TRIPOS>MOLECULE
ZINC13742956
   21    20     0     0     0
SMALL
USER_CHARGES
[(2R)-3-amino-2-hydroxy-propyl]-methyl-phosphinic acid
@<TRIPOS>ATOM
      1 C1         -1.8786    5.8786    2.6627 C.3       1 <0>        -0.7883
      2 P1         -1.8472    4.0559    2.6415 P.3       1 <0>         2.3262
      3 O1         -1.2365    3.5585    3.8945 O.2       1 <0>        -1.0447
      4 C2         -0.8650    3.4817    1.2171 C.3       1 <0>        -0.7431
      5 C3         -0.7340    1.9582    1.2689 C.3       1 <0>         0.1197
      6 H1         -1.7166    1.4770    1.3833 H         1 <0>         0.0901
      7 C4         -0.0178    1.4648    0.0101 C.3       1 <0>        -0.0388
      8 N1          0.0021   -0.0041    0.0020 N.4       1 <0>        -0.6842
      9 O2          0.0202    1.5840    2.4236 O.3       1 <0>        -0.5453
     10 O3         -3.3511    3.4947    2.5177 O.3       1 <0>        -1.0930
     11 H2         -2.3325    6.2483    1.7314 H         1 <0>         0.0627
     12 H3         -0.8511    6.2620    2.7472 H         1 <0>         0.0633
     13 H4         -2.4712    6.2251    3.5222 H         1 <0>         0.0889
     14 H5         -1.3671    3.7750    0.2834 H         1 <0>         0.0945
     15 H6          0.1356    3.9372    1.2541 H         1 <0>         0.0877
     16 H7         -0.5498    1.8292   -0.8811 H         1 <0>         0.1300
     17 H8          1.0142    1.8455    0.0023 H         1 <0>         0.1289
     18 H9          0.5170   -0.3588   -0.9030 H         1 <0>         0.4539
     19 H10        -1.0299   -0.3848    0.0098 H         1 <0>         0.4575
     20 H11         0.2193    0.5221    2.6301 H         1 <0>         0.3842
     21 H12         0.5341   -0.3685    0.8932 H         1 <0>         0.4498
@<TRIPOS>BOND
     1    1    2 1
     2    1   11 1
     3    1   12 1
     4    1   13 1
     5    2    3 2
     6    2    4 1
     7    2   10 1
     8    4    5 1
     9    4   14 1
    10    4   15 1
    11    5    6 1
    12    5    7 1
    13    5    9 1
    14    7    8 1
    15    7   16 1
    16    7   17 1
    17    8   18 1
    18    8   19 1
    19    8   21 1
    20    9   20 1
@<TRIPOS>MOLECULE
ZINC20112625
   21    20     0     0     0
SMALL
USER_CHARGES
3-aminopropyl-(hydroxymethyl)phosphinic acid
@<TRIPOS>ATOM
      1 C1          1.6900    1.6452    2.7295 C.3       1 <0>        -0.1254
      2 C2          2.4672    1.1974    3.9690 C.3       1 <0>        -0.0014
      3 N1          1.8079    1.7170    5.1745 N.4       1 <0>        -0.6849
      4 C3          2.3767    1.1041    1.4739 C.3       1 <0>        -0.7484
      5 P1          1.4507    1.6376   -0.0030 P.3       1 <0>         2.3256
      6 O1          1.3138    3.1113    0.0062 O.2       1 <0>        -1.0479
      7 C4          2.3483    1.1201   -1.5029 C.3       1 <0>        -0.5159
      8 O2          1.6224    1.5383   -2.6606 O.3       1 <0>        -0.5454
      9 O3         -0.0110    0.9628    0.0073 O.3       1 <0>        -1.0754
     10 H1          0.6620    1.2572    2.7813 H         1 <0>         0.0988
     11 H2          1.6655    2.7442    2.6893 H         1 <0>         0.0990
     12 H3          2.4916    0.0984    4.0092 H         1 <0>         0.1202
     13 H4          3.4952    1.5853    3.9172 H         1 <0>         0.1192
     14 H5          2.3667    1.3951    6.0656 H         1 <0>         0.4498
     15 H6          0.7799    1.3290    5.2263 H         1 <0>         0.4569
     16 H7          3.4047    1.4921    1.4221 H         1 <0>         0.0786
     17 H8          2.4012    0.0051    1.5141 H         1 <0>         0.0830
     18 H9          3.3470    1.5812   -1.5099 H         1 <0>         0.0373
     19 H10         2.4501    0.0248   -1.5098 H         1 <0>         0.0387
     20 H11         2.0116    1.3138   -3.6646 H         1 <0>         0.3815
     21 H12         1.7835    2.8160    5.1342 H         1 <0>         0.4562
@<TRIPOS>BOND
     1    1    2 1
     2    1    4 1
     3    1   10 1
     4    1   11 1
     5    2    3 1
     6    2   12 1
     7    2   13 1
     8    3   14 1
     9    3   15 1
    10    3   21 1
    11    4    5 1
    12    4   16 1
    13    4   17 1
    14    5    6 2
    15    5    7 1
    16    5    9 1
    17    7    8 1
    18    7   18 1
    19    7   19 1
    20    8   20 1
@<TRIPOS>MOLECULE
ZINC20112628
   21    20     0     0     0
SMALL
USER_CHARGES
3-aminopropyl-(hydroxymethyl)phosphinic acid
@<TRIPOS>ATOM
      1 C1         -0.0127    1.0858    0.0080 C.3       1 <0>        -0.1254
      2 C2         -0.7527    1.5927   -1.2315 C.3       1 <0>        -0.0014
      3 N1         -0.0651    1.1189   -2.4401 N.4       1 <0>        -0.6849
      4 C3         -0.7288    1.5792    1.2668 C.3       1 <0>        -0.7484
      5 P1          0.1529    0.9753    2.7437 P.3       1 <0>         2.3257
      6 O1          0.2785   -0.4977    2.6753 O.2       1 <0>        -1.0479
      7 C4         -0.7809    1.4368    4.2399 C.3       1 <0>        -0.5159
      8 O2         -0.0897    0.9634    5.3976 O.3       1 <0>        -0.5454
      9 O3          1.6195    1.6370    2.8011 O.3       1 <0>        -1.0755
     10 H1          0.0022   -0.0141    0.0019 H         1 <0>         0.0990
     11 H2          1.0193    1.4665    0.0002 H         1 <0>         0.0988
     12 H3         -1.7847    1.2120   -1.2237 H         1 <0>         0.1192
     13 H4         -0.7676    2.6926   -1.2254 H         1 <0>         0.1202
     14 H5         -0.5971    1.4833   -3.3313 H         1 <0>         0.4498
     15 H6         -0.0502    0.0190   -2.4461 H         1 <0>         0.4562
     16 H7         -0.7437    2.6791    1.2728 H         1 <0>         0.0829
     17 H8         -1.7608    1.1985    1.2746 H         1 <0>         0.0786
     18 H9         -0.8743    2.5317    4.2907 H         1 <0>         0.0387
     19 H10        -1.7830    0.9848    4.2007 H         1 <0>         0.0373
     20 H11        -0.5041    1.1485    6.3996 H         1 <0>         0.3815
     21 H12         0.9669    1.4996   -2.4479 H         1 <0>         0.4568
@<TRIPOS>BOND
     1    1    2 1
     2    1    4 1
     3    1   10 1
     4    1   11 1
     5    2    3 1
     6    2   12 1
     7    2   13 1
     8    3   14 1
     9    3   15 1
    10    3   21 1
    11    4    5 1
    12    4   16 1
    13    4   17 1
    14    5    6 2
    15    5    7 1
    16    5    9 1
    17    7    8 1
    18    7   18 1
    19    7   19 1
    20    8   20 1
@<TRIPOS>MOLECULE
ZINC13742936
   20    19     0     0     0
SMALL
USER_CHARGES
3-aminopropyl-(difluoromethyl)phosphinic acid
@<TRIPOS>ATOM
      1 C1         -0.0127    1.0858    0.0080 C.3       1 <0>        -0.1270
      2 C2         -0.7527    1.5927   -1.2315 C.3       1 <0>        -0.0010
      3 N1         -0.0651    1.1189   -2.4401 N.4       1 <0>        -0.6852
      4 C3         -0.7288    1.5792    1.2668 C.3       1 <0>        -0.7422
      5 P1          0.1529    0.9753    2.7437 P.3       1 <0>         2.2857
      6 O1          1.5728    1.3865    2.6731 O.2       1 <0>        -1.0179
      7 C4         -0.6112    1.6837    4.2396 C.3       1 <0>        -0.3153
      8 F1         -1.9535    1.2950    4.3064 F         1 <0>        -0.2240
      9 F2          0.0654    1.2203    5.3730 F         1 <0>        -0.1981
     10 O2          0.0617   -0.6310    2.8038 O.3       1 <0>        -1.0409
     11 H1          0.0022   -0.0141    0.0019 H         1 <0>         0.1000
     12 H2          1.0193    1.4665    0.0002 H         1 <0>         0.0998
     13 H3         -1.7847    1.2120   -1.2237 H         1 <0>         0.1218
     14 H4         -0.7676    2.6926   -1.2254 H         1 <0>         0.1205
     15 H5         -0.5971    1.4833   -3.3313 H         1 <0>         0.4509
     16 H6         -0.0502    0.0190   -2.4461 H         1 <0>         0.4571
     17 H7         -0.7437    2.6791    1.2728 H         1 <0>         0.0843
     18 H8         -1.7608    1.1985    1.2746 H         1 <0>         0.0916
     19 H9         -0.6792    2.7624    4.4440 H         1 <0>         0.0836
     20 H10         0.9669    1.4996   -2.4479 H         1 <0>         0.4562
@<TRIPOS>BOND
     1    1    2 1
     2    1    4 1
     3    1   11 1
     4    1   12 1
     5    2    3 1
     6    2   13 1
     7    2   14 1
     8    3   15 1
     9    3   16 1
    10    3   20 1
    11    4    5 1
    12    4   17 1
    13    4   18 1
    14    5    6 2
    15    5    7 1
    16    5   10 1
    17    7    8 1
    18    7    9 1
    19    7   19 1
@<TRIPOS>MOLECULE
ZINC13742937
   20    19     0     0     0
SMALL
USER_CHARGES
3-aminopropyl-(difluoromethyl)phosphinic acid
@<TRIPOS>ATOM
      1 C1          1.6378    1.6746   -2.7393 C.3       1 <0>        -0.1270
      2 C2          2.3911    1.2402   -3.9981 C.3       1 <0>        -0.0010
      3 N1          1.7090    1.7726   -5.1852 N.4       1 <0>        -0.6852
      4 C3          2.3483    1.1201   -1.5029 C.3       1 <0>        -0.7422
      5 P1          1.4507    1.6376   -0.0030 P.3       1 <0>         2.2856
      6 O1          1.3138    3.1113    0.0062 O.2       1 <0>        -1.0180
      7 C4          2.3767    1.1041    1.4738 C.3       1 <0>        -0.3153
      8 F1          1.6879    1.5013    2.6249 F         1 <0>        -0.1981
      9 F2          2.5061   -0.2889    1.4651 F         1 <0>        -0.2240
     10 O2         -0.0110    0.9628    0.0073 O.3       1 <0>        -1.0408
     11 H1          1.6142    2.7731   -2.6869 H         1 <0>         0.0998
     12 H2          0.6089    1.2871   -2.7756 H         1 <0>         0.1000
     13 H3          3.4199    1.6277   -3.9618 H         1 <0>         0.1205
     14 H4          2.4147    0.1417   -4.0506 H         1 <0>         0.1218
     15 H5          2.2506    1.4602   -6.0902 H         1 <0>         0.4509
     16 H6          1.6855    2.8711   -5.1327 H         1 <0>         0.4562
     17 H7          2.3719    0.0216   -1.5554 H         1 <0>         0.0916
     18 H8          3.3771    1.5076   -1.4666 H         1 <0>         0.0843
     19 H9          3.4036    1.4237    1.7050 H         1 <0>         0.0836
     20 H10         0.6802    1.3851   -5.2215 H         1 <0>         0.4571
@<TRIPOS>BOND
     1    1    2 1
     2    1    4 1
     3    1   11 1
     4    1   12 1
     5    2    3 1
     6    2   13 1
     7    2   14 1
     8    3   15 1
     9    3   16 1
    10    3   20 1
    11    4    5 1
    12    4   17 1
    13    4   18 1
    14    5    6 2
    15    5    7 1
    16    5   10 1
    17    7    8 1
    18    7    9 1
    19    7   19 1
@<TRIPOS>MOLECULE
ZINC26983004
   35    34     0     0     0
SMALL
USER_CHARGES
3-aminopropyl-hexyl-phosphinic acid
@<TRIPOS>ATOM
      1 C1          0.0350    1.0590    5.0047 C.3       1 <0>        -0.1540
      2 C2         -0.7050    1.5658    3.7651 C.3       1 <0>        -0.1256
      3 C3          0.0111    1.0724    2.5063 C.3       1 <0>        -0.1239
      4 C4         -0.7288    1.5792    1.2668 C.3       1 <0>        -0.1174
      5 C5         -0.0127    1.0858    0.0080 C.3       1 <0>        -0.0981
      6 C6         -0.7527    1.5927   -1.2315 C.3       1 <0>        -0.7413
      7 P1          0.1006    1.0047   -2.7314 P.3       1 <0>         2.3286
      8 O1          0.2273   -0.4690   -2.6812 O.2       1 <0>        -1.0606
      9 C7         -0.8615    1.4821   -4.2044 C.3       1 <0>        -0.7470
     10 C8         -0.2126    0.8828   -5.4536 C.3       1 <0>        -0.1256
     11 C9         -1.0200    1.2834   -6.6899 C.3       1 <0>        -0.0020
     12 N1         -0.3970    0.7079   -7.8894 N.4       1 <0>        -0.6851
     13 O2          1.5659    1.6671   -2.8096 O.3       1 <0>        -1.0889
     14 H1         -0.4799    1.4138    5.9097 H         1 <0>         0.0512
     15 H2          1.0670    1.4398    4.9969 H         1 <0>         0.0548
     16 H3          0.0499   -0.0409    4.9987 H         1 <0>         0.0544
     17 H4         -1.7370    1.1850    3.7729 H         1 <0>         0.0576
     18 H5         -0.7200    2.6657    3.7711 H         1 <0>         0.0581
     19 H6          1.0431    1.4531    2.4985 H         1 <0>         0.0646
     20 H7          0.0260   -0.0275    2.5002 H         1 <0>         0.0639
     21 H8         -1.7608    1.1985    1.2746 H         1 <0>         0.0514
     22 H9         -0.7437    2.6791    1.2728 H         1 <0>         0.0527
     23 H10         1.0193    1.4665    0.0002 H         1 <0>         0.0736
     24 H11         0.0022   -0.0141    0.0019 H         1 <0>         0.0736
     25 H12        -1.7847    1.2120   -1.2236 H         1 <0>         0.0641
     26 H13        -0.7676    2.6926   -1.2254 H         1 <0>         0.0684
     27 H14        -1.8902    1.1046   -4.1086 H         1 <0>         0.0769
     28 H15        -0.8799    2.5785   -4.2909 H         1 <0>         0.0806
     29 H16         0.8161    1.2603   -5.5494 H         1 <0>         0.0970
     30 H17        -0.1942   -0.2136   -5.3671 H         1 <0>         0.0974
     31 H18        -2.0488    0.9059   -6.5941 H         1 <0>         0.1189
     32 H19        -1.0383    2.3798   -6.7764 H         1 <0>         0.1198
     33 H20        -0.9776    0.9960   -8.7782 H         1 <0>         0.4495
     34 H21        -0.3787   -0.3885   -7.8029 H         1 <0>         0.4559
     35 H22         0.6318    1.0854   -7.9852 H         1 <0>         0.4565
@<TRIPOS>BOND
     1    1    2 1
     2    1   14 1
     3    1   15 1
     4    1   16 1
     5    2    3 1
     6    2   17 1
     7    2   18 1
     8    3    4 1
     9    3   19 1
    10    3   20 1
    11    4    5 1
    12    4   21 1
    13    4   22 1
    14    5    6 1
    15    5   23 1
    16    5   24 1
    17    6    7 1
    18    6   25 1
    19    6   26 1
    20    7    8 2
    21    7    9 1
    22    7   13 1
    23    9   10 1
    24    9   27 1
    25    9   28 1
    26   10   11 1
    27   10   29 1
    28   10   30 1
    29   11   12 1
    30   11   31 1
    31   11   32 1
    32   12   33 1
    33   12   34 1
    34   12   35 1
@<TRIPOS>MOLECULE
ZINC26983012
   35    34     0     0     0
SMALL
USER_CHARGES
3-aminopropyl-hexyl-phosphinic acid
@<TRIPOS>ATOM
      1 C1         -0.0604    1.1126   -4.9886 C.3       1 <0>        -0.1540
      2 C2         -0.7766    1.6061   -3.7298 C.3       1 <0>        -0.1256
      3 C3         -0.0366    1.0992   -2.4903 C.3       1 <0>        -0.1239
      4 C4         -0.7527    1.5927   -1.2315 C.3       1 <0>        -0.1174
      5 C5         -0.0127    1.0858    0.0080 C.3       1 <0>        -0.0981
      6 C6         -0.7288    1.5792    1.2668 C.3       1 <0>        -0.7414
      7 P1          0.1529    0.9753    2.7437 P.3       1 <0>         2.3287
      8 O1          0.2785   -0.4977    2.6753 O.2       1 <0>        -1.0606
      9 C7         -0.7809    1.4368    4.2399 C.3       1 <0>        -0.7470
     10 C8         -0.1083    0.8241    5.4700 C.3       1 <0>        -0.1257
     11 C9         -0.8919    1.2114    6.7257 C.3       1 <0>        -0.0020
     12 N1         -0.2462    0.6231    7.9068 N.4       1 <0>        -0.6850
     13 O2          1.6195    1.6369    2.8011 O.3       1 <0>        -1.0889
     14 H1         -0.5924    1.4770   -5.8798 H         1 <0>         0.0512
     15 H2         -0.0455    0.0127   -4.9946 H         1 <0>         0.0544
     16 H3          0.9716    1.4933   -4.9963 H         1 <0>         0.0548
     17 H4         -0.7915    2.7060   -3.7238 H         1 <0>         0.0581
     18 H5         -1.8086    1.2254   -3.7220 H         1 <0>         0.0576
     19 H6         -0.0218   -0.0007   -2.4964 H         1 <0>         0.0639
     20 H7          0.9954    1.4798   -2.4981 H         1 <0>         0.0646
     21 H8         -0.7675    2.6926   -1.2255 H         1 <0>         0.0527
     22 H9         -1.7847    1.2121   -1.2237 H         1 <0>         0.0514
     23 H10         0.0022   -0.0141    0.0019 H         1 <0>         0.0736
     24 H11         1.0193    1.4665    0.0002 H         1 <0>         0.0736
     25 H12        -0.7437    2.6791    1.2728 H         1 <0>         0.0684
     26 H13        -1.7608    1.1985    1.2746 H         1 <0>         0.0641
     27 H14        -0.7974    2.5323    4.3384 H         1 <0>         0.0806
     28 H15        -1.8114    1.0603    4.1597 H         1 <0>         0.0769
     29 H16        -0.0918   -0.2713    5.3714 H         1 <0>         0.0974
     30 H17         0.9222    1.2006    5.5502 H         1 <0>         0.0970
     31 H18        -0.9083    2.3068    6.8243 H         1 <0>         0.1198
     32 H19        -1.9224    0.8350    6.6455 H         1 <0>         0.1189
     33 H20        -0.8096    0.9016    8.8096 H         1 <0>         0.4495
     34 H21         0.7843    0.9996    7.9870 H         1 <0>         0.4565
     35 H22        -0.2298   -0.4723    7.8082 H         1 <0>         0.4559
@<TRIPOS>BOND
     1    1    2 1
     2    1   14 1
     3    1   15 1
     4    1   16 1
     5    2    3 1
     6    2   17 1
     7    2   18 1
     8    3    4 1
     9    3   19 1
    10    3   20 1
    11    4    5 1
    12    4   21 1
    13    4   22 1
    14    5    6 1
    15    5   23 1
    16    5   24 1
    17    6    7 1
    18    6   25 1
    19    6   26 1
    20    7    8 2
    21    7    9 1
    22    7   13 1
    23    9   10 1
    24    9   27 1
    25    9   28 1
    26   10   11 1
    27   10   29 1
    28   10   30 1
    29   11   12 1
    30   11   31 1
    31   11   32 1
    32   12   33 1
    33   12   34 1
    34   12   35 1
@<TRIPOS>MOLECULE
ZINC01529636
   17    16     0     0     0
SMALL
USER_CHARGES

@<TRIPOS>ATOM
      1 C1         -0.0187    1.5258    0.0104 C.3       1 <0>        -0.1293
      2 C2          0.0021   -0.0041    0.0020 C.3       1 <0>        -0.0045
      3 N1         -1.3761   -0.5125    0.0124 N.4       1 <0>        -0.6380
      4 C3          1.4167    2.0553   -0.0004 C.3       1 <0>        -0.6848
      5 S1          1.3921    3.8692    0.0095 S.o2      1 <0>         2.6343
      6 O1          2.7640    4.3527   -0.0010 O.2       1 <0>        -1.0505
      7 O2          0.6853    4.3310   -1.1750 O.2       1 <0>        -1.0560
      8 O3          0.7081    4.3182    1.2123 O.3       1 <0>        -1.0560
      9 H1         -0.5459    1.8868   -0.8726 H         1 <0>         0.0970
     10 H2         -0.5289    1.8773    0.9072 H         1 <0>         0.0970
     11 H3          0.5123   -0.3556   -0.8948 H         1 <0>         0.1313
     12 H4          0.5293   -0.3651    0.8851 H         1 <0>         0.1313
     13 H5         -1.8484   -0.1871    0.8426 H         1 <0>         0.4350
     14 H6         -1.8641   -0.1783   -0.8050 H         1 <0>         0.4350
     15 H7          1.9439    1.6943    0.8826 H         1 <0>         0.1129
     16 H8          1.9269    1.7038   -0.8972 H         1 <0>         0.1129
     17 H9         -1.3624   -1.5214    0.0069 H         1 <0>         0.4325
@<TRIPOS>BOND
     1    1    2 1
     2    1    4 1
     3    1    9 1
     4    1   10 1
     5    2    3 1
     6    2   11 1
     7    2   12 1
     8    3   13 1
     9    3   14 1
    10    3   17 1
    11    4    5 1
    12    4   15 1
    13    4   16 1
    14    5    6 2
    15    5    7 2
    16    5    8 1
@<TRIPOS>MOLECULE
ZINC00402642
   33    34     0     0     0
SMALL
USER_CHARGES
4-amino-3-(5-methoxybenzofuran-2-yl)-butanoic acid
@<TRIPOS>ATOM
      1 C1          2.4344    4.1056    0.0004 C.3       1 <0>         0.0246
      2 O1          1.1659    3.4476    0.0090 O.3       1 <0>        -0.3138
      3 C2          1.1756    2.0879    0.0020 C.ar      1 <0>         0.1179
      4 C3          2.3869    1.4023   -0.0115 C.ar      1 <0>        -0.1698
      5 C4          2.4140    0.0249   -0.0200 C.ar      1 <0>        -0.0644
      6 C5          1.2253   -0.6940   -0.0134 C.ar      1 <0>         0.0207
      7 C6          0.0021   -0.0041    0.0020 C.ar      1 <0>        -0.0947
      8 C7         -0.0168    1.3901    0.0097 C.ar      1 <0>        -0.1106
      9 C8         -1.0348   -1.0431    0.0063 C.2       1 <0>        -0.1967
     10 C9         -0.3880   -2.2166   -0.0061 C.2       1 <0>         0.0107
     11 O2          0.9408   -2.0129   -0.0177 O.3       1 <0>        -0.1861
     12 C10        -1.0536   -3.5686   -0.0078 C.3       1 <0>        -0.0121
     13 H1         -2.1360   -3.4407    0.0027 H         1 <0>         0.1280
     14 C11        -0.6431   -4.3376   -1.2652 C.3       1 <0>        -0.1576
     15 C12        -1.4024   -5.6378   -1.3292 C.2       1 <0>         0.4608
     16 O3         -2.1910   -5.9203   -0.4585 O.co2     1 <0>        -0.6483
     17 C13        -0.6206   -4.3518    1.2332 C.3       1 <0>        -0.0063
     18 H2          3.0018    3.8122    0.8837 H         1 <0>         0.0575
     19 H3          2.9851    3.8212   -0.8962 H         1 <0>         0.0585
     20 H4          2.2838    5.1851    0.0073 H         1 <0>         0.1045
     21 H5          3.3145    1.9555   -0.0167 H         1 <0>         0.1441
     22 H6          3.3599   -0.4963   -0.0315 H         1 <0>         0.1390
     23 H7         -0.9573    1.9210    0.0170 H         1 <0>         0.1387
     24 H8         -2.1042   -0.8921    0.0174 H         1 <0>         0.1643
     25 H9         -0.8713   -3.7397   -2.1475 H         1 <0>         0.0901
     26 H10         0.4269   -4.5430   -1.2323 H         1 <0>         0.0835
     27 H11        -1.0306   -5.3607    1.1875 H         1 <0>         0.1689
     28 H12         0.4676   -4.4031    1.2690 H         1 <0>         0.1299
     29 H13        -0.8457   -4.1731    3.2717 H         1 <0>         0.4356
     30 H14        -0.8048   -2.7165    2.4702 H         1 <0>         0.4254
     31 O4         -1.2026   -6.4819   -2.3535 O.co2     1 <0>        -0.7392
     32 N1         -1.1437   -3.6764    2.4338 N.4       1 <0>        -0.6429
     33 H15        -2.1698   -3.6682    2.3963 H         1 <0>         0.4399
@<TRIPOS>BOND
     1    1    2 1
     2    1   18 1
     3    1   19 1
     4    1   20 1
     5    2    3 1
     6    3    8 ar
     7    3    4 ar
     8    4    5 ar
     9    4   21 1
    10    5    6 ar
    11    5   22 1
    12    6   11 1
    13    6    7 ar
    14    7    8 ar
    15    7    9 1
    16    8   23 1
    17    9   10 2
    18    9   24 1
    19   10   11 1
    20   10   12 1
    21   12   13 1
    22   12   14 1
    23   12   17 1
    24   14   15 1
    25   14   25 1
    26   14   26 1
    27   15   16 2
    28   15   31 1
    29   17   27 1
    30   17   28 1
    31   17   32 1
    32   29   32 1
    33   30   32 1
    34   32   33 1
@<TRIPOS>MOLECULE
ZINC00402643
   33    34     0     0     0
SMALL
USER_CHARGES
4-amino-3-(5-methoxybenzofuran-2-yl)-butanoic acid
@<TRIPOS>ATOM
      1 C1          3.1815   11.8746    0.0066 C.3       1 <0>         0.0255
      2 O1          3.5606   10.7320   -0.7633 O.3       1 <0>        -0.3145
      3 C2          3.2080    9.5133   -0.2740 C.ar      1 <0>         0.1139
      4 C3          2.5098    9.4227    0.9268 C.ar      1 <0>        -0.1718
      5 C4          2.1447    8.1957    1.4358 C.ar      1 <0>        -0.0669
      6 C5          2.4737    7.0328    0.7506 C.ar      1 <0>         0.0231
      7 C6          3.1786    7.1220   -0.4609 C.ar      1 <0>        -0.0935
      8 C7          3.5440    8.3678   -0.9696 C.ar      1 <0>        -0.1073
      9 C8          3.3650    5.7369   -0.9097 C.2       1 <0>        -0.1623
     10 C9          2.7800    4.9627    0.0145 C.2       1 <0>         0.0143
     11 O2          2.2586    5.7230    0.9928 O.3       1 <0>        -0.1928
     12 C10         2.7209    3.4576   -0.0329 C.3       1 <0>        -0.0148
     13 H1          3.2214    3.1025   -0.9337 H         1 <0>         0.1279
     14 C11         1.2596    3.0049   -0.0492 C.3       1 <0>        -0.1592
     15 C12         0.6118    3.4445   -1.3369 C.2       1 <0>         0.4581
     16 O3          1.2783    3.9588   -2.2036 O.co2     1 <0>        -0.6301
     17 C13         3.4198    2.8808    1.1999 C.3       1 <0>        -0.0043
     18 H2          2.0965   11.9018    0.1063 H         1 <0>         0.0578
     19 H3          3.6359   11.8134    0.9955 H         1 <0>         0.0560
     20 H4          3.5232   12.7802   -0.4948 H         1 <0>         0.1030
     21 H5          2.2517   10.3230    1.4645 H         1 <0>         0.1422
     22 H6          1.6025    8.1377    2.3681 H         1 <0>         0.1366
     23 H7          4.0863    8.4368   -1.9010 H         1 <0>         0.1380
     24 H8          3.8705    5.4080   -1.8056 H         1 <0>         0.1625
     25 H9          0.7316    3.4507    0.7938 H         1 <0>         0.0815
     26 H10         1.2149    1.9185    0.0275 H         1 <0>         0.0864
     27 H11         2.9817    3.3109    2.1005 H         1 <0>         0.1351
     28 H12         3.2937    1.7982    1.2157 H         1 <0>         0.1455
     29 H13         5.3172    2.9240    1.9977 H         1 <0>         0.4353
     30 H14         5.2883    2.7886    0.3403 H         1 <0>         0.4364
     31 O4         -0.7056    3.2648   -1.5210 O.co2     1 <0>        -0.7526
     32 N1          4.8501    3.2315    1.1463 N.4       1 <0>        -0.6457
     33 H15         4.9448    4.2503    1.0614 H         1 <0>         0.4367
@<TRIPOS>BOND
     1    1    2 1
     2    1   18 1
     3    1   19 1
     4    1   20 1
     5    2    3 1
     6    3    8 ar
     7    3    4 ar
     8    4    5 ar
     9    4   21 1
    10    5    6 ar
    11    5   22 1
    12    6   11 1
    13    6    7 ar
    14    7    8 ar
    15    7    9 1
    16    8   23 1
    17    9   10 2
    18    9   24 1
    19   10   11 1
    20   10   12 1
    21   12   13 1
    22   12   14 1
    23   12   17 1
    24   14   15 1
    25   14   25 1
    26   14   26 1
    27   15   16 2
    28   15   31 1
    29   17   27 1
    30   17   28 1
    31   17   32 1
    32   29   32 1
    33   30   32 1
    34   32   33 1
@<TRIPOS>MOLECULE
ZINC19737048
   18    17     0     0     0
SMALL
USER_CHARGES

@<TRIPOS>ATOM
      1 C1         -0.0187    1.5258    0.0104 C.3       1 <0>        -0.1248
      2 C2          0.0021   -0.0041    0.0020 C.3       1 <0>        -0.0070
      3 N1         -1.3761   -0.5125    0.0124 N.4       1 <0>        -0.6363
      4 C3          1.4167    2.0553   -0.0004 C.3       1 <0>        -0.7325
      5 P1          1.3920    3.8782    0.0096 P.3       1 <0>         2.2545
      6 O1          0.5382    4.3881   -1.1728 O.2       1 <0>        -1.0898
      7 O2          0.7821    4.3776    1.3383 O.3       1 <0>        -1.0897
      8 O3          2.8954    4.4361   -0.1340 O.3       1 <0>        -0.9051
      9 H1         -0.5459    1.8868   -0.8726 H         1 <0>         0.0981
     10 H2         -0.5289    1.8773    0.9072 H         1 <0>         0.0953
     11 H3          0.5123   -0.3556   -0.8948 H         1 <0>         0.1261
     12 H4          0.5293   -0.3651    0.8851 H         1 <0>         0.1262
     13 H5         -1.8484   -0.1871    0.8426 H         1 <0>         0.4355
     14 H6         -1.8641   -0.1783   -0.8050 H         1 <0>         0.4355
     15 H7          1.9439    1.6943    0.8826 H         1 <0>         0.0823
     16 H8          1.9269    1.7038   -0.8972 H         1 <0>         0.0808
     17 H9          2.9583    5.4010   -0.1361 H         1 <0>         0.4197
     18 H10        -1.3624   -1.5214    0.0069 H         1 <0>         0.4310
@<TRIPOS>BOND
     1    1    2 1
     2    1    4 1
     3    1    9 1
     4    1   10 1
     5    2    3 1
     6    2   11 1
     7    2   12 1
     8    3   13 1
     9    3   14 1
    10    3   18 1
    11    4    5 1
    12    4   15 1
    13    4   16 1
    14    5    6 2
    15    5    7 1
    16    5    8 1
    17    8   17 1
@<TRIPOS>MOLECULE
ZINC06093177
   26    26     0     0     0
SMALL
USER_CHARGES
4-amino-3-(4-fluorophenyl)-butanoic acid
@<TRIPOS>ATOM
      1 C1         -2.2352   -0.4157    1.3904 C.ar      1 <0>        -0.0859
      2 C2         -3.4923   -0.9851    1.4633 C.ar      1 <0>        -0.1475
      3 C3         -4.6175   -0.1784    1.4740 C.ar      1 <0>         0.1059
      4 C4         -4.4816    1.1983    1.4179 C.ar      1 <0>        -0.1489
      5 C5         -3.2232    1.7657    1.3512 C.ar      1 <0>        -0.0881
      6 C6         -2.1005    0.9593    1.3401 C.ar      1 <0>        -0.1278
      7 C7         -0.7288    1.5792    1.2668 C.3       1 <0>        -0.0476
      8 H1         -0.8222    2.6646    1.2299 H         1 <0>         0.1048
      9 C8          0.0786    1.1786    2.5031 C.3       1 <0>        -0.1521
     10 C9          1.4040    1.8956    2.4915 C.2       1 <0>         0.4571
     11 O1          1.6750    2.6498    1.5872 O.co2     1 <0>        -0.6486
     12 C10        -0.0127    1.0858    0.0080 C.3       1 <0>        -0.0039
     13 F1         -5.8472   -0.7343    1.5388 F         1 <0>        -0.1345
     14 H2         -1.3575   -1.0449    1.3769 H         1 <0>         0.1377
     15 H3         -3.5971   -2.0591    1.5074 H         1 <0>         0.1406
     16 H4         -5.3586    1.8285    1.4258 H         1 <0>         0.1404
     17 H5         -3.1170    2.8396    1.3074 H         1 <0>         0.1379
     18 H6         -0.4741    1.4512    3.4021 H         1 <0>         0.0864
     19 H7          0.2479    0.1019    2.4932 H         1 <0>         0.0773
     20 H8          0.0021   -0.0041    0.0020 H         1 <0>         0.1207
     21 H9          1.0099    1.4631    0.0003 H         1 <0>         0.1655
     22 H10        -0.8068    2.5779   -1.1674 H         1 <0>         0.4361
     23 H11        -0.2694    1.2597   -2.0273 H         1 <0>         0.4337
     24 O2          2.2835    1.6966    3.4858 O.co2     1 <0>        -0.7440
     25 N1         -0.7456    1.5611   -1.1787 N.4       1 <0>        -0.6421
     26 H12        -1.6942    1.1683   -1.1693 H         1 <0>         0.4267
@<TRIPOS>BOND
     1    1    6 ar
     2    1    2 ar
     3    1   14 1
     4    2    3 ar
     5    2   15 1
     6    3    4 ar
     7    3   13 1
     8    4    5 ar
     9    4   16 1
    10    5    6 ar
    11    5   17 1
    12    6    7 1
    13    7    8 1
    14    7    9 1
    15    7   12 1
    16    9   10 1
    17    9   18 1
    18    9   19 1
    19   10   11 2
    20   10   24 1
    21   12   20 1
    22   12   21 1
    23   12   25 1
    24   22   25 1
    25   23   25 1
    26   25   26 1
@<TRIPOS>MOLECULE
ZINC00000061
   26    26     0     0     0
SMALL
USER_CHARGES

@<TRIPOS>ATOM
      1 C1         -0.0167    1.3782    0.0096 C.ar      1 <0>        -0.1063
      2 C2          1.1706    2.0858    0.0021 C.ar      1 <0>        -0.1054
      3 C3          2.3780    1.4104   -0.0130 C.ar      1 <0>        -0.0330
      4 C4          2.3961    0.0270   -0.0206 C.ar      1 <0>        -0.1045
      5 C5          1.2082   -0.6795   -0.0130 C.ar      1 <0>        -0.1032
      6 C6          0.0021   -0.0041    0.0020 C.ar      1 <0>        -0.1110
      7 C7         -1.2928   -0.7750    0.0107 C.3       1 <0>        -0.0437
      8 H1         -2.1306   -0.0778    0.0227 H         1 <0>         0.1039
      9 C8         -1.3745   -1.6489   -1.2425 C.3       1 <0>        -0.1780
     10 C9         -2.7200   -2.3254   -1.2963 C.2       1 <0>         0.4888
     11 O1         -3.5378   -2.1270   -0.4141 O.co2     1 <0>        -0.7038
     12 O2         -2.9907   -3.0712   -2.2221 O.co2     1 <0>        -0.6758
     13 C10        -1.3498   -1.6623    1.2558 C.3       1 <0>        -0.0077
     14 N1         -1.3920   -0.8180    2.4572 N.4       1 <0>        -0.6337
     15 Cl1         3.8696    2.2984   -0.0231 Cl        1 <0>        -0.0609
     16 H2         -0.9592    1.9053    0.0259 H         1 <0>         0.1367
     17 H3          1.1558    3.1656    0.0076 H         1 <0>         0.1377
     18 H4          3.3383   -0.5007   -0.0327 H         1 <0>         0.1377
     19 H5          1.2222   -1.7594   -0.0193 H         1 <0>         0.1361
     20 H6         -1.2448   -1.0269   -2.1282 H         1 <0>         0.0796
     21 H7         -0.5891   -2.4040   -1.2107 H         1 <0>         0.0708
     22 H8         -2.2436   -2.2849    1.2177 H         1 <0>         0.1675
     23 H9         -0.4651   -2.2982    1.2896 H         1 <0>         0.1201
     24 H10        -0.5646   -0.2416    2.4925 H         1 <0>         0.4220
     25 H11        -2.2109   -0.2293    2.4260 H         1 <0>         0.4347
     26 H12        -1.4296   -1.4032    3.2784 H         1 <0>         0.4314
@<TRIPOS>BOND
     1    1    6 ar
     2    1    2 ar
     3    1   16 1
     4    2    3 ar
     5    2   17 1
     6    3    4 ar
     7    3   15 1
     8    4    5 ar
     9    4   18 1
    10    5    6 ar
    11    5   19 1
    12    6    7 1
    13    7    8 1
    14    7    9 1
    15    7   13 1
    16    9   10 1
    17    9   20 1
    18    9   21 1
    19   10   11 2
    20   10   12 1
    21   13   14 1
    22   13   22 1
    23   13   23 1
    24   14   24 1
    25   14   25 1
    26   14   26 1
@<TRIPOS>MOLECULE
ZINC13823768
   23    23     0     0     0
SMALL
USER_CHARGES
(3R)-4-amino-3-(5-bromo-2-thienyl)butanoic acid
@<TRIPOS>ATOM
      1 C1          0.1735   -1.1938   -2.2879 C.2       1 <0>        -0.1448
      2 C2          0.7300   -1.2973   -3.5493 C.2       1 <0>        -0.1149
      3 C3          1.8002   -0.5245   -3.8608 C.2       1 <0>        -0.1697
      4 S1          2.0462    0.3921   -2.3487 S.3       1 <0>         0.1133
      5 C4          0.7136   -0.3236   -1.4005 C.2       1 <0>        -0.1742
      6 C5          0.2940   -0.0312    0.0171 C.3       1 <0>        -0.0066
      7 H1         -0.5662   -0.6485    0.2761 H         1 <0>         0.1226
      8 C6         -0.0821    1.4465    0.1431 C.3       1 <0>        -0.1555
      9 C7         -0.6527    1.7045    1.5138 C.2       1 <0>         0.4589
     10 O1         -0.8531    0.7822    2.2682 O.co2     1 <0>        -0.6468
     11 C8          1.4517   -0.3455    0.9668 C.3       1 <0>        -0.0004
     12 Br1         2.7738   -0.4351   -5.4794 Br        1 <0>         0.0493
     13 H2         -0.6793   -1.7973   -2.0140 H         1 <0>         0.1469
     14 H3          0.3186   -1.9827   -4.2755 H         1 <0>         0.1465
     15 H4          0.8062    2.0612   -0.0023 H         1 <0>         0.0790
     16 H5         -0.8257    1.6979   -0.6132 H         1 <0>         0.0901
     17 H6          2.3406    0.1994    0.6489 H         1 <0>         0.1232
     18 H7          1.1832   -0.0439    1.9792 H         1 <0>         0.1648
     19 H8          2.5389   -2.0109    1.4988 H         1 <0>         0.4355
     20 H9          0.9230   -2.3151    1.2490 H         1 <0>         0.4384
     21 O2         -0.9382    2.9589    1.8967 O.co2     1 <0>        -0.7411
     22 N1          1.7315   -1.7914    0.9177 N.4       1 <0>        -0.6424
     23 H10         1.9326   -2.0636   -0.0517 H         1 <0>         0.4278
@<TRIPOS>BOND
     1    1    5 2
     2    1    2 1
     3    1   13 1
     4    2    3 2
     5    2   14 1
     6    3    4 1
     7    3   12 1
     8    4    5 1
     9    5    6 1
    10    6    7 1
    11    6    8 1
    12    6   11 1
    13    8    9 1
    14    8   15 1
    15    8   16 1
    16    9   10 2
    17    9   21 1
    18   11   17 1
    19   11   18 1
    20   11   22 1
    21   19   22 1
    22   20   22 1
    23   22   23 1
@<TRIPOS>MOLECULE
ZINC13823770
   23    23     0     0     0
SMALL
USER_CHARGES
(3S)-4-amino-3-(5-bromo-2-thienyl)butanoic acid
@<TRIPOS>ATOM
      1 C1         -0.8657    4.0909    0.0323 C.2       1 <0>        -0.1450
      2 C2         -1.0886    2.7265    0.0211 C.2       1 <0>        -0.1148
      3 C3         -0.0236    1.8867    0.0124 C.2       1 <0>        -0.1696
      4 S1          1.3478    3.0298    0.0055 S.3       1 <0>         0.1123
      5 C4          0.4098    4.5487    0.0226 C.2       1 <0>        -0.1736
      6 C5          0.9075    5.9712    0.0251 C.3       1 <0>        -0.0050
      7 H1          0.0575    6.6534    0.0365 H         1 <0>         0.1201
      8 C6          1.7684    6.2081    1.2674 C.3       1 <0>        -0.1556
      9 C7          2.1646    7.6606    1.3345 C.2       1 <0>         0.4600
     10 O1          1.7961    8.4275    0.4766 O.co2     1 <0>        -0.6474
     11 C8          1.7448    6.2207   -1.2309 C.3       1 <0>        -0.0046
     12 Br1         0.0021   -0.0041    0.0020 Br        1 <0>         0.0492
     13 H2         -1.6958    4.7817    0.0436 H         1 <0>         0.1466
     14 H3         -2.0953    2.3353    0.0229 H         1 <0>         0.1464
     15 H4          1.1996    5.9451    2.1593 H         1 <0>         0.0902
     16 H5          2.6641    5.5894    1.2122 H         1 <0>         0.0793
     17 H6          2.1778    7.2201   -1.1863 H         1 <0>         0.1718
     18 H7          2.5434    5.4810   -1.2881 H         1 <0>         0.1214
     19 H8          0.1042    6.7417   -2.3603 H         1 <0>         0.4374
     20 H9          1.4193    6.2713   -3.2631 H         1 <0>         0.4357
     21 O2          2.9268    8.1023    2.3473 O.co2     1 <0>        -0.7395
     22 N1          0.8819    6.0863   -2.4178 N.4       1 <0>        -0.6420
     23 H10         0.5114    5.1296   -2.4590 H         1 <0>         0.4266
@<TRIPOS>BOND
     1    1    5 2
     2    1    2 1
     3    1   13 1
     4    2    3 2
     5    2   14 1
     6    3    4 1
     7    3   12 1
     8    4    5 1
     9    5    6 1
    10    6    7 1
    11    6    8 1
    12    6   11 1
    13    8    9 1
    14    8   15 1
    15    8   16 1
    16    9   10 2
    17    9   21 1
    18   11   17 1
    19   11   18 1
    20   11   22 1
    21   19   22 1
    22   20   22 1
    23   22   23 1
@<TRIPOS>MOLECULE
ZINC06093614
   23    23     0     0     0
SMALL
USER_CHARGES
(3S)-4-amino-3-(2-thienyl)butanoic acid
@<TRIPOS>ATOM
      1 C1          1.0286    1.9437    0.0027 C.2       1 <0>        -0.1636
      2 C2          0.7697    3.3014    0.0117 C.2       1 <0>        -0.1434
      3 C3         -0.5179    3.7249    0.0255 C.2       1 <0>        -0.1873
      4 S1         -1.4145    2.1811    0.0194 S.3       1 <0>         0.0498
      5 C4         -0.0126    1.0758    0.0080 C.2       1 <0>        -0.1594
      6 C5         -1.0536    5.1335    0.0373 C.3       1 <0>        -0.0027
      7 H1         -0.2222    5.8384    0.0332 H         1 <0>         0.1158
      8 C6         -1.9204    5.3598   -1.2030 C.3       1 <0>        -0.1543
      9 C7         -2.3554    6.8017   -1.2554 C.2       1 <0>         0.4594
     10 O1         -2.0078    7.5695   -0.3896 O.co2     1 <0>        -0.6480
     11 C8         -1.8975    5.3476    1.2954 C.3       1 <0>        -0.0038
     12 H2          2.0454    1.5797   -0.0088 H         1 <0>         0.1383
     13 H3          1.5810    4.0142    0.0081 H         1 <0>         0.1373
     14 H4          0.0021   -0.0041    0.0020 H         1 <0>         0.1892
     15 H5         -1.3445    5.1213   -2.0972 H         1 <0>         0.0885
     16 H6         -2.7991    4.7167   -1.1544 H         1 <0>         0.0786
     17 H7         -2.3572    6.3354    1.2608 H         1 <0>         0.1694
     18 H8         -2.6759    4.5862    1.3447 H         1 <0>         0.1208
     19 H9         -0.2717    5.9009    2.4307 H         1 <0>         0.4365
     20 H10        -1.5738    5.3862    3.3282 H         1 <0>         0.4345
     21 O2         -3.1291    7.2331   -2.2639 O.co2     1 <0>        -0.7413
     22 N1         -1.0315    5.2243    2.4812 N.4       1 <0>        -0.6412
     23 H11        -0.6354    4.2775    2.5129 H         1 <0>         0.4270
@<TRIPOS>BOND
     1    1    5 2
     2    1    2 1
     3    1   12 1
     4    2    3 2
     5    2   13 1
     6    3    4 1
     7    3    6 1
     8    4    5 1
     9    5   14 1
    10    6    7 1
    11    6    8 1
    12    6   11 1
    13    8    9 1
    14    8   15 1
    15    8   16 1
    16    9   10 2
    17    9   21 1
    18   11   17 1
    19   11   18 1
    20   11   22 1
    21   19   22 1
    22   20   22 1
    23   22   23 1
@<TRIPOS>MOLECULE
ZINC06093626
   23    23     0     0     0
SMALL
USER_CHARGES
(3R)-4-amino-3-(2-thienyl)butanoic acid
@<TRIPOS>ATOM
      1 C1          0.0737    5.4688    1.1244 C.2       1 <0>        -0.1554
      2 C2          0.0683    4.1315    1.4740 C.2       1 <0>        -0.1125
      3 C3         -0.6466    3.2586    0.7228 C.2       1 <0>        -0.1339
      4 S1         -1.3389    4.3284   -0.5277 S.3       1 <0>         0.0183
      5 C4         -0.6360    5.8679    0.0407 C.2       1 <0>        -0.1653
      6 C5         -0.8095    1.7704    0.8947 C.3       1 <0>        -0.0084
      7 H1         -0.2410    1.4407    1.7643 H         1 <0>         0.1142
      8 C6         -0.2928    1.0532   -0.3542 C.3       1 <0>        -0.1719
      9 C7          1.1960    1.2561   -0.4701 C.2       1 <0>         0.4575
     10 O1          1.7800    1.9260    0.3484 O.co2     1 <0>        -0.6192
     11 C8         -2.2894    1.4393    1.0973 C.3       1 <0>        -0.0030
     12 H2          0.6347    6.1851    1.7063 H         1 <0>         0.1350
     13 H3          0.6250    3.7873    2.3330 H         1 <0>         0.1341
     14 H4         -0.7448    6.8593   -0.3737 H         1 <0>         0.1859
     15 H5         -0.7849    1.4610   -1.2371 H         1 <0>         0.0829
     16 H6         -0.5093   -0.0123   -0.2770 H         1 <0>         0.0632
     17 H7         -2.6815    2.0228    1.9303 H         1 <0>         0.1377
     18 H8         -2.8436    1.6824    0.1907 H         1 <0>         0.1309
     19 H9         -2.0145   -0.2243    2.2785 H         1 <0>         0.4362
     20 H10        -3.4050   -0.2698    1.3673 H         1 <0>         0.4353
     21 O2          1.8733    0.6926   -1.4828 O.co2     1 <0>        -0.7555
     22 N1         -2.4221   -0.0024    1.3717 N.4       1 <0>        -0.6454
     23 H11        -1.9277   -0.5315    0.6437 H         1 <0>         0.4393
@<TRIPOS>BOND
     1    1    5 2
     2    1    2 1
     3    1   12 1
     4    2    3 2
     5    2   13 1
     6    3    4 1
     7    3    6 1
     8    4    5 1
     9    5   14 1
    10    6    7 1
    11    6    8 1
    12    6   11 1
    13    8    9 1
    14    8   15 1
    15    8   16 1
    16    9   10 2
    17    9   21 1
    18   11   17 1
    19   11   18 1
    20   11   22 1
    21   19   22 1
    22   20   22 1
    23   22   23 1
@<TRIPOS>MOLECULE
ZINC05410694
   16    15     0     0     0
SMALL
USER_CHARGES
3-aminopropane-1-sulfinic acid
@<TRIPOS>ATOM
      1 C1         -0.8218    3.4593    1.7617 C.3       1 <0>        -0.1113
      2 C2         -1.4317    3.8138    3.1193 C.3       1 <0>        -0.0074
      3 C3         -0.7417    1.9380    1.6201 C.3       1 <0>        -0.5436
      4 S1         -0.0186    1.5178    0.0104 S.o       1 <0>         1.4553
      5 O1          1.3554    1.8803   -0.0008 O.2       1 <0>        -1.0017
      6 H1          0.1796    3.8840    1.6912 H         1 <0>         0.0790
      7 H2         -1.4457    3.8660    0.9658 H         1 <0>         0.0871
      8 H3         -2.4331    3.3891    3.1898 H         1 <0>         0.1263
      9 H4         -0.8078    3.4071    3.9152 H         1 <0>         0.1241
     10 H5         -1.9084    5.5343    4.1445 H         1 <0>         0.4303
     11 H6         -0.6013    5.6976    3.1292 H         1 <0>         0.4346
     12 H7         -1.7431    1.5133    1.6905 H         1 <0>         0.0838
     13 H8         -0.1178    1.5314    2.4160 H         1 <0>         0.0580
     14 N1         -1.5242    5.2798    3.2360 N.4       1 <0>        -0.6469
     15 H9         -2.1419    5.6388    2.4986 H         1 <0>         0.4363
     16 O2          0.0021   -0.0041    0.0020 O.3       1 <0>        -1.0040
@<TRIPOS>BOND
     1    1    2 1
     2    1    3 1
     3    1    6 1
     4    1    7 1
     5    2    8 1
     6    2    9 1
     7    2   14 1
     8    3    4 1
     9    3   12 1
    10    3   13 1
    11    4    5 2
    12    4   16 1
    13   10   14 1
    14   11   14 1
    15   14   15 1
@<TRIPOS>MOLECULE
ZINC29226409
   17    16     0     0     0
SMALL
USER_CHARGES
3-aminopropane-1-sulfinic acid
@<TRIPOS>ATOM
      1 C1         -0.8218    3.4593    1.7617 C.3       1 <0>        -0.1255
      2 C2         -1.4317    3.8138    3.1193 C.3       1 <0>         0.0012
      3 N1         -1.5086    5.2744    3.2553 N.4       1 <0>        -0.6882
      4 C3         -0.7417    1.9380    1.6201 C.3       1 <0>        -0.5058
      5 S1         -0.0186    1.5178    0.0104 S.o       1 <0>         1.5485
      6 O1          1.3554    1.8803   -0.0008 O.2       1 <0>        -0.8967
      7 O2          0.0021   -0.0041    0.0020 O.3       1 <0>        -0.8590
      8 H1         -1.4515    3.8696    0.9585 H         1 <0>         0.0996
      9 H2          0.1888    3.8879    1.6906 H         1 <0>         0.0891
     10 H3         -2.4423    3.3853    3.1904 H         1 <0>         0.1311
     11 H4         -0.8021    3.4034    3.9225 H         1 <0>         0.1254
     12 H5         -1.9471    5.5292    4.2314 H         1 <0>         0.4602
     13 H6         -2.1383    5.6848    2.4521 H         1 <0>         0.4566
     14 H7         -0.1120    1.5277    2.4233 H         1 <0>         0.0927
     15 H8         -1.7523    1.5094    1.6912 H         1 <0>         0.1231
     16 H9          0.3977   -0.5440   -0.8709 H         1 <0>         0.4908
     17 H10        -0.4980    5.7030    3.1842 H         1 <0>         0.4569
@<TRIPOS>BOND
     1    1    2 1
     2    1    4 1
     3    1    8 1
     4    1    9 1
     5    2    3 1
     6    2   10 1
     7    2   11 1
     8    3   12 1
     9    3   13 1
    10    3   17 1
    11    4    5 1
    12    4   14 1
    13    4   15 1
    14    5    6 2
    15    5    7 1
    16    7   16 1
@<TRIPOS>MOLECULE
ZINC13742894
   23    22     0     0     0
SMALL
USER_CHARGES
3-aminopropyl-ethyl-phosphinic acid
@<TRIPOS>ATOM
      1 C1         -0.1083    0.8241    5.4700 C.3       1 <0>        -0.1296
      2 C2         -0.7809    1.4368    4.2399 C.3       1 <0>        -0.7483
      3 P1          0.1529    0.9753    2.7437 P.3       1 <0>         2.3294
      4 O1          0.2785   -0.4977    2.6753 O.2       1 <0>        -1.0604
      5 C3         -0.7288    1.5792    1.2668 C.3       1 <0>        -0.7473
      6 C4         -0.0127    1.0858    0.0080 C.3       1 <0>        -0.1257
      7 C5         -0.7527    1.5927   -1.2315 C.3       1 <0>        -0.0019
      8 N1         -0.0651    1.1189   -2.4401 N.4       1 <0>        -0.6850
      9 O2          1.6195    1.6370    2.8011 O.3       1 <0>        -1.0888
     10 H1         -0.6717    1.1025    6.3728 H         1 <0>         0.0374
     11 H2          0.9221    1.2006    5.5502 H         1 <0>         0.0675
     12 H3         -0.0918   -0.2713    5.3714 H         1 <0>         0.0674
     13 H4         -1.8113    1.0603    4.1597 H         1 <0>         0.0636
     14 H5         -0.7975    2.5322    4.3385 H         1 <0>         0.0681
     15 H6         -1.7608    1.1985    1.2746 H         1 <0>         0.0772
     16 H7         -0.7437    2.6791    1.2728 H         1 <0>         0.0809
     17 H8          1.0193    1.4665    0.0002 H         1 <0>         0.0972
     18 H9          0.0022   -0.0141    0.0019 H         1 <0>         0.0976
     19 H10        -1.7847    1.2120   -1.2237 H         1 <0>         0.1189
     20 H11        -0.7676    2.6926   -1.2254 H         1 <0>         0.1198
     21 H12        -0.5971    1.4833   -3.3313 H         1 <0>         0.4495
     22 H13        -0.0502    0.0190   -2.4461 H         1 <0>         0.4559
     23 H14         0.9669    1.4996   -2.4479 H         1 <0>         0.4565
@<TRIPOS>BOND
     1    1    2 1
     2    1   10 1
     3    1   11 1
     4    1   12 1
     5    2    3 1
     6    2   13 1
     7    2   14 1
     8    3    4 2
     9    3    5 1
    10    3    9 1
    11    5    6 1
    12    5   15 1
    13    5   16 1
    14    6    7 1
    15    6   17 1
    16    6   18 1
    17    7    8 1
    18    7   19 1
    19    7   20 1
    20    8   21 1
    21    8   22 1
    22    8   23 1
@<TRIPOS>MOLECULE
ZINC13742895
   23    22     0     0     0
SMALL
USER_CHARGES
3-aminopropyl-ethyl-phosphinic acid
@<TRIPOS>ATOM
      1 C1          1.6378    1.6745   -2.7393 C.3       1 <0>        -0.1296
      2 C2          2.3483    1.1201   -1.5029 C.3       1 <0>        -0.7483
      3 P1          1.4507    1.6376   -0.0030 P.3       1 <0>         2.3293
      4 O1          1.3138    3.1113    0.0062 O.2       1 <0>        -1.0604
      5 C3          2.3767    1.1041    1.4739 C.3       1 <0>        -0.7473
      6 C4          1.6900    1.6452    2.7295 C.3       1 <0>        -0.1257
      7 C5          2.4672    1.1974    3.9690 C.3       1 <0>        -0.0020
      8 N1          1.8079    1.7170    5.1745 N.4       1 <0>        -0.6850
      9 O2         -0.0110    0.9628    0.0073 O.3       1 <0>        -1.0888
     10 H1          2.1795    1.3622   -3.6443 H         1 <0>         0.0374
     11 H2          1.6141    2.7730   -2.6868 H         1 <0>         0.0674
     12 H3          0.6090    1.2869   -2.7756 H         1 <0>         0.0675
     13 H4          2.3720    0.0216   -1.5554 H         1 <0>         0.0681
     14 H5          3.3771    1.5077   -1.4666 H         1 <0>         0.0636
     15 H6          2.4012    0.0051    1.5141 H         1 <0>         0.0809
     16 H7          3.4047    1.4921    1.4221 H         1 <0>         0.0772
     17 H8          1.6655    2.7442    2.6893 H         1 <0>         0.0976
     18 H9          0.6620    1.2572    2.7813 H         1 <0>         0.0972
     19 H10         2.4916    0.0984    4.0092 H         1 <0>         0.1198
     20 H11         3.4952    1.5853    3.9172 H         1 <0>         0.1189
     21 H12         2.3667    1.3951    6.0656 H         1 <0>         0.4495
     22 H13         0.7799    1.3290    5.2263 H         1 <0>         0.4565
     23 H14         1.7835    2.8160    5.1342 H         1 <0>         0.4559
@<TRIPOS>BOND
     1    1    2 1
     2    1   10 1
     3    1   11 1
     4    1   12 1
     5    2    3 1
     6    2   13 1
     7    2   14 1
     8    3    4 2
     9    3    5 1
    10    3    9 1
    11    5    6 1
    12    5   15 1
    13    5   16 1
    14    6    7 1
    15    6   17 1
    16    6   18 1
    17    7    8 1
    18    7   19 1
    19    7   20 1
    20    8   21 1
    21    8   22 1
    22    8   23 1
@<TRIPOS>MOLECULE
ZINC04202508
   20    20     0     0     0
SMALL
USER_CHARGES
2-[(3S)-pyrrolidin-3-yl]acetic acid
@<TRIPOS>ATOM
      1 C1         -2.2568    1.4955    0.7652 C.3       1 <0>        -0.1473
      2 C2         -2.1615    1.8471   -0.7344 C.3       1 <0>        -0.0079
      3 C3         -0.0127    1.0858    0.0080 C.3       1 <0>        -0.0039
      4 C4         -0.7832    1.6079    1.2463 C.3       1 <0>        -0.0808
      5 H1         -0.5204    2.6436    1.4615 H         1 <0>         0.1040
      6 C5         -0.5317    0.7166    2.4642 C.3       1 <0>        -0.1552
      7 C6          0.9130    0.8277    2.8784 C.2       1 <0>         0.4547
      8 O1          1.6644    1.5461    2.2626 O.co2     1 <0>        -0.6455
      9 H2         -2.8890    2.2121    1.2896 H         1 <0>         0.1064
     10 H3         -2.6296    0.4801    0.9000 H         1 <0>         0.0954
     11 H4         -2.4111    2.8973   -0.8856 H         1 <0>         0.1261
     12 H5         -2.8412    1.2181   -1.3092 H         1 <0>         0.1259
     13 H6          0.0021   -0.0041    0.0020 H         1 <0>         0.1254
     14 H7          1.0041    1.4784    0.0004 H         1 <0>         0.1511
     15 H8         -1.1712    1.0365    3.2869 H         1 <0>         0.0848
     16 H9         -0.7581   -0.3188    2.2096 H         1 <0>         0.0749
     17 N1         -0.7727    1.5957   -1.1484 N.4       1 <0>        -0.5174
     18 H10        -0.3489    2.4699   -1.4807 H         1 <0>         0.4314
     19 H11        -0.7590    0.9000   -1.9034 H         1 <0>         0.4285
     20 O2          1.3650    0.1286    3.9313 O.co2     1 <0>        -0.7506
@<TRIPOS>BOND
     1    1    4 1
     2    1    2 1
     3    1    9 1
     4    1   10 1
     5    2   11 1
     6    2   12 1
     7    2   17 1
     8    3    4 1
     9    3   13 1
    10    3   14 1
    11    3   17 1
    12    4    5 1
    13    4    6 1
    14    6    7 1
    15    6   15 1
    16    6   16 1
    17    7    8 2
    18    7   20 1
    19   17   18 1
    20   17   19 1
@<TRIPOS>MOLECULE
ZINC29330916
   34    33     0     0     0
SMALL
USER_CHARGES

@<TRIPOS>ATOM
      1 C1         -0.4686    1.7653    1.8778 C.3       1 <0>        -0.1496
      2 C2         -0.2311    0.2911    2.2116 C.3       1 <0>         0.0471
      3 O1          0.4015   -0.3522    1.1034 O.3       1 <0>        -0.3807
      4 C3          0.7684   -1.7108    1.3521 C.3       1 <0>        -0.3292
      5 O2         -0.3892   -2.5427    1.2525 O.3       1 <0>        -0.3801
      6 C4         -1.1035   -2.3999    0.0232 C.3       1 <0>         0.0256
      7 C5         -2.3837   -3.2360    0.0771 C.3       1 <0>        -0.1478
      8 P1          2.0054   -2.2409    0.1225 P.3       1 <0>         2.3076
      9 O3          1.4056   -2.1209   -1.2962 O.2       1 <0>        -1.0474
     10 C6          3.4822   -1.1796    0.2496 C.3       1 <0>        -0.7417
     11 C7          4.4684   -1.5426   -0.8624 C.3       1 <0>        -0.1260
     12 C8          5.7077   -0.6518   -0.7557 C.3       1 <0>        -0.0082
     13 N1          6.6546   -1.0003   -1.8234 N.4       1 <0>        -0.6369
     14 O4          2.4022   -3.7097    0.3914 O.3       1 <0>        -1.0500
     15 H1         -1.1099    1.8403    0.9996 H         1 <0>         0.0652
     16 H2         -0.9511    2.2560    2.7230 H         1 <0>         0.0682
     17 H3          0.4861    2.2498    1.6730 H         1 <0>         0.0575
     18 H4          0.4102    0.2161    3.0898 H         1 <0>         0.0394
     19 H5         -1.1858   -0.1934    2.4164 H         1 <0>         0.0506
     20 H6          1.1916   -1.7954    2.3531 H         1 <0>         0.0788
     21 H7         -1.3605   -1.3514   -0.1280 H         1 <0>         0.0481
     22 H8         -0.4795   -2.7436   -0.8018 H         1 <0>         0.1061
     23 H9         -3.0077   -2.8923    0.9020 H         1 <0>         0.0480
     24 H10        -2.9286   -3.1271   -0.8606 H         1 <0>         0.0698
     25 H11        -2.1267   -4.2845    0.2283 H         1 <0>         0.0624
     26 H12         3.1886   -0.1348    0.1481 H         1 <0>         0.0885
     27 H13         3.9562   -1.3312    1.2194 H         1 <0>         0.0812
     28 H14         4.7620   -2.5874   -0.7609 H         1 <0>         0.0970
     29 H15         3.9943   -1.3910   -1.8322 H         1 <0>         0.1016
     30 H16         5.4141    0.3930   -0.8573 H         1 <0>         0.1266
     31 H17         6.1818   -0.8034    0.2140 H         1 <0>         0.1260
     32 H18         6.9264   -1.9675   -1.7295 H         1 <0>         0.4356
     33 H19         6.2158   -0.8600   -2.7211 H         1 <0>         0.4358
     34 H20         7.4719   -0.4129   -1.7531 H         1 <0>         0.4308
@<TRIPOS>BOND
     1    1    2 1
     2    1   15 1
     3    1   16 1
     4    1   17 1
     5    2    3 1
     6    2   18 1
     7    2   19 1
     8    3    4 1
     9    4    5 1
    10    4    8 1
    11    4   20 1
    12    5    6 1
    13    6    7 1
    14    6   21 1
    15    6   22 1
    16    7   23 1
    17    7   24 1
    18    7   25 1
    19    8    9 2
    20    8   10 1
    21    8   14 1
    22   10   11 1
    23   10   26 1
    24   10   27 1
    25   11   12 1
    26   11   28 1
    27   11   29 1
    28   12   13 1
    29   12   30 1
    30   12   31 1
    31   13   32 1
    32   13   33 1
    33   13   34 1
@<TRIPOS>MOLECULE
ZINC00085733
   26    26     0     0     0
SMALL
USER_CHARGES

@<TRIPOS>ATOM
      1 C1          0.3887    1.1565   -0.0609 C.ar      1 <0>        -0.0595
      2 C2          1.6839    1.6378   -0.0938 C.ar      1 <0>        -0.1110
      3 C3          2.7493    0.7554   -0.1109 C.ar      1 <0>        -0.0309
      4 C4          2.5175   -0.6085   -0.0949 C.ar      1 <0>        -0.1136
      5 C5          1.2219   -1.0886   -0.0620 C.ar      1 <0>        -0.1087
      6 C6          0.1577   -0.2064   -0.0450 C.ar      1 <0>        -0.0598
      7 C7         -1.2547   -0.7306   -0.0087 C.3       1 <0>        -0.0514
      8 H1         -1.9528    0.1065    0.0008 H         1 <0>         0.1066
      9 C8         -1.4532   -1.5744    1.2520 C.3       1 <0>        -0.1972
     10 C9         -1.3492   -0.6917    2.4690 C.2       1 <0>         0.4894
     11 O1         -1.2462    0.5162    2.3389 O.co2     1 <0>        -0.6798
     12 O2         -1.3679   -1.1853    3.5836 O.co2     1 <0>        -0.6877
     13 C10        -1.5104   -1.5939   -1.2457 C.3       1 <0>        -0.0074
     14 N1         -2.9125   -2.0318   -1.2560 N.4       1 <0>        -0.6357
     15 Cl1         4.3764    1.3592   -0.1528 Cl        1 <0>        -0.0716
     16 H2         -0.4430    1.8453   -0.0431 H         1 <0>         0.1347
     17 H3          1.8642    2.7026   -0.1066 H         1 <0>         0.1339
     18 H4          3.3488   -1.2978   -0.1086 H         1 <0>         0.1322
     19 H5          1.0408   -2.1533   -0.0499 H         1 <0>         0.1253
     20 H6         -2.4377   -2.0417    1.2252 H         1 <0>         0.0536
     21 H7         -0.6855   -2.3469    1.2968 H         1 <0>         0.0745
     22 H8         -1.3050   -1.0115   -2.1439 H         1 <0>         0.1323
     23 H9         -0.8574   -2.4663   -1.2212 H         1 <0>         0.1305
     24 H10        -3.0771   -2.6515   -0.4769 H         1 <0>         0.4349
     25 H11        -3.5167   -1.2273   -1.1793 H         1 <0>         0.4347
     26 H12        -3.1069   -2.5174   -2.1188 H         1 <0>         0.4314
@<TRIPOS>BOND
     1    1    6 ar
     2    1    2 ar
     3    1   16 1
     4    2    3 ar
     5    2   17 1
     6    3    4 ar
     7    3   15 1
     8    4    5 ar
     9    4   18 1
    10    5    6 ar
    11    5   19 1
    12    6    7 1
    13    7    8 1
    14    7    9 1
    15    7   13 1
    16    9   10 1
    17    9   20 1
    18    9   21 1
    19   10   11 2
    20   10   12 1
    21   13   14 1
    22   13   22 1
    23   13   23 1
    24   14   24 1
    25   14   25 1
    26   14   26 1
@<TRIPOS>MOLECULE
ZINC13823784
   26    26     0     0     0
SMALL
USER_CHARGES
(3S)-4-amino-3-(2-chlorophenyl)butanoic acid
@<TRIPOS>ATOM
      1 C1         -0.5615    1.6339    0.0886 C.ar      1 <0>        -0.1072
      2 C2         -1.6002    2.5443    0.1522 C.ar      1 <0>        -0.1009
      3 C3         -1.3310    3.8995    0.1774 C.ar      1 <0>        -0.1040
      4 C4         -0.0221    4.3456    0.1275 C.ar      1 <0>        -0.0408
      5 C5          1.0164    3.4345    0.0581 C.ar      1 <0>        -0.1079
      6 C6          0.7461    2.0789    0.0387 C.ar      1 <0>        -0.1047
      7 C7          2.4422    3.9195    0.0032 C.3       1 <0>        -0.0615
      8 H1          2.4565    5.0091    0.0283 H         1 <0>         0.1153
      9 C8          3.0979    3.4304   -1.2897 C.3       1 <0>        -0.1483
     10 C9          4.4674    4.0453   -1.4223 C.2       1 <0>         0.4572
     11 O1          4.8330    4.8821   -0.6311 O.co2     1 <0>        -0.6455
     12 C10         3.2139    3.3716    1.2053 C.3       1 <0>         0.0022
     13 Cl1         0.3166    6.0481    0.1525 Cl        1 <0>        -0.0556
     14 H2         -0.7722    0.5748    0.0734 H         1 <0>         0.1347
     15 H3         -2.6219    2.1961    0.1866 H         1 <0>         0.1366
     16 H4         -2.1422    4.6104    0.2319 H         1 <0>         0.1382
     17 H5          1.5569    1.3675   -0.0151 H         1 <0>         0.1374
     18 H6          3.1882    2.3445   -1.2631 H         1 <0>         0.0767
     19 H7          2.4842    3.7232   -2.1416 H         1 <0>         0.0855
     20 H8          3.1607    2.2829    1.2057 H         1 <0>         0.1241
     21 H9          4.2561    3.6843    1.1413 H         1 <0>         0.1605
     22 H10         3.1617    3.6085    3.2497 H         1 <0>         0.4350
     23 H11         2.5276    4.8950    2.4080 H         1 <0>         0.4352
     24 O2          5.2809    3.6633   -2.4192 O.co2     1 <0>        -0.7461
     25 N1          2.5996    3.8796    2.4446 N.4       1 <0>        -0.6434
     26 H12         1.6588    3.4804    2.5432 H         1 <0>         0.4274
@<TRIPOS>BOND
     1    1    6 ar
     2    1    2 ar
     3    1   14 1
     4    2    3 ar
     5    2   15 1
     6    3    4 ar
     7    3   16 1
     8    4    5 ar
     9    4   13 1
    10    5    6 ar
    11    5    7 1
    12    6   17 1
    13    7    8 1
    14    7    9 1
    15    7   12 1
    16    9   10 1
    17    9   18 1
    18    9   19 1
    19   10   11 2
    20   10   24 1
    21   12   20 1
    22   12   21 1
    23   12   25 1
    24   22   25 1
    25   23   25 1
    26   25   26 1
@<TRIPOS>MOLECULE
ZINC13823786
   26    26     0     0     0
SMALL
USER_CHARGES
(3R)-4-amino-3-(2-chlorophenyl)butanoic acid
@<TRIPOS>ATOM
      1 C1         -0.0126    1.0758    0.0080 C.ar      1 <0>        -0.1069
      2 C2         -1.2194    1.7505    0.0173 C.ar      1 <0>        -0.1014
      3 C3         -1.2387    3.1322    0.0307 C.ar      1 <0>        -0.1037
      4 C4         -0.0501    3.8406    0.0232 C.ar      1 <0>        -0.0412
      5 C5          1.1570    3.1651    0.0080 C.ar      1 <0>        -0.1071
      6 C6          1.1751    1.7829    0.0004 C.ar      1 <0>        -0.1038
      7 C7          2.4519    3.9358    0.0003 C.3       1 <0>        -0.0601
      8 H1          2.2386    5.0047    0.0080 H         1 <0>         0.1123
      9 C8          3.2705    3.5702    1.2401 C.3       1 <0>        -0.1485
     10 C9          4.5073    4.4293    1.2969 C.2       1 <0>         0.4585
     11 O1          4.7129    5.2499    0.4342 O.co2     1 <0>        -0.6469
     12 C10         3.2476    3.5836   -1.2582 C.3       1 <0>        -0.0017
     13 Cl1        -0.0736    5.5764    0.0321 Cl        1 <0>        -0.0566
     14 H2          0.0021   -0.0041    0.0020 H         1 <0>         0.1347
     15 H3         -2.1471    1.1975    0.0187 H         1 <0>         0.1365
     16 H4         -2.1814    3.6591    0.0422 H         1 <0>         0.1381
     17 H5          2.1174    1.2553   -0.0118 H         1 <0>         0.1372
     18 H6          2.6701    3.7380    2.1343 H         1 <0>         0.0856
     19 H7          3.5594    2.5204    1.1882 H         1 <0>         0.0772
     20 H8          4.2214    4.0717   -1.2209 H         1 <0>         0.1671
     21 H9          3.3843    2.5035   -1.3112 H         1 <0>         0.1219
     22 H10         2.3188    5.0314   -2.3894 H         1 <0>         0.4358
     23 H11         3.0200    3.8221   -3.2904 H         1 <0>         0.4344
     24 O2          5.3804    4.2830    2.3058 O.co2     1 <0>        -0.7441
     25 N1          2.4936    4.0293   -2.4432 N.4       1 <0>        -0.6431
     26 H12         1.5950    3.5338   -2.4776 H         1 <0>         0.4258
@<TRIPOS>BOND
     1    1    6 ar
     2    1    2 ar
     3    1   14 1
     4    2    3 ar
     5    2   15 1
     6    3    4 ar
     7    3   16 1
     8    4    5 ar
     9    4   13 1
    10    5    6 ar
    11    5    7 1
    12    6   17 1
    13    7    8 1
    14    7    9 1
    15    7   12 1
    16    9   10 1
    17    9   18 1
    18    9   19 1
    19   10   11 2
    20   10   24 1
    21   12   20 1
    22   12   21 1
    23   12   25 1
    24   22   25 1
    25   23   25 1
    26   25   26 1
@<TRIPOS>MOLECULE
ZINC06071290
   26    26     0     0     0
SMALL
USER_CHARGES
(3S)-4-amino-3-(5-methyl-2-thienyl)butanoic acid
@<TRIPOS>ATOM
      1 C1         -7.1395    4.1229    0.4352 C.3       1 <0>        -0.0778
      2 C2         -6.0098    3.1823    0.1034 C.2       1 <0>        -0.1244
      3 C3         -5.8807    2.3423   -0.9525 C.2       1 <0>        -0.1732
      4 C4         -4.7410    1.5671   -1.0570 C.2       1 <0>        -0.1357
      5 C5         -3.7910    1.6621   -0.0948 C.2       1 <0>        -0.1922
      6 S1         -4.4941    2.8856    0.9988 S.3       1 <0>         0.0477
      7 C6         -2.4788    0.9298    0.0189 C.3       1 <0>        -0.0014
      8 H1         -2.3667    0.2518   -0.8272 H         1 <0>         0.1149
      9 C7         -1.3295    1.9397    0.0189 C.3       1 <0>        -0.1540
     10 C8         -0.0143    1.2041    0.0087 C.2       1 <0>         0.4596
     11 O1          0.0021   -0.0041    0.0020 O.co2     1 <0>        -0.6487
     12 C9         -2.4533    0.1281    1.3218 C.3       1 <0>        -0.0044
     13 H2         -6.9134    4.6496    1.3624 H         1 <0>         0.0754
     14 H3         -7.2603    4.8448   -0.3725 H         1 <0>         0.0857
     15 H4         -8.0619    3.5548    0.5558 H         1 <0>         0.0843
     16 H5         -6.6550    2.2823   -1.7030 H         1 <0>         0.1364
     17 H6         -4.6107    0.8938   -1.8912 H         1 <0>         0.1362
     18 H7         -1.3915    2.5607    0.9126 H         1 <0>         0.0780
     19 H8         -1.4000    2.5704   -0.8673 H         1 <0>         0.0883
     20 H9         -1.4722   -0.3299    1.4474 H         1 <0>         0.1663
     21 H10        -2.6540    0.7933    2.1616 H         1 <0>         0.1233
     22 H11        -3.4839   -1.4646    2.1214 H         1 <0>         0.4339
     23 H12        -4.3916   -0.5263    1.0911 H         1 <0>         0.4252
     24 O2          1.1389    1.8910    0.0013 O.co2     1 <0>        -0.7415
     25 N1         -3.4721   -0.9342    1.2518 N.4       1 <0>        -0.6412
     26 H13        -3.2464   -1.5677    0.4760 H         1 <0>         0.4394
@<TRIPOS>BOND
     1    1    2 1
     2    1   13 1
     3    1   14 1
     4    1   15 1
     5    2    6 1
     6    2    3 2
     7    3    4 1
     8    3   16 1
     9    4    5 2
    10    4   17 1
    11    5    6 1
    12    5    7 1
    13    7    8 1
    14    7    9 1
    15    7   12 1
    16    9   10 1
    17    9   18 1
    18    9   19 1
    19   10   11 2
    20   10   24 1
    21   12   20 1
    22   12   21 1
    23   12   25 1
    24   22   25 1
    25   23   25 1
    26   25   26 1
@<TRIPOS>MOLECULE
ZINC06071292
   26    26     0     0     0
SMALL
USER_CHARGES
4-amino-3-(5-methyl-2-thienyl)-butanoic acid
@<TRIPOS>ATOM
      1 C1         -1.5394    5.0782    0.5809 C.3       1 <0>        -0.0723
      2 C2         -0.6066    3.9006    0.4621 C.2       1 <0>        -0.1308
      3 C3         -0.8900    2.5768    0.5306 C.2       1 <0>        -0.1646
      4 C4          0.1386    1.6633    0.3959 C.2       1 <0>        -0.1065
      5 C5          1.3985    2.1179    0.1882 C.2       1 <0>        -0.1425
      6 S1          1.1572    3.8868    0.1860 S.3       1 <0>         0.0192
      7 C6          2.6724    1.3337    0.0059 C.3       1 <0>        -0.0071
      8 H1          2.4541    0.2674    0.0639 H         1 <0>         0.1157
      9 C7          3.6658    1.7115    1.1065 C.3       1 <0>        -0.1727
     10 C8          3.1313    1.2614    2.4417 C.2       1 <0>         0.4588
     11 O1          2.1191    0.6040    2.4968 O.co2     1 <0>        -0.6213
     12 C9          3.2788    1.6565   -1.3612 C.3       1 <0>        -0.0026
     13 H2         -0.9729    6.0030    0.4710 H         1 <0>         0.0721
     14 H3         -2.2974    5.0215   -0.2003 H         1 <0>         0.0811
     15 H4         -2.0225    5.0620    1.5578 H         1 <0>         0.0829
     16 H5         -1.9037    2.2410    0.6920 H         1 <0>         0.1336
     17 H6         -0.0594    0.6030    0.4510 H         1 <0>         0.1340
     18 H7          4.6223    1.2249    0.9153 H         1 <0>         0.0628
     19 H8          3.8037    2.7927    1.1160 H         1 <0>         0.0817
     20 H9          2.5514    1.4362   -2.1425 H         1 <0>         0.1373
     21 H10         3.5452    2.7127   -1.4003 H         1 <0>         0.1298
     22 H11         4.2784   -0.1411   -1.4492 H         1 <0>         0.4369
     23 H12         4.8882    1.0175   -2.4748 H         1 <0>         0.4348
     24 O2          3.7798    1.5909    3.5698 O.co2     1 <0>        -0.7552
     25 N1          4.4968    0.8488   -1.5496 N.4       1 <0>        -0.6447
     26 H13         5.1899    1.1126   -0.8394 H         1 <0>         0.4397
@<TRIPOS>BOND
     1    1    2 1
     2    1   13 1
     3    1   14 1
     4    1   15 1
     5    2    6 1
     6    2    3 2
     7    3    4 1
     8    3   16 1
     9    4    5 2
    10    4   17 1
    11    5    6 1
    12    5    7 1
    13    7    8 1
    14    7    9 1
    15    7   12 1
    16    9   10 1
    17    9   18 1
    18    9   19 1
    19   10   11 2
    20   10   24 1
    21   12   20 1
    22   12   21 1
    23   12   25 1
    24   22   25 1
    25   23   25 1
    26   25   26 1
@<TRIPOS>MOLECULE
ZINC04165187
   23    23     0     0     0
SMALL
USER_CHARGES

@<TRIPOS>ATOM
      1 C1         -0.0163    1.3509    0.0095 C.2       1 <0>        -0.1398
      2 C2          1.1836    2.0381    0.0017 C.2       1 <0>        -0.1424
      3 C3          2.3434    1.3347   -0.0131 C.2       1 <0>        -0.1143
      4 S1          1.7533   -0.3502   -0.0166 S.3       1 <0>         0.1015
      5 C4          0.0021   -0.0041    0.0020 C.2       1 <0>        -0.1773
      6 C5         -1.1557   -0.9687    0.0079 C.3       1 <0>         0.0018
      7 H1         -2.0926   -0.4117    0.0198 H         1 <0>         0.1190
      8 C6         -1.0979   -1.8425   -1.2467 C.3       1 <0>        -0.1817
      9 C7         -2.3204   -2.7219   -1.3032 C.2       1 <0>         0.4914
     10 O1         -3.1602   -2.6557   -0.4218 O.co2     1 <0>        -0.7027
     11 O2         -2.4698   -3.4994   -2.2304 O.co2     1 <0>        -0.6721
     12 C8         -1.0740   -1.8560    1.2517 C.3       1 <0>        -0.0089
     13 N1         -1.2496   -1.0308    2.4542 N.4       1 <0>        -0.6333
     14 Cl1         3.9774    1.9208   -0.0256 Cl        1 <0>         0.0258
     15 H2         -0.9542    1.8861    0.0257 H         1 <0>         0.1462
     16 H3          1.1971    3.1180    0.0070 H         1 <0>         0.1463
     17 H4         -1.0665   -1.2065   -2.1313 H         1 <0>         0.0834
     18 H5         -0.2037   -2.4651   -1.2149 H         1 <0>         0.0726
     19 H6         -1.8590   -2.6112    1.2114 H         1 <0>         0.1731
     20 H7         -0.1006   -2.3452    1.2857 H         1 <0>         0.1205
     21 H8         -0.5230   -0.3317    2.4915 H         1 <0>         0.4221
     22 H9         -2.1507   -0.5779    2.4228 H         1 <0>         0.4358
     23 H10        -1.1957   -1.6159    3.2745 H         1 <0>         0.4330
@<TRIPOS>BOND
     1    1    5 2
     2    1    2 1
     3    1   15 1
     4    2    3 2
     5    2   16 1
     6    3    4 1
     7    3   14 1
     8    4    5 1
     9    5    6 1
    10    6    7 1
    11    6    8 1
    12    6   12 1
    13    8    9 1
    14    8   17 1
    15    8   18 1
    16    9   10 2
    17    9   11 1
    18   12   13 1
    19   12   19 1
    20   12   20 1
    21   13   21 1
    22   13   22 1
    23   13   23 1
@<TRIPOS>MOLECULE
ZINC04165201
   23    23     0     0     0
SMALL
USER_CHARGES

@<TRIPOS>ATOM
      1 C1          0.4149    1.1562   -0.0672 C.2       1 <0>        -0.1088
      2 C2          1.7187    1.6155   -0.1001 C.2       1 <0>        -0.1331
      3 C3          2.7326    0.7144   -0.1125 C.2       1 <0>        -0.1163
      4 S1          1.8488   -0.8363   -0.0773 S.3       1 <0>         0.0717
      5 C4          0.1889   -0.1798   -0.0484 C.2       1 <0>        -0.1221
      6 C5         -1.1235   -0.9196   -0.0124 C.3       1 <0>        -0.0037
      7 H1         -1.9445   -0.2028   -0.0022 H         1 <0>         0.1196
      8 C6         -1.1866   -1.7853    1.2476 C.3       1 <0>        -0.2014
      9 C7         -1.2207   -0.8981    2.4654 C.2       1 <0>         0.4903
     10 O1         -1.3070    0.3112    2.3364 O.co2     1 <0>        -0.6785
     11 O2         -1.1621   -1.3897    3.5795 O.co2     1 <0>        -0.6849
     12 C8         -1.2404   -1.8113   -1.2502 C.3       1 <0>        -0.0100
     13 N1         -2.5563   -2.4642   -1.2608 N.4       1 <0>        -0.6343
     14 Cl1         4.4452    0.9961   -0.1524 Cl        1 <0>         0.0158
     15 H2         -0.4110    1.8519   -0.0522 H         1 <0>         0.1445
     16 H3          1.9266    2.6752   -0.1160 H         1 <0>         0.1433
     17 H4         -2.0859   -2.4006    1.2210 H         1 <0>         0.0595
     18 H5         -0.3075   -2.4283    1.2911 H         1 <0>         0.0758
     19 H6         -1.1293   -1.2032   -2.1479 H         1 <0>         0.1366
     20 H7         -0.4584   -2.5703   -1.2263 H         1 <0>         0.1314
     21 H8         -2.6213   -3.1027   -0.4822 H         1 <0>         0.4357
     22 H9         -3.2794   -1.7648   -1.1835 H         1 <0>         0.4356
     23 H10        -2.6720   -2.9736   -2.1240 H         1 <0>         0.4334
@<TRIPOS>BOND
     1    1    5 2
     2    1    2 1
     3    1   15 1
     4    2    3 2
     5    2   16 1
     6    3    4 1
     7    3   14 1
     8    4    5 1
     9    5    6 1
    10    6    7 1
    11    6    8 1
    12    6   12 1
    13    8    9 1
    14    8   17 1
    15    8   18 1
    16    9   10 2
    17    9   11 1
    18   12   13 1
    19   12   19 1
    20   12   20 1
    21   13   21 1
    22   13   22 1
    23   13   23 1
@<TRIPOS>MOLECULE
ZINC01532620
   16    15     0     0     0
SMALL
USER_CHARGES

@<TRIPOS>ATOM
      1 C1         -0.0187    1.5258    0.0104 C.3       1 <0>        -0.1250
      2 C2          0.0021   -0.0041    0.0020 C.3       1 <0>        -0.1856
      3 C3         -1.4117   -0.5257    0.0127 C.2       1 <0>         0.4870
      4 O1         -2.3491    0.2539    0.0259 O.co2     1 <0>        -0.6970
      5 O2         -1.6182   -1.7273    0.0082 O.co2     1 <0>        -0.6862
      6 C4          1.4167    2.0553   -0.0004 C.3       1 <0>        -0.0130
      7 N1          1.3968    3.5242    0.0076 N.4       1 <0>        -0.6362
      8 H1         -0.5459    1.8868   -0.8726 H         1 <0>         0.0846
      9 H2         -0.5289    1.8773    0.9072 H         1 <0>         0.0846
     10 H3          0.5123   -0.3556   -0.8948 H         1 <0>         0.0679
     11 H4          0.5293   -0.3651    0.8851 H         1 <0>         0.0679
     12 H5          1.9439    1.6943    0.8826 H         1 <0>         0.1275
     13 H6          1.9269    1.7038   -0.8972 H         1 <0>         0.1275
     14 H7          2.3434    3.8734    0.0005 H         1 <0>         0.4293
     15 H8          0.9088    3.8584   -0.8098 H         1 <0>         0.4334
     16 H9          0.9245    3.8496    0.8378 H         1 <0>         0.4334
@<TRIPOS>BOND
     1    1    2 1
     2    1    6 1
     3    1    8 1
     4    1    9 1
     5    2    3 1
     6    2   10 1
     7    2   11 1
     8    3    4 2
     9    3    5 1
    10    6    7 1
    11    6   12 1
    12    6   13 1
    13    7   14 1
    14    7   15 1
    15    7   16 1
