@<TRIPOS>MOLECULE
ZINC27867544
   18    17     0     0     0
SMALL
USER_CHARGES
(E)-4-amino-2-(hydroxymethyl)but-2-enoic acid
@<TRIPOS>ATOM
      1 C1          1.0150    3.6915   -0.2004 C.3       1 <0>         0.0327
      2 C2          1.0979    2.1946   -0.0465 C.2       1 <0>        -0.2412
      3 C3         -0.0157    1.4744    0.0645 C.2       1 <0>        -0.0530
      4 C4         -1.3586    2.1271   -0.1397 C.3       1 <0>         0.1176
      5 O1         -2.1134    2.0530    1.0714 O.3       1 <0>        -0.5760
      6 C5          0.0644    0.0415    0.3802 C.2       1 <0>         0.4723
      7 O2          1.1476   -0.4859    0.5400 O.co2     1 <0>        -0.6247
      8 O3         -1.0636   -0.6880    0.4927 O.co2     1 <0>        -0.7200
      9 N1          1.8598    4.3355    0.8143 N.4       1 <0>        -0.6796
     10 H1          1.3647    3.9769   -1.2035 H         1 <0>         0.1265
     11 H2         -0.0277    4.0164   -0.0694 H         1 <0>         0.1302
     12 H3          2.0789    1.6973   -0.0259 H         1 <0>         0.1481
     13 H4         -1.2152    3.1815   -0.4184 H         1 <0>         0.0341
     14 H5         -1.9012    1.6062   -0.9424 H         1 <0>         0.0688
     15 H6         -3.1264    2.4796    1.1151 H         1 <0>         0.4051
     16 H7          1.7993    5.4281    0.7020 H         1 <0>         0.4489
     17 H8          2.9025    4.0106    0.6832 H         1 <0>         0.4530
     18 H9          1.5101    4.0501    1.8174 H         1 <0>         0.4574
@<TRIPOS>BOND
     1    1    2 1
     2    1    9 1
     3    1   10 1
     4    1   11 1
     5    2    3 2
     6    2   12 1
     7    3    4 1
     8    3    6 1
     9    4    5 1
    10    4   13 1
    11    4   14 1
    12    5   15 1
    13    6    7 2
    14    6    8 1
    15    9   16 1
    16    9   17 1
    17    9   18 1
@<TRIPOS>MOLECULE
ZINC27868777
   17    16     0     0     0
SMALL
USER_CHARGES
(Z)-4-amino-2-(fluoromethyl)but-2-enoic acid
@<TRIPOS>ATOM
      1 C1          0.7243    3.7095    0.0764 C.3       1 <0>         0.0409
      2 C2          0.9674    2.2224    0.0985 C.2       1 <0>        -0.2261
      3 C3         -0.0576    1.3790    0.0023 C.2       1 <0>        -0.1083
      4 C4         -1.4279    1.8960   -0.3528 C.3       1 <0>         0.0866
      5 F1         -1.3313    3.2304   -0.7617 F         1 <0>        -0.2253
      6 C5          0.1481   -0.0571    0.2362 C.2       1 <0>         0.4776
      7 O1          1.2542   -0.4746    0.5177 O.co2     1 <0>        -0.6160
      8 O2         -0.8901   -0.9113    0.1387 O.co2     1 <0>        -0.7311
      9 N1          1.8418    4.3982    0.7358 N.4       1 <0>        -0.6865
     10 H1          0.6457    4.0527   -0.9657 H         1 <0>         0.1320
     11 H2         -0.2114    3.9361    0.6086 H         1 <0>         0.1394
     12 H3          1.9921    1.8340    0.1941 H         1 <0>         0.1483
     13 H4         -1.8474    1.2914   -1.1704 H         1 <0>         0.1119
     14 H5         -2.0846    1.8287    0.5271 H         1 <0>         0.1026
     15 H6          1.6643    5.4837    0.7197 H         1 <0>         0.4506
     16 H7          2.7774    4.1717    0.2036 H         1 <0>         0.4501
     17 H8          1.9204    4.0550    1.7779 H         1 <0>         0.4533
@<TRIPOS>BOND
     1    1    2 1
     2    1    9 1
     3    1   10 1
     4    1   11 1
     5    2    3 2
     6    2   12 1
     7    3    4 1
     8    3    6 1
     9    4    5 1
    10    4   13 1
    11    4   14 1
    12    6    7 2
    13    6    8 1
    14    9   15 1
    15    9   16 1
    16    9   17 1
@<TRIPOS>MOLECULE
ZINC28567957
   19    19     0     0     0
SMALL
USER_CHARGES
1-(4-hydroxyphenyl)prop-2-en-1-one
@<TRIPOS>ATOM
      1 C1          2.5559   -4.2051   -0.0441 C.2       1 <0>        -0.0937
      2 C2          2.5335   -2.8737   -0.0372 C.2       1 <0>        -0.2414
      3 C3          1.2482   -2.1602   -0.0210 C.2       1 <0>         0.4252
      4 O1          0.2050   -2.7862   -0.0140 O.2       1 <0>        -0.4637
      5 C4          1.2234   -0.6846   -0.0133 C.ar      1 <0>        -0.2106
      6 C5          0.0021   -0.0041    0.0020 C.ar      1 <0>        -0.0182
      7 C6         -0.0166    1.3724    0.0096 C.ar      1 <0>        -0.1768
      8 C7          1.1768    2.0859    0.0020 C.ar      1 <0>         0.1905
      9 C8          2.3934    1.4131   -0.0133 C.ar      1 <0>        -0.2304
     10 C9          2.4211    0.0367   -0.0210 C.ar      1 <0>        -0.0292
     11 O2          1.1539    3.4426    0.0091 O.3       1 <0>        -0.5043
     12 H1          3.5176   -4.7389   -0.0562 H         1 <0>         0.1191
     13 H2          1.6127   -4.7711   -0.0377 H         1 <0>         0.1166
     14 H3          3.4767   -2.3077   -0.0436 H         1 <0>         0.1331
     15 H4         -0.9253   -0.5575    0.0083 H         1 <0>         0.1402
     16 H5         -0.9596    1.8989    0.0169 H         1 <0>         0.1358
     17 H6          3.3181    1.9710   -0.0192 H         1 <0>         0.1339
     18 H7          3.3666   -0.4851   -0.0325 H         1 <0>         0.1346
     19 H8          2.0971    4.0086    0.0031 H         1 <0>         0.4393
@<TRIPOS>BOND
     1    1    2 2
     2    1   12 1
     3    1   13 1
     4    2    3 1
     5    2   14 1
     6    3    4 2
     7    3    5 1
     8    5   10 ar
     9    5    6 ar
    10    6    7 ar
    11    6   15 1
    12    7    8 ar
    13    7   16 1
    14    8    9 ar
    15    8   11 1
    16    9   10 ar
    17    9   17 1
    18   10   18 1
    19   11   19 1
@<TRIPOS>MOLECULE
ZINC28567957
   18    18     0     0     0
SMALL
USER_CHARGES
1-(4-hydroxyphenyl)prop-2-en-1-one
@<TRIPOS>ATOM
      1 C1          2.5559   -4.2051   -0.0441 C.2       1 <0>        -0.1321
      2 C2          2.5335   -2.8737   -0.0372 C.2       1 <0>        -0.2133
      3 C3          1.2482   -2.1602   -0.0210 C.2       1 <0>         0.4243
      4 O1          0.2050   -2.7862   -0.0140 O.2       1 <0>        -0.5077
      5 C4          1.2234   -0.6846   -0.0133 C.ar      1 <0>        -0.3164
      6 C5          0.0021   -0.0041    0.0020 C.ar      1 <0>        -0.0087
      7 C6         -0.0166    1.3724    0.0096 C.ar      1 <0>        -0.2793
      8 C7          1.1768    2.0859    0.0020 C.ar      1 <0>         0.2950
      9 C8          2.3934    1.4131   -0.0133 C.ar      1 <0>        -0.2779
     10 C9          2.4211    0.0367   -0.0210 C.ar      1 <0>        -0.0217
     11 O2          1.1539    3.4426    0.0091 O.3       1 <0>        -0.7133
     12 H1          3.5176   -4.7389   -0.0562 H         1 <0>         0.1068
     13 H2          1.6127   -4.7711   -0.0377 H         1 <0>         0.1099
     14 H3          3.4767   -2.3077   -0.0436 H         1 <0>         0.1271
     15 H4         -0.9253   -0.5575    0.0083 H         1 <0>         0.1040
     16 H5         -0.9596    1.8989    0.0169 H         1 <0>         0.1007
     17 H6          3.3181    1.9710   -0.0192 H         1 <0>         0.1008
     18 H7          3.3666   -0.4851   -0.0325 H         1 <0>         0.1016
@<TRIPOS>BOND
     1    1    2 2
     2    1   12 1
     3    1   13 1
     4    2    3 1
     5    2   14 1
     6    3    4 2
     7    3    5 1
     8    5   10 ar
     9    5    6 ar
    10    6    7 ar
    11    6   15 1
    12    7    8 ar
    13    7   16 1
    14    8    9 ar
    15    8   11 1
    16    9   10 ar
    17    9   17 1
    18   10   18 1
