@<TRIPOS>MOLECULE
ZINC19167423
   15    14     0     0     0
SMALL
USER_CHARGES
3-hydrazinopropanoic acid
@<TRIPOS>ATOM
      1 C1         -1.3295    1.9397    0.0189 C.3       1 <0>        -0.1869
      2 C2         -2.4788    0.9298    0.0189 C.3       1 <0>         0.0231
      3 N1         -3.7608    1.6469    0.0288 N.4       1 <0>        -0.3897
      4 N2         -4.8783    0.7166    0.0291 N.3       1 <0>        -0.6550
      5 C3         -0.0143    1.2041    0.0087 C.2       1 <0>         0.4648
      6 O1          0.0021   -0.0041    0.0020 O.co2     1 <0>        -0.6289
      7 O2          1.1389    1.8910    0.0013 O.co2     1 <0>        -0.7382
      8 H1         -1.4006    2.5761   -0.8755 H         1 <0>         0.0877
      9 H2         -1.3921    2.5664    0.9207 H         1 <0>         0.0906
     10 H3         -2.4162    0.3031   -0.8829 H         1 <0>         0.1257
     11 H4         -2.4077    0.2934    0.9133 H         1 <0>         0.1373
     12 H5         -3.8234    2.2736    0.9306 H         1 <0>         0.4627
     13 H6         -5.7588    1.2092    0.0359 H         1 <0>         0.3904
     14 H7         -4.8233    0.0852   -0.7560 H         1 <0>         0.3956
     15 H8         -3.8319    2.2833   -0.8656 H         1 <0>         0.4208
@<TRIPOS>BOND
     1    1    2 1
     2    1    5 1
     3    1    8 1
     4    1    9 1
     5    2    3 1
     6    2   10 1
     7    2   11 1
     8    3    4 1
     9    3   12 1
    10    3   15 1
    11    4   13 1
    12    4   14 1
    13    5    6 2
    14    5    7 1
@<TRIPOS>MOLECULE
ZINC19168421
   21    21     0     0     0
SMALL
USER_CHARGES

@<TRIPOS>ATOM
      1 C1         -0.0167    1.3770    0.0096 C.ar      1 <0>        -0.0975
      2 C2          1.1707    2.0858    0.0021 C.ar      1 <0>        -0.1146
      3 C3          2.3791    1.4145   -0.0130 C.ar      1 <0>        -0.1022
      4 C4          2.4032    0.0331   -0.0211 C.ar      1 <0>        -0.1140
      5 C5          1.2136   -0.6802   -0.0135 C.ar      1 <0>         0.1136
      6 C6          0.0021   -0.0041    0.0020 C.ar      1 <0>        -0.1208
      7 O1          1.2347   -2.0390   -0.0215 O.3       1 <0>        -0.4947
      8 C7          3.6712    2.1901   -0.0212 C.3       1 <0>         0.0629
      9 N1          4.1042    2.4347    1.3611 N.3       1 <0>        -0.4879
     10 N2          5.3508    3.1826    1.3920 N.4       1 <0>        -0.5000
     11 H1         -0.9594    1.9037    0.0259 H         1 <0>         0.1378
     12 H2          1.1540    3.1657    0.0076 H         1 <0>         0.1276
     13 H3          3.3475   -0.4909   -0.0336 H         1 <0>         0.1354
     14 H4         -0.9255   -0.5572    0.0082 H         1 <0>         0.1393
     15 H5          1.2494   -2.4373    0.8596 H         1 <0>         0.3995
     16 H6          4.4358    1.6168   -0.5454 H         1 <0>         0.1176
     17 H7          3.5198    3.1429   -0.5285 H         1 <0>         0.0852
     18 H8          3.3851    2.9087    1.8868 H         1 <0>         0.3980
     19 H9          5.2215    4.0710    0.9314 H         1 <0>         0.4121
     20 H10         5.6264    3.3374    2.3502 H         1 <0>         0.4514
     21 H11         6.0694    2.6583    0.9158 H         1 <0>         0.4513
@<TRIPOS>BOND
     1    1    6 ar
     2    1    2 ar
     3    1   11 1
     4    2    3 ar
     5    2   12 1
     6    3    4 ar
     7    3    8 1
     8    4    5 ar
     9    4   13 1
    10    5    6 ar
    11    5    7 1
    12    6   14 1
    13    7   15 1
    14    8    9 1
    15    8   16 1
    16    8   17 1
    17    9   10 1
    18    9   18 1
    19   10   19 1
    20   10   20 1
    21   10   21 1
@<TRIPOS>MOLECULE
ZINC19168421
   20    20     0     0     0
SMALL
USER_CHARGES

@<TRIPOS>ATOM
      1 C1         -0.0167    1.3770    0.0096 C.ar      1 <0>        -0.1030
      2 C2          1.1707    2.0858    0.0021 C.ar      1 <0>        -0.1237
      3 C3          2.3791    1.4145   -0.0130 C.ar      1 <0>        -0.0719
      4 C4          2.4032    0.0331   -0.0211 C.ar      1 <0>        -0.1189
      5 C5          1.2136   -0.6802   -0.0135 C.ar      1 <0>         0.1050
      6 C6          0.0021   -0.0041    0.0020 C.ar      1 <0>        -0.1419
      7 O1          1.2347   -2.0390   -0.0215 O.3       1 <0>        -0.4990
      8 C7          3.6712    2.1901   -0.0212 C.3       1 <0>         0.0972
      9 N1          4.1042    2.4347    1.3611 N.3       1 <0>        -0.5030
     10 N2          5.3508    3.1826    1.3920 N.3       1 <0>        -0.6701
     11 H1         -0.9594    1.9037    0.0259 H         1 <0>         0.1286
     12 H2          1.1540    3.1657    0.0076 H         1 <0>         0.1216
     13 H3          3.3475   -0.4909   -0.0336 H         1 <0>         0.1326
     14 H4         -0.9255   -0.5572    0.0082 H         1 <0>         0.1297
     15 H5          1.2494   -2.4373    0.8596 H         1 <0>         0.3927
     16 H6          4.4358    1.6168   -0.5454 H         1 <0>         0.0954
     17 H7          3.5198    3.1429   -0.5285 H         1 <0>         0.0442
     18 H8          3.3851    2.9087    1.8868 H         1 <0>         0.3124
     19 H9          5.2657    4.0485    0.8811 H         1 <0>         0.3142
     20 H10         5.6482    3.3506    2.3414 H         1 <0>         0.3579
@<TRIPOS>BOND
     1    1    6 ar
     2    1    2 ar
     3    1   11 1
     4    2    3 ar
     5    2   12 1
     6    3    4 ar
     7    3    8 1
     8    4    5 ar
     9    4   13 1
    10    5    6 ar
    11    5    7 1
    12    6   14 1
    13    7   15 1
    14    8    9 1
    15    8   16 1
    16    8   17 1
    17    9   10 1
    18    9   18 1
    19   10   19 1
    20   10   20 1
@<TRIPOS>MOLECULE
ZINC19168421
   21    21     0     0     0
SMALL
USER_CHARGES

@<TRIPOS>ATOM
      1 C1         -0.0167    1.3770    0.0096 C.ar      1 <0>        -0.0954
      2 C2          1.1707    2.0858    0.0021 C.ar      1 <0>        -0.0991
      3 C3          2.3791    1.4145   -0.0130 C.ar      1 <0>        -0.1522
      4 C4          2.4032    0.0331   -0.0211 C.ar      1 <0>        -0.1236
      5 C5          1.2136   -0.6802   -0.0135 C.ar      1 <0>         0.1170
      6 C6          0.0021   -0.0041    0.0020 C.ar      1 <0>        -0.1090
      7 O1          1.2347   -2.0390   -0.0215 O.3       1 <0>        -0.4921
      8 C7          3.6712    2.1901   -0.0212 C.3       1 <0>         0.0581
      9 N1          4.1042    2.4347    1.3611 N.4       1 <0>        -0.3641
     10 N2          5.3508    3.1831    1.3532 N.3       1 <0>        -0.6464
     11 H1         -0.9594    1.9037    0.0259 H         1 <0>         0.1434
     12 H2          1.1540    3.1657    0.0076 H         1 <0>         0.1384
     13 H3          3.3475   -0.4909   -0.0336 H         1 <0>         0.1377
     14 H4         -0.9255   -0.5572    0.0082 H         1 <0>         0.1437
     15 H5          1.2494   -2.4373    0.8596 H         1 <0>         0.4013
     16 H6          4.4358    1.6168   -0.5454 H         1 <0>         0.1367
     17 H7          3.5198    3.1429   -0.5285 H         1 <0>         0.1496
     18 H8          3.3964    2.9654    1.8463 H         1 <0>         0.4453
     19 H9          5.6698    3.3641    2.2931 H         1 <0>         0.4023
     20 H10         6.0579    2.7021    0.8177 H         1 <0>         0.4017
     21 H11         4.2443    1.5528    1.8307 H         1 <0>         0.4065
@<TRIPOS>BOND
     1    1    6 ar
     2    1    2 ar
     3    1   11 1
     4    2    3 ar
     5    2   12 1
     6    3    4 ar
     7    3    8 1
     8    4    5 ar
     9    4   13 1
    10    5    6 ar
    11    5    7 1
    12    6   14 1
    13    7   15 1
    14    8    9 1
    15    8   16 1
    16    8   17 1
    17    9   10 1
    18    9   18 1
    19    9   21 1
    20   10   19 1
    21   10   20 1
