@<TRIPOS>MOLECULE
ZINC01530649
   18    18     0     0     0
SMALL
USER_CHARGES

@<TRIPOS>ATOM
      1 C1         -0.0167    1.3783    0.0096 C.ar      1 <0>        -0.1820
      2 C2          1.1753    2.0872    0.0020 C.ar      1 <0>         0.1597
      3 C3          2.3852    1.4070   -0.0132 C.ar      1 <0>        -0.0550
      4 C4          2.4001    0.0244   -0.0207 C.ar      1 <0>        -0.0495
      5 C5          1.2102   -0.6809   -0.0136 C.ar      1 <0>        -0.0578
      6 C6          0.0021   -0.0041    0.0020 C.ar      1 <0>         0.0134
      7 Cl1        -1.4897   -0.8919    0.0121 Cl        1 <0>        -0.0288
      8 Cl2         1.2313   -2.4168   -0.0237 Cl        1 <0>        -0.0312
      9 Cl3         3.8789    2.2916   -0.0232 Cl        1 <0>        -0.0287
     10 O1          1.1589    3.4465    0.0091 O.3       1 <0>        -0.2880
     11 C7         -0.1221    4.0797    0.0242 C.3       1 <0>         0.1693
     12 C8          0.0530    5.5412    0.0300 C.1       1 <0>        -0.1098
     13 C9          0.1927    6.7069    0.0345 C.1       1 <0>        -0.1611
     14 I1          0.4426    8.7919    0.0427 I         1 <0>         0.1224
     15 H1         -0.9589    1.9059    0.0260 H         1 <0>         0.1590
     16 H2          3.3413   -0.5051   -0.0326 H         1 <0>         0.1628
     17 H3         -0.6838    3.7845   -0.8620 H         1 <0>         0.1027
     18 H4         -0.6672    3.7756    0.9178 H         1 <0>         0.1026
@<TRIPOS>BOND
     1    1    6 ar
     2    1    2 ar
     3    1   15 1
     4    2    3 ar
     5    2   10 1
     6    3    4 ar
     7    3    9 1
     8    4    5 ar
     9    4   16 1
    10    5    6 ar
    11    5    8 1
    12    6    7 1
    13   10   11 1
    14   11   12 1
    15   11   17 1
    16   11   18 1
    17   12   13 3
    18   13   14 1
