@<TRIPOS>MOLECULE
ZINC12377202
   30    32     0     0     0
SMALL
USER_CHARGES

@<TRIPOS>ATOM
      1 C1         -0.0166    1.3762    0.0096 C.ar      1 <0>        -0.1445
      2 C2          1.1722    2.0863    0.0021 C.ar      1 <0>        -0.0599
      3 C3          2.3856    1.4273   -0.0135 C.ar      1 <0>        -0.1399
      4 C4          2.4256    0.0378   -0.0213 C.ar      1 <0>         0.1643
      5 C5          1.2200   -0.6776   -0.0131 C.ar      1 <0>        -0.1245
      6 C6          0.0021   -0.0041    0.0020 C.ar      1 <0>        -0.0250
      7 C7          1.5830   -2.1114   -0.0244 C.2       1 <0>         0.1675
      8 N1          0.7715   -3.1412   -0.0222 N.2       1 <0>        -0.3674
      9 C8          1.2754   -4.4040   -0.0339 C.ar      1 <0>         0.0375
     10 C9          2.3275   -4.7347   -0.8979 C.ar      1 <0>        -0.0466
     11 C10         2.8324   -6.0168   -0.9027 C.ar      1 <0>        -0.1160
     12 C11         2.3030   -6.9771   -0.0569 C.ar      1 <0>        -0.0549
     13 C12         1.2630   -6.6591    0.7998 C.ar      1 <0>        -0.1873
     14 C13         0.7496   -5.3801    0.8220 C.ar      1 <0>        -0.0305
     15 C14         0.6949   -7.7128    1.7152 C.3       1 <0>         0.5124
     16 F1          1.3760   -8.9186    1.5177 F         1 <0>        -0.1747
     17 F2          0.8445   -7.3050    3.0451 F         1 <0>        -0.1751
     18 F3         -0.6634   -7.8928    1.4327 F         1 <0>        -0.1740
     19 C15         3.0680   -2.1294   -0.0392 C.2       1 <0>         0.5242
     20 O1          3.7725   -3.1198   -0.0518 O.2       1 <0>        -0.4736
     21 N2          3.4931   -0.8544   -0.0366 N.am      1 <0>        -0.6485
     22 H1         -0.9594    1.9028    0.0259 H         1 <0>         0.1375
     23 H2          1.1502    3.1660    0.0080 H         1 <0>         0.1382
     24 H3          3.3057    1.9928   -0.0199 H         1 <0>         0.1351
     25 H4         -0.9244   -0.5590    0.0082 H         1 <0>         0.1393
     26 H5          2.7413   -3.9872   -1.5584 H         1 <0>         0.1337
     27 H6          3.6432   -6.2737   -1.5684 H         1 <0>         0.1411
     28 H7          2.7035   -7.9800   -0.0659 H         1 <0>         0.1441
     29 H8         -0.0587   -5.1325    1.4941 H         1 <0>         0.1433
     30 H9          4.4263   -0.5897   -0.0451 H         1 <0>         0.4239
@<TRIPOS>BOND
     1    1    6 ar
     2    1    2 ar
     3    1   22 1
     4    2    3 ar
     5    2   23 1
     6    3    4 ar
     7    3   24 1
     8    4   21 1
     9    4    5 ar
    10    5    6 ar
    11    5    7 1
    12    6   25 1
    13    7    8 2
    14    7   19 1
    15    8    9 1
    16    9   14 ar
    17    9   10 ar
    18   10   11 ar
    19   10   26 1
    20   11   12 ar
    21   11   27 1
    22   12   13 ar
    23   12   28 1
    24   13   14 ar
    25   13   15 1
    26   14   29 1
    27   15   16 1
    28   15   17 1
    29   15   18 1
    30   19   20 2
    31   19   21 am
    32   21   30 1
@<TRIPOS>MOLECULE
ZINC17858403
   27    29     0     0     0
SMALL
USER_CHARGES

@<TRIPOS>ATOM
      1 C1          0.0862    1.1376    1.4780 C.ar      1 <0>        -0.1445
      2 C2          1.2779    1.8412    1.5292 C.ar      1 <0>        -0.0557
      3 C3          2.4650    1.2430    1.1554 C.ar      1 <0>        -0.1413
      4 C4          2.4754   -0.0779    0.7224 C.ar      1 <0>         0.1755
      5 C5          1.2672   -0.7870    0.6724 C.ar      1 <0>        -0.1821
      6 C6          0.0758   -0.1750    1.0509 C.ar      1 <0>        -0.0351
      7 C7          1.5965   -2.1425    0.1802 C.2       1 <0>         0.1878
      8 N1          0.7714   -3.1414   -0.0224 N.2       1 <0>        -0.3787
      9 C8         -0.5691   -2.9499    0.0940 C.ar      1 <0>         0.0770
     10 C9         -1.2412   -2.1097   -0.8035 C.ar      1 <0>        -0.1186
     11 C10        -2.6000   -1.9209   -0.6785 C.ar      1 <0>        -0.0924
     12 C11        -3.3023   -2.5595    0.3316 C.ar      1 <0>        -0.0409
     13 C12        -2.6449   -3.3923    1.2236 C.ar      1 <0>        -0.0912
     14 C13        -1.2873   -3.5962    1.1088 C.ar      1 <0>        -0.0984
     15 Cl1        -5.0144   -2.3144    0.4808 Cl        1 <0>        -0.0609
     16 C14         3.0653   -2.1244   -0.0347 C.2       1 <0>         0.5727
     17 O1          3.7419   -3.0500   -0.4387 O.2       1 <0>        -0.4578
     18 N2          3.5131   -0.9015    0.2974 N.am      1 <0>        -0.6510
     19 H1         -0.8353    1.6150    1.7769 H         1 <0>         0.1362
     20 H2          1.2788    2.8678    1.8644 H         1 <0>         0.1388
     21 H3          3.3875    1.8029    1.1992 H         1 <0>         0.1362
     22 H4         -0.8529   -0.7249    1.0109 H         1 <0>         0.1323
     23 H5         -0.6954   -1.6112   -1.5909 H         1 <0>         0.1364
     24 H6         -3.1195   -1.2733   -1.3693 H         1 <0>         0.1424
     25 H7         -3.1992   -3.8859    2.0081 H         1 <0>         0.1434
     26 H8         -0.7773   -4.2490    1.8018 H         1 <0>         0.1412
     27 H9          4.4424   -0.6278    0.2475 H         1 <0>         0.4289
@<TRIPOS>BOND
     1    1    6 ar
     2    1    2 ar
     3    1   19 1
     4    2    3 ar
     5    2   20 1
     6    3    4 ar
     7    3   21 1
     8    4   18 1
     9    4    5 ar
    10    5    6 ar
    11    5    7 1
    12    6   22 1
    13    7    8 2
    14    7   16 1
    15    8    9 1
    16    9   14 ar
    17    9   10 ar
    18   10   11 ar
    19   10   23 1
    20   11   12 ar
    21   11   24 1
    22   12   13 ar
    23   12   15 1
    24   13   14 ar
    25   13   25 1
    26   14   26 1
    27   16   17 2
    28   16   18 am
    29   18   27 1
@<TRIPOS>MOLECULE
ZINC01383149
   40    43     0     0     0
SMALL
USER_CHARGES

@<TRIPOS>ATOM
      1 C1          1.0973    1.9881    3.2083 C.ar      1 <0>        -0.1058
      2 C2          1.1431    1.6882    1.8591 C.ar      1 <0>        -0.1062
      3 C3          2.1761    0.9224    1.3551 C.ar      1 <0>        -0.1001
      4 C4          3.1694    0.4535    2.2048 C.ar      1 <0>         0.1176
      5 C5          3.1206    0.7565    3.5592 C.ar      1 <0>        -0.1072
      6 C6          2.0849    1.5227    4.0570 C.ar      1 <0>        -0.1074
      7 N1          4.2178   -0.3235    1.6970 N.am      1 <0>        -0.5011
      8 C7          4.3988   -1.6760    1.9765 C.ar      1 <0>         0.1798
      9 C8          3.6686   -2.5612    2.7606 C.ar      1 <0>        -0.1346
     10 C9          4.0679   -3.8782    2.8754 C.ar      1 <0>        -0.0533
     11 C10         5.1964   -4.3337    2.2147 C.ar      1 <0>        -0.1415
     12 C11         5.9350   -3.4697    1.4311 C.ar      1 <0>        -0.0326
     13 C12         5.5405   -2.1408    1.3086 C.ar      1 <0>        -0.1814
     14 C13         6.0936   -0.9851    0.5689 C.2       1 <0>         0.2028
     15 N2          7.1601   -0.9608   -0.1931 N.2       1 <0>        -0.3815
     16 C14         7.9701   -2.0507   -0.2638 C.ar      1 <0>         0.0791
     17 C15         7.7774   -3.0078   -1.2686 C.ar      1 <0>        -0.0967
     18 C16         8.6029   -4.1092   -1.3328 C.ar      1 <0>        -0.0967
     19 C17         9.6204   -4.2718   -0.4076 C.ar      1 <0>        -0.0812
     20 C18         9.8181   -3.3310    0.5886 C.ar      1 <0>        -0.1605
     21 C19         9.0056   -2.2200    0.6639 C.ar      1 <0>        -0.0778
     22 C20        10.9284   -3.5191    1.5900 C.3       1 <0>         0.5096
     23 F1         11.6136   -4.7060    1.3090 F         1 <0>        -0.1735
     24 F2         11.8146   -2.4394    1.5120 F         1 <0>        -0.1732
     25 F3         10.3877   -3.5866    2.8785 F         1 <0>        -0.1739
     26 C21         5.1737    0.1399    0.8736 C.2       1 <0>         0.5711
     27 O1          5.2696    1.2772    0.4554 O.2       1 <0>        -0.4436
     28 H1          0.2909    2.5909    3.5992 H         1 <0>         0.1315
     29 H2          0.3701    2.0528    1.1989 H         1 <0>         0.1337
     30 H3          2.2111    0.6882    0.3014 H         1 <0>         0.1277
     31 H4          3.8916    0.3933    4.2225 H         1 <0>         0.1296
     32 H5          2.0465    1.7589    5.1101 H         1 <0>         0.1337
     33 H6          2.7869   -2.2182    3.2816 H         1 <0>         0.1354
     34 H7          3.4947   -4.5594    3.4868 H         1 <0>         0.1403
     35 H8          5.4992   -5.3657    2.3127 H         1 <0>         0.1381
     36 H9          6.8156   -3.8237    0.9155 H         1 <0>         0.1306
     37 H10         6.9838   -2.8829   -1.9905 H         1 <0>         0.1392
     38 H11         8.4557   -4.8480   -2.1067 H         1 <0>         0.1457
     39 H12        10.2633   -5.1378   -0.4634 H         1 <0>         0.1455
     40 H13         9.1641   -1.4848    1.4390 H         1 <0>         0.1391
@<TRIPOS>BOND
     1    1    6 ar
     2    1    2 ar
     3    1   28 1
     4    2    3 ar
     5    2   29 1
     6    3    4 ar
     7    3   30 1
     8    4    5 ar
     9    4    7 1
    10    5    6 ar
    11    5   31 1
    12    6   32 1
    13    7   26 am
    14    7    8 1
    15    8   13 ar
    16    8    9 ar
    17    9   10 ar
    18    9   33 1
    19   10   11 ar
    20   10   34 1
    21   11   12 ar
    22   11   35 1
    23   12   13 ar
    24   12   36 1
    25   13   14 1
    26   14   15 2
    27   14   26 1
    28   15   16 1
    29   16   21 ar
    30   16   17 ar
    31   17   18 ar
    32   17   37 1
    33   18   19 ar
    34   18   38 1
    35   19   20 ar
    36   19   39 1
    37   20   21 ar
    38   20   22 1
    39   21   40 1
    40   22   23 1
    41   22   24 1
    42   22   25 1
    43   26   27 2
@<TRIPOS>MOLECULE
ZINC05382766
   34    36     0     0     0
SMALL
USER_CHARGES

@<TRIPOS>ATOM
      1 C1         -0.0157    1.3058    0.0092 C.2       1 <0>        -0.1601
      2 C2          0.0021   -0.0041    0.0020 C.2       1 <0>        -0.1836
      3 C3         -1.2926   -0.7753    0.0102 C.3       1 <0>         0.1389
      4 N1         -1.3176   -1.6997   -1.1260 N.am      1 <0>        -0.5382
      5 C4         -1.8142   -1.3798   -2.3857 C.ar      1 <0>         0.1709
      6 C5         -2.3752   -0.2104   -2.8858 C.ar      1 <0>        -0.1395
      7 C6         -2.7979   -0.1502   -4.1990 C.ar      1 <0>        -0.0582
      8 C7         -2.6703   -1.2486   -5.0326 C.ar      1 <0>        -0.1464
      9 C8         -2.1158   -2.4189   -4.5547 C.ar      1 <0>        -0.0233
     10 C9         -1.6862   -2.4895   -3.2328 C.ar      1 <0>        -0.1268
     11 C10        -1.0655   -3.5631   -2.4266 C.2       1 <0>         0.1756
     12 N2         -0.7596   -4.7780   -2.8139 N.2       1 <0>        -0.3715
     13 C11        -0.1892   -5.6470   -1.9383 C.ar      1 <0>         0.0570
     14 C12         0.8567   -5.2243   -1.1068 C.ar      1 <0>        -0.0623
     15 C13         1.4300   -6.1107   -0.2219 C.ar      1 <0>        -0.0947
     16 C14         0.9756   -7.4184   -0.1524 C.ar      1 <0>        -0.0170
     17 C15        -0.0587   -7.8454   -0.9720 C.ar      1 <0>        -0.0349
     18 C16        -0.6474   -6.9684   -1.8583 C.ar      1 <0>        -0.0623
     19 Cl1        -0.6186   -9.4859   -0.8761 Cl        1 <0>        -0.0389
     20 Cl2         1.7054   -8.5276    0.9659 Cl        1 <0>        -0.0411
     21 C17        -0.8585   -2.9622   -1.0849 C.2       1 <0>         0.5209
     22 O1         -0.3648   -3.5141   -0.1209 O.2       1 <0>        -0.4702
     23 H1          0.9122    1.8585    0.0033 H         1 <0>         0.1058
     24 H2         -0.9582    1.8330    0.0166 H         1 <0>         0.1018
     25 H3          0.9446   -0.5313   -0.0098 H         1 <0>         0.1135
     26 H4         -1.3737   -1.3393    0.9394 H         1 <0>         0.1031
     27 H5         -2.1295   -0.0812   -0.0676 H         1 <0>         0.0965
     28 H6         -2.4809    0.6531   -2.2457 H         1 <0>         0.1322
     29 H7         -3.2327    0.7623   -4.5795 H         1 <0>         0.1376
     30 H8         -3.0053   -1.1896   -6.0577 H         1 <0>         0.1373
     31 H9         -2.0154   -3.2761   -5.2040 H         1 <0>         0.1393
     32 H10         1.2126   -4.2060   -1.1600 H         1 <0>         0.1392
     33 H11         2.2360   -5.7860    0.4193 H         1 <0>         0.1475
     34 H12        -1.4562   -7.3004   -2.4923 H         1 <0>         0.1519
@<TRIPOS>BOND
     1    1    2 2
     2    1   23 1
     3    1   24 1
     4    2    3 1
     5    2   25 1
     6    3    4 1
     7    3   26 1
     8    3   27 1
     9    4   21 am
    10    4    5 1
    11    5   10 ar
    12    5    6 ar
    13    6    7 ar
    14    6   28 1
    15    7    8 ar
    16    7   29 1
    17    8    9 ar
    18    8   30 1
    19    9   10 ar
    20    9   31 1
    21   10   11 1
    22   11   12 2
    23   11   21 1
    24   12   13 1
    25   13   18 ar
    26   13   14 ar
    27   14   15 ar
    28   14   32 1
    29   15   16 ar
    30   15   33 1
    31   16   17 ar
    32   16   20 1
    33   17   18 ar
    34   17   19 1
    35   18   34 1
    36   21   22 2
@<TRIPOS>MOLECULE
ZINC13902723
   27    29     0     0     0
SMALL
USER_CHARGES

@<TRIPOS>ATOM
      1 C1          0.0070    1.3795    0.0683 C.ar      1 <0>        -0.1442
      2 C2          1.1705    2.0837   -0.1928 C.ar      1 <0>        -0.0545
      3 C3          2.3560    1.4189   -0.4362 C.ar      1 <0>        -0.1409
      4 C4          2.3932    0.0293   -0.4216 C.ar      1 <0>         0.1780
      5 C5          1.2134   -0.6801   -0.1569 C.ar      1 <0>        -0.1845
      6 C6          0.0234   -0.0007    0.0872 C.ar      1 <0>        -0.0389
      7 C7          1.5666   -2.1155   -0.2088 C.2       1 <0>         0.1921
      8 N1          0.7714   -3.1414   -0.0217 N.2       1 <0>        -0.3743
      9 C8         -0.5691   -2.9499    0.0939 C.ar      1 <0>         0.0925
     10 C9         -1.2748   -2.2799   -0.9144 C.ar      1 <0>        -0.1174
     11 C10        -2.6336   -2.0898   -0.7896 C.ar      1 <0>        -0.0898
     12 C11        -3.3038   -2.5583    0.3283 C.ar      1 <0>        -0.0987
     13 C12        -2.6162   -3.2218    1.3307 C.ar      1 <0>        -0.0204
     14 C13        -1.2548   -3.4265    1.2198 C.ar      1 <0>        -0.0246
     15 Cl1        -0.3948   -4.2646    2.4735 Cl        1 <0>        -0.0242
     16 Cl2        -3.4686   -3.8038    2.7265 Cl        1 <0>        -0.0354
     17 C14         3.0181   -2.1408   -0.5195 C.2       1 <0>         0.5733
     18 O1          3.7056   -3.1346   -0.6507 O.2       1 <0>        -0.4540
     19 N2          3.4357   -0.8681   -0.6301 N.am      1 <0>        -0.6510
     20 H1         -0.9132    1.9107    0.2617 H         1 <0>         0.1367
     21 H2          1.1504    3.1634   -0.2064 H         1 <0>         0.1391
     22 H3          3.2564    1.9797   -0.6389 H         1 <0>         0.1367
     23 H4         -0.8834   -0.5510    0.2903 H         1 <0>         0.1337
     24 H5         -0.7548   -1.9132   -1.7870 H         1 <0>         0.1428
     25 H6         -3.1781   -1.5732   -1.5662 H         1 <0>         0.1489
     26 H7         -4.3690   -2.4050    0.4189 H         1 <0>         0.1497
     27 H8          4.3485   -0.6082   -0.8304 H         1 <0>         0.4294
@<TRIPOS>BOND
     1    1    6 ar
     2    1    2 ar
     3    1   20 1
     4    2    3 ar
     5    2   21 1
     6    3    4 ar
     7    3   22 1
     8    4   19 1
     9    4    5 ar
    10    5    6 ar
    11    5    7 1
    12    6   23 1
    13    7    8 2
    14    7   17 1
    15    8    9 1
    16    9   14 ar
    17    9   10 ar
    18   10   11 ar
    19   10   24 1
    20   11   12 ar
    21   11   25 1
    22   12   13 ar
    23   12   26 1
    24   13   14 ar
    25   13   16 1
    26   14   15 1
    27   17   18 2
    28   17   19 am
    29   19   27 1
