@<TRIPOS>MOLECULE
ZINC03996003
   53    55     0     0     0
SMALL
USER_CHARGES

@<TRIPOS>ATOM
      1 C1         -0.3161    1.0064   -0.2169 C.3       1 <0>        -0.0541
      2 N1         -0.0595   -0.4399   -0.2380 N.4       1 <0>        -0.3597
      3 C2          0.6109   -0.8365    1.0075 C.3       1 <0>        -0.0125
      4 C3          1.9920   -0.1813    1.0741 C.3       1 <0>        -0.1398
      5 C4          2.6903   -0.5944    2.3713 C.3       1 <0>         0.1388
      6 H1          2.0523   -0.3509    3.2208 H         1 <0>         0.0927
      7 C5          3.9970    0.1458    2.4960 C.ar      1 <0>        -0.1406
      8 C6          5.1064   -0.2882    1.7945 C.ar      1 <0>        -0.0598
      9 C7          6.3052    0.3900    1.9078 C.ar      1 <0>        -0.1528
     10 C8          6.3948    1.5047    2.7242 C.ar      1 <0>         0.1133
     11 C9          5.2831    1.9386    3.4262 C.ar      1 <0>        -0.1524
     12 C10         4.0840    1.2618    3.3073 C.ar      1 <0>        -0.0768
     13 F1          7.5663    2.1683    2.8360 F         1 <0>        -0.1341
     14 O1          2.9399   -2.0013    2.3508 O.3       1 <0>        -0.3044
     15 C11         3.0653   -2.6231    3.5523 C.ar      1 <0>         0.1254
     16 C12         3.0572   -1.8766    4.7229 C.ar      1 <0>        -0.1989
     17 C13         3.1843   -2.5050    5.9439 C.ar      1 <0>        -0.0703
     18 C14         3.3204   -3.8909    6.0020 C.ar      1 <0>        -0.0741
     19 C15         3.3277   -4.6376    4.8252 C.ar      1 <0>        -0.0708
     20 C16         3.1954   -4.0042    3.6074 C.ar      1 <0>        -0.1428
     21 C17         3.4578   -4.5698    7.3140 C.ar      1 <0>        -0.0439
     22 C18         3.4453   -3.8248    8.4916 C.ar      1 <0>        -0.1141
     23 C19         3.5730   -4.4617    9.7094 C.ar      1 <0>        -0.1158
     24 C20         3.7137   -5.8367    9.7623 C.ar      1 <0>        -0.1189
     25 C21         3.7272   -6.5811    8.5965 C.ar      1 <0>        -0.1153
     26 C22         3.5940   -5.9554    7.3736 C.ar      1 <0>        -0.1133
     27 C23        -1.3333   -1.1614   -0.3596 C.3       1 <0>        -0.0834
     28 C24        -1.9626   -0.8487   -1.6927 C.2       1 <0>         0.4872
     29 O2         -1.4019   -0.0946   -2.4696 O.co2     1 <0>        -0.6730
     30 O3         -3.0323   -1.3497   -1.9944 O.co2     1 <0>        -0.6385
     31 H2          0.6290    1.5418   -0.1267 H         1 <0>         0.1074
     32 H3         -0.8136    1.3006   -1.1410 H         1 <0>         0.1510
     33 H4         -0.9541    1.2499    0.6327 H         1 <0>         0.1053
     34 H5          0.0140   -0.5134    1.8603 H         1 <0>         0.1223
     35 H6          0.7216   -1.9206    1.0312 H         1 <0>         0.1300
     36 H7          2.5890   -0.5044    0.2213 H         1 <0>         0.1013
     37 H8          1.8814    0.9028    1.0503 H         1 <0>         0.1091
     38 H9          5.0363   -1.1580    1.1581 H         1 <0>         0.1381
     39 H10         7.1718    0.0505    1.3599 H         1 <0>         0.1403
     40 H11         5.3519    2.8077    4.0636 H         1 <0>         0.1406
     41 H12         3.2155    1.6026    3.8514 H         1 <0>         0.1346
     42 H13         2.9516   -0.8028    4.6772 H         1 <0>         0.1297
     43 H14         3.1786   -1.9237    6.8541 H         1 <0>         0.1291
     44 H15         3.4334   -5.7116    4.8672 H         1 <0>         0.1345
     45 H16         3.1973   -4.5827    2.6954 H         1 <0>         0.1346
     46 H17         3.3363   -2.7511    8.4515 H         1 <0>         0.1235
     47 H18         3.5635   -3.8853   10.6227 H         1 <0>         0.1248
     48 H19         3.8137   -6.3309   10.7173 H         1 <0>         0.1238
     49 H20         3.8380   -7.6544    8.6435 H         1 <0>         0.1254
     50 H21         3.5999   -6.5380    6.4642 H         1 <0>         0.1251
     51 H22        -1.1520   -2.2337   -0.2860 H         1 <0>         0.1239
     52 H23        -2.0047   -0.8508    0.4409 H         1 <0>         0.1228
     53 H24         0.5311   -0.6653   -1.0244 H         1 <0>         0.4257
@<TRIPOS>BOND
     1    1    2 1
     2    1   31 1
     3    1   32 1
     4    1   33 1
     5    2    3 1
     6    2   27 1
     7    2   53 1
     8    3    4 1
     9    3   34 1
    10    3   35 1
    11    4    5 1
    12    4   36 1
    13    4   37 1
    14    5    6 1
    15    5    7 1
    16    5   14 1
    17    7   12 ar
    18    7    8 ar
    19    8    9 ar
    20    8   38 1
    21    9   10 ar
    22    9   39 1
    23   10   11 ar
    24   10   13 1
    25   11   12 ar
    26   11   40 1
    27   12   41 1
    28   14   15 1
    29   15   20 ar
    30   15   16 ar
    31   16   17 ar
    32   16   42 1
    33   17   18 ar
    34   17   43 1
    35   18   19 ar
    36   18   21 1
    37   19   20 ar
    38   19   44 1
    39   20   45 1
    40   21   26 ar
    41   21   22 ar
    42   22   23 ar
    43   22   46 1
    44   23   24 ar
    45   23   47 1
    46   24   25 ar
    47   24   48 1
    48   25   26 ar
    49   25   49 1
    50   26   50 1
    51   27   28 1
    52   27   51 1
    53   27   52 1
    54   28   29 2
    55   28   30 1
