@<TRIPOS>MOLECULE
ZINC01558399
   26    28     0     0     0
SMALL
USER_CHARGES
4,5,6,7-tetrachloro-2-phenyl-isoindoline-1,3-dione
@<TRIPOS>ATOM
      1 C1          2.3962    0.0307   -0.0211 C.ar      1 <0>        -0.1206
      2 C2          1.2082   -0.6769   -0.0131 C.ar      1 <0>        -0.0981
      3 C3          0.0021   -0.0041    0.0020 C.ar      1 <0>        -0.1354
      4 C4         -0.0168    1.3841    0.0097 C.ar      1 <0>         0.1194
      5 C5          1.1777    2.0918    0.0020 C.ar      1 <0>        -0.1354
      6 C6          2.3807    1.4134   -0.0135 C.ar      1 <0>        -0.0981
      7 N1         -1.2391    2.0698    0.0192 N.am      1 <0>        -0.5108
      8 C7         -2.4455    1.4745    0.0159 C.2       1 <0>         0.5812
      9 O1         -2.6448    0.2763    0.0037 O.2       1 <0>        -0.4166
     10 C8         -3.4867    2.5212    0.0323 C.ar      1 <0>        -0.1073
     11 C9         -2.7961    3.7523    0.0357 C.ar      1 <0>        -0.1073
     12 C10        -3.5074    4.9421    0.0452 C.ar      1 <0>         0.0448
     13 C11        -4.8969    4.9143    0.0512 C.ar      1 <0>        -0.0017
     14 C12        -5.5735    3.7080    0.0484 C.ar      1 <0>        -0.0017
     15 C13        -4.8728    2.5078    0.0394 C.ar      1 <0>         0.0448
     16 Cl1        -5.7299    0.9981    0.0370 Cl        1 <0>         0.0163
     17 Cl2        -7.3094    3.6930    0.0566 Cl        1 <0>         0.0185
     18 Cl3        -5.7892    6.4034    0.0631 Cl        1 <0>         0.0185
     19 Cl4        -2.6660    6.4606    0.0500 Cl        1 <0>         0.0163
     20 C14        -1.3600    3.4095    0.0270 C.2       1 <0>         0.5812
     21 O2         -0.4414    4.2043    0.0264 O.2       1 <0>        -0.4166
     22 H1          3.3381   -0.4976   -0.0329 H         1 <0>         0.1297
     23 H2          1.2235   -1.7568   -0.0191 H         1 <0>         0.1340
     24 H3         -0.9255   -0.5573    0.0083 H         1 <0>         0.1555
     25 H4          1.1662    3.1718    0.0076 H         1 <0>         0.1555
     26 H5          3.3101    1.9634   -0.0198 H         1 <0>         0.1340
@<TRIPOS>BOND
     1    1    6 ar
     2    1    2 ar
     3    1   22 1
     4    2    3 ar
     5    2   23 1
     6    3    4 ar
     7    3   24 1
     8    4    5 ar
     9    4    7 1
    10    5    6 ar
    11    5   25 1
    12    6   26 1
    13    7   20 am
    14    7    8 am
    15    8    9 2
    16    8   10 1
    17   10   15 ar
    18   10   11 ar
    19   11   12 ar
    20   11   20 1
    21   12   13 ar
    22   12   19 1
    23   13   14 ar
    24   13   18 1
    25   14   15 ar
    26   14   17 1
    27   15   16 1
    28   20   21 2
@<TRIPOS>MOLECULE
ZINC03794714
   25    25     0     0     0
SMALL
USER_CHARGES

@<TRIPOS>ATOM
      1 C1         -0.0178    1.4636    0.0101 C.3       1 <0>        -0.0466
      2 C2          1.4163    1.9970   -0.0007 C.3       1 <0>         0.0566
      3 H1          1.9452    1.6372    0.8818 H         1 <0>         0.0917
      4 C3          2.1299    1.5015   -1.2619 C.3       1 <0>         0.0695
      5 H2          1.6316    1.9031   -2.1442 H         1 <0>         0.0909
      6 C4          2.0795   -0.0286   -1.2972 C.3       1 <0>         0.1094
      7 H3          2.6221   -0.4305   -0.4415 H         1 <0>         0.0913
      8 C5          0.6208   -0.4870   -1.2383 C.3       1 <0>         0.0351
      9 H4          0.0792   -0.0848   -2.0945 H         1 <0>         0.1577
     10 N1          0.0021   -0.0041    0.0020 N.4       1 <0>        -0.4918
     11 C6          0.5654   -2.0156   -1.2729 C.3       1 <0>         0.0570
     12 O1         -0.7972   -2.4415   -1.3354 O.3       1 <0>        -0.5813
     13 O2          2.6797   -0.4981   -2.5061 O.3       1 <0>        -0.5386
     14 O3          3.4911    1.9360   -1.2427 O.3       1 <0>        -0.5488
     15 O4          1.3941    3.4258    0.0058 O.3       1 <0>        -0.5365
     16 H5         -0.5288    1.8147    0.9066 H         1 <0>         0.1451
     17 H6         -0.5458    1.8242   -0.8727 H         1 <0>         0.1438
     18 H7          0.5329   -0.3366    0.7931 H         1 <0>         0.4276
     19 H8          1.1002   -2.3788   -2.1504 H         1 <0>         0.1086
     20 H9          1.0304   -2.4165   -0.3722 H         1 <0>         0.0746
     21 H10        -0.9084   -3.4018   -1.3601 H         1 <0>         0.4135
     22 H11         3.6059   -0.2409   -2.6111 H         1 <0>         0.4148
     23 H12         3.5970    2.8968   -1.2145 H         1 <0>         0.4074
     24 H13         0.9534    3.8088    0.7767 H         1 <0>         0.4013
     25 H14        -0.9428   -0.3526    0.0632 H         1 <0>         0.4478
@<TRIPOS>BOND
     1    1   10 1
     2    1    2 1
     3    1   16 1
     4    1   17 1
     5    2    3 1
     6    2    4 1
     7    2   15 1
     8    4    5 1
     9    4    6 1
    10    4   14 1
    11    6    7 1
    12    6    8 1
    13    6   13 1
    14    8    9 1
    15    8   10 1
    16    8   11 1
    17   10   18 1
    18   10   25 1
    19   11   12 1
    20   11   19 1
    21   11   20 1
    22   12   21 1
    23   13   22 1
    24   14   23 1
    25   15   24 1
@<TRIPOS>MOLECULE
ZINC16952677
   29    30     0     0     0
SMALL
USER_CHARGES
(1R,6S,7R,8R,8aR)-1,2,3,5,6,7,8,8a-octahydroindolizine-1,6,7,8-tetrol
@<TRIPOS>ATOM
      1 C1          2.0924    1.1577    1.2630 C.3       1 <0>        -0.1908
      2 C2          2.8449    2.4428    1.6857 C.3       1 <0>         0.0006
      3 C3          2.5588    4.8403    1.0713 C.3       1 <0>        -0.0275
      4 C4          2.3491    5.7011   -0.1839 C.3       1 <0>         0.0536
      5 H1          3.1808    5.5437   -0.8705 H         1 <0>         0.0911
      6 C5          1.0420    5.3269   -0.8817 C.3       1 <0>         0.0649
      7 H2          0.2026    5.5953   -0.2404 H         1 <0>         0.0897
      8 C6          0.9957    3.8186   -1.1706 C.3       1 <0>         0.1140
      9 H3          1.7960    3.5493   -1.8598 H         1 <0>         0.0873
     10 C7          1.1871    3.0899    0.1538 C.3       1 <0>         0.0332
     11 H4          0.4134    3.3599    0.8727 H         1 <0>         0.1666
     12 C8          1.2864    1.5618   -0.0018 C.3       1 <0>         0.1014
     13 H5          1.8286    1.2971   -0.9096 H         1 <0>         0.0956
     14 O1         -0.0110    0.9628    0.0073 O.3       1 <0>        -0.5292
     15 O2         -0.2694    3.4722   -1.7377 O.3       1 <0>        -0.5248
     16 O3          0.9428    6.0455   -2.1129 O.3       1 <0>        -0.5491
     17 O4          2.3035    7.0790    0.1923 O.3       1 <0>        -0.5367
     18 H6          1.4171    0.8361    2.0558 H         1 <0>         0.1177
     19 H7          2.8012    0.3651    1.0233 H         1 <0>         0.1128
     20 H8          2.4923    2.7811    2.6600 H         1 <0>         0.1403
     21 H9          3.9182    2.2555    1.7195 H         1 <0>         0.1426
     22 H10         1.7570    5.0278    1.7854 H         1 <0>         0.1426
     23 H11         3.5206    5.0776    1.5259 H         1 <0>         0.1459
     24 H12         0.0021   -0.0041    0.0020 H         1 <0>         0.4021
     25 H13        -0.4646    3.9248   -2.5696 H         1 <0>         0.4083
     26 H14         0.9478    7.0069   -2.0086 H         1 <0>         0.4055
     27 H15         3.1077    7.3950    0.6264 H         1 <0>         0.4007
     28 N1          2.5194    3.4067    0.6172 N.4       1 <0>        -0.3888
     29 H16         3.1908    3.2902   -0.1508 H         1 <0>         0.4305
@<TRIPOS>BOND
     1    1   12 1
     2    1    2 1
     3    1   18 1
     4    1   19 1
     5    2   20 1
     6    2   21 1
     7    2   28 1
     8    3    4 1
     9    3   22 1
    10    3   23 1
    11    3   28 1
    12    4    5 1
    13    4    6 1
    14    4   17 1
    15    6    7 1
    16    6    8 1
    17    6   16 1
    18    8    9 1
    19    8   10 1
    20    8   15 1
    21   10   11 1
    22   10   12 1
    23   10   28 1
    24   12   13 1
    25   12   14 1
    26   14   24 1
    27   15   25 1
    28   16   26 1
    29   17   27 1
    30   28   29 1
