@<TRIPOS>MOLECULE
ZINC01558399
   26    28     0     0     0
SMALL
USER_CHARGES
4,5,6,7-tetrachloro-2-phenyl-isoindoline-1,3-dione
@<TRIPOS>ATOM
      1 C1          2.3962    0.0307   -0.0211 C.ar      1 <0>        -0.1206
      2 C2          1.2082   -0.6769   -0.0131 C.ar      1 <0>        -0.0981
      3 C3          0.0021   -0.0041    0.0020 C.ar      1 <0>        -0.1354
      4 C4         -0.0168    1.3841    0.0097 C.ar      1 <0>         0.1194
      5 C5          1.1777    2.0918    0.0020 C.ar      1 <0>        -0.1354
      6 C6          2.3807    1.4134   -0.0135 C.ar      1 <0>        -0.0981
      7 N1         -1.2391    2.0698    0.0192 N.am      1 <0>        -0.5108
      8 C7         -2.4455    1.4745    0.0159 C.2       1 <0>         0.5812
      9 O1         -2.6448    0.2763    0.0037 O.2       1 <0>        -0.4166
     10 C8         -3.4867    2.5212    0.0323 C.ar      1 <0>        -0.1073
     11 C9         -2.7961    3.7523    0.0357 C.ar      1 <0>        -0.1073
     12 C10        -3.5074    4.9421    0.0452 C.ar      1 <0>         0.0448
     13 C11        -4.8969    4.9143    0.0512 C.ar      1 <0>        -0.0017
     14 C12        -5.5735    3.7080    0.0484 C.ar      1 <0>        -0.0017
     15 C13        -4.8728    2.5078    0.0394 C.ar      1 <0>         0.0448
     16 Cl1        -5.7299    0.9981    0.0370 Cl        1 <0>         0.0163
     17 Cl2        -7.3094    3.6930    0.0566 Cl        1 <0>         0.0185
     18 Cl3        -5.7892    6.4034    0.0631 Cl        1 <0>         0.0185
     19 Cl4        -2.6660    6.4606    0.0500 Cl        1 <0>         0.0163
     20 C14        -1.3600    3.4095    0.0270 C.2       1 <0>         0.5812
     21 O2         -0.4414    4.2043    0.0264 O.2       1 <0>        -0.4166
     22 H1          3.3381   -0.4976   -0.0329 H         1 <0>         0.1297
     23 H2          1.2235   -1.7568   -0.0191 H         1 <0>         0.1340
     24 H3         -0.9255   -0.5573    0.0083 H         1 <0>         0.1555
     25 H4          1.1662    3.1718    0.0076 H         1 <0>         0.1555
     26 H5          3.3101    1.9634   -0.0198 H         1 <0>         0.1340
@<TRIPOS>BOND
     1    1    6 ar
     2    1    2 ar
     3    1   22 1
     4    2    3 ar
     5    2   23 1
     6    3    4 ar
     7    3   24 1
     8    4    5 ar
     9    4    7 1
    10    5    6 ar
    11    5   25 1
    12    6   26 1
    13    7   20 am
    14    7    8 am
    15    8    9 2
    16    8   10 1
    17   10   15 ar
    18   10   11 ar
    19   11   12 ar
    20   11   20 1
    21   12   13 ar
    22   12   19 1
    23   13   14 ar
    24   13   18 1
    25   14   15 ar
    26   14   17 1
    27   15   16 1
    28   20   21 2
@<TRIPOS>MOLECULE
ZINC05131852
   29    29     0     0     0
SMALL
USER_CHARGES
2,6-bis(hydroxymethyl)piperidine-3,4,5-triol
@<TRIPOS>ATOM
      1 C1         -0.0707   -0.4444   -2.4062 C.3       1 <0>         0.0507
      2 C2         -0.0919    1.0854   -2.4140 C.3       1 <0>         0.0469
      3 H1         -0.6593    1.4364   -3.2760 H         1 <0>         0.1570
      4 C3          1.3415    1.6149   -2.4971 C.3       1 <0>         0.0643
      5 H2          1.8155    1.2408   -3.4046 H         1 <0>         0.1052
      6 C4          2.1290    1.1362   -1.2744 C.3       1 <0>         0.0293
      7 C5          1.4231    1.6153   -0.0029 C.3       1 <0>         0.1043
      8 H3          1.9555    1.2415    0.8718 H         1 <0>         0.1094
      9 C6         -0.0127    1.0858    0.0080 C.3       1 <0>         0.0447
     10 H4          0.0021   -0.0041    0.0020 H         1 <0>         0.1533
     11 C7         -0.7284    1.5790    1.2671 C.3       1 <0>         0.0574
     12 O1         -2.0290    0.9910    1.3370 O.3       1 <0>        -0.5796
     13 O2          1.4050    3.0440    0.0233 O.3       1 <0>        -0.5491
     14 O3          3.4521    1.6744   -1.3177 O.3       1 <0>        -0.5481
     15 O4          1.3225    3.0436   -2.5230 O.3       1 <0>        -0.5450
     16 O5         -1.4105   -0.9396   -2.4461 O.3       1 <0>        -0.5704
     17 H5          0.4759   -0.8046   -3.2777 H         1 <0>         0.0974
     18 H6          0.4199   -0.7963   -1.4987 H         1 <0>         0.0716
     19 H7          2.1785    0.0473   -1.2752 H         1 <0>         0.0893
     20 H8         -0.1528    1.2935    2.1476 H         1 <0>         0.0946
     21 H9         -0.8219    2.6644    1.2304 H         1 <0>         0.0841
     22 H10        -2.5410    1.2598    2.1121 H         1 <0>         0.4114
     23 H11         2.2832    3.4486    0.0181 H         1 <0>         0.4097
     24 H12         3.9583    1.4113   -2.0985 H         1 <0>         0.4007
     25 H13         2.1995    3.4478   -2.5726 H         1 <0>         0.4070
     26 H14        -1.4734   -1.9046   -2.4436 H         1 <0>         0.4123
     27 N1         -0.7339    1.5791   -1.1808 N.4       1 <0>        -0.5003
     28 H15        -1.7051    1.2474   -1.1490 H         1 <0>         0.4466
     29 H16        -0.7227    2.6058   -1.1813 H         1 <0>         0.4456
@<TRIPOS>BOND
     1    1    2 1
     2    1   16 1
     3    1   17 1
     4    1   18 1
     5    2    3 1
     6    2    4 1
     7    2   27 1
     8    4    5 1
     9    4    6 1
    10    4   15 1
    11    6    7 1
    12    6   14 1
    13    6   19 1
    14    7    8 1
    15    7    9 1
    16    7   13 1
    17    9   10 1
    18    9   11 1
    19    9   27 1
    20   11   12 1
    21   11   20 1
    22   11   21 1
    23   12   22 1
    24   13   23 1
    25   14   24 1
    26   15   25 1
    27   16   26 1
    28   27   28 1
    29   27   29 1
