@<TRIPOS>MOLECULE
ZINC00538559
   46    49     0     0     0
SMALL
USER_CHARGES

@<TRIPOS>ATOM
      1 C1          0.0039    1.3877    0.0353 C.ar      1 <0>        -0.1106
      2 C2          1.1929    2.0925    0.0189 C.ar      1 <0>        -0.1152
      3 C3          2.3977    1.4151   -0.0044 C.ar      1 <0>        -0.0969
      4 C4          2.4133    0.0328   -0.0108 C.ar      1 <0>        -0.0789
      5 C5          1.2243   -0.6720    0.0065 C.ar      1 <0>        -0.1092
      6 C6          0.0195    0.0055    0.0283 C.ar      1 <0>        -0.1144
      7 C7          3.7267   -0.7057   -0.0371 C.3       1 <0>        -0.0821
      8 H1          4.5589   -0.0017   -0.0361 H         1 <0>         0.1349
      9 C8          3.8019   -1.6265   -1.2690 C.3       1 <0>         0.2157
     10 H2          2.8893   -1.5472   -1.8598 H         1 <0>         0.1146
     11 N1          3.9348   -2.9785   -0.7092 N.am      1 <0>        -0.4287
     12 N2          3.9408   -2.9029    0.6822 N.am      1 <0>        -0.5318
     13 C9          3.8282   -1.6459    1.1426 C.2       1 <0>         0.5444
     14 O1          3.8098   -1.3180    2.3101 O.2       1 <0>        -0.4899
     15 C10         4.0348   -4.1138   -1.4286 C.2       1 <0>         0.7309
     16 O2          4.0185   -4.0670   -2.6435 O.2       1 <0>        -0.5311
     17 N3          4.1528   -5.3008   -0.8014 N.am      1 <0>        -0.6829
     18 C11         4.1591   -6.4873   -1.5442 C.ar      1 <0>         0.1745
     19 C12         3.5666   -7.6330   -1.0299 C.ar      1 <0>        -0.1379
     20 C13         3.5743   -8.8023   -1.7648 C.ar      1 <0>        -0.0698
     21 C14         4.1717   -8.8328   -3.0124 C.ar      1 <0>        -0.1043
     22 C15         4.7628   -7.6927   -3.5272 C.ar      1 <0>        -0.0697
     23 C16         4.7529   -6.5192   -2.7990 C.ar      1 <0>        -0.1124
     24 Br1         4.1808  -10.4358   -4.0155 Br        1 <0>        -0.0473
     25 C17         5.0037   -1.2822   -2.1106 C.ar      1 <0>        -0.0990
     26 C18         6.2551   -1.7471   -1.7515 C.ar      1 <0>        -0.0994
     27 C19         7.3574   -1.4313   -2.5235 C.ar      1 <0>        -0.1175
     28 C20         7.2084   -0.6511   -3.6548 C.ar      1 <0>        -0.1098
     29 C21         5.9569   -0.1870   -4.0145 C.ar      1 <0>        -0.1155
     30 C22         4.8539   -0.5063   -3.2448 C.ar      1 <0>        -0.0925
     31 H3         -0.9373    1.9170    0.0580 H         1 <0>         0.1258
     32 H4          1.1807    3.1724    0.0239 H         1 <0>         0.1278
     33 H5          3.3267    1.9657   -0.0179 H         1 <0>         0.1275
     34 H6          1.2365   -1.7519    0.0011 H         1 <0>         0.1175
     35 H7         -0.9095   -0.5451    0.0414 H         1 <0>         0.1255
     36 H8          4.0195   -3.6783    1.2596 H         1 <0>         0.4250
     37 H9          4.2333   -5.3330    0.1647 H         1 <0>         0.4064
     38 H10         3.1004   -7.6099   -0.0559 H         1 <0>         0.1355
     39 H11         3.1139   -9.6938   -1.3652 H         1 <0>         0.1388
     40 H12         5.2284   -7.7192   -4.5013 H         1 <0>         0.1379
     41 H13         5.2102   -5.6283   -3.2033 H         1 <0>         0.1505
     42 H14         6.3715   -2.3566   -0.8676 H         1 <0>         0.1138
     43 H15         8.3352   -1.7938   -2.2425 H         1 <0>         0.1230
     44 H16         8.0698   -0.4038   -4.2576 H         1 <0>         0.1243
     45 H17         5.8405    0.4228   -4.8982 H         1 <0>         0.1266
     46 H18         3.8756   -0.1469   -3.5279 H         1 <0>         0.1257
@<TRIPOS>BOND
     1    1    6 ar
     2    1    2 ar
     3    1   31 1
     4    2    3 ar
     5    2   32 1
     6    3    4 ar
     7    3   33 1
     8    4    5 ar
     9    4    7 1
    10    5    6 ar
    11    5   34 1
    12    6   35 1
    13    7    8 1
    14    7   13 1
    15    7    9 1
    16    9   10 1
    17    9   11 1
    18    9   25 1
    19   11   12 1
    20   11   15 am
    21   12   13 am
    22   12   36 1
    23   13   14 2
    24   15   16 2
    25   15   17 am
    26   17   18 1
    27   17   37 1
    28   18   23 ar
    29   18   19 ar
    30   19   20 ar
    31   19   38 1
    32   20   21 ar
    33   20   39 1
    34   21   22 ar
    35   21   24 1
    36   22   23 ar
    37   22   40 1
    38   23   41 1
    39   25   30 ar
    40   25   26 ar
    41   26   27 ar
    42   26   42 1
    43   27   28 ar
    44   27   43 1
    45   28   29 ar
    46   28   44 1
    47   29   30 ar
    48   29   45 1
    49   30   46 1
@<TRIPOS>MOLECULE
ZINC04217536
   78    80     0     0     0
SMALL
USER_CHARGES
3-[2-[2-amino-3-(1H-indol-3-yl)propanoyl]amino-4-methylsulfanyl-butanoyl]amino-4-(1-carbamoyl-2-phenyl-ethyl)amino-4-oxo-butanoic acid
@<TRIPOS>ATOM
      1 C1         -1.9361    2.6279   10.8859 C.3       1 <0>        -0.1199
      2 S1         -1.4070    2.6536    9.1510 S.3       1 <0>        -0.2585
      3 C2          0.2710    1.9658    9.1936 C.3       1 <0>        -0.0733
      4 C3          0.8436    1.9298    7.7753 C.3       1 <0>        -0.1154
      5 C4          2.2589    1.3496    7.8112 C.3       1 <0>         0.1327
      6 H1          2.2394    0.3740    8.2969 H         1 <0>         0.1289
      7 C5          2.7763    1.1998    6.4038 C.2       1 <0>         0.5111
      8 O1          3.7799    1.7881    6.0608 O.2       1 <0>        -0.5524
      9 N1          2.1237    0.4122    5.5262 N.am      1 <0>        -0.6672
     10 C6          2.5626    0.3511    4.1298 C.3       1 <0>         0.1525
     11 H2          2.9770    1.3156    3.8366 H         1 <0>         0.1034
     12 C7          3.6334   -0.7313    3.9786 C.3       1 <0>        -0.1731
     13 C8          3.0857   -2.0504    4.4593 C.2       1 <0>         0.4657
     14 O2          1.9324   -2.1340    4.8097 O.co2     1 <0>        -0.6188
     15 C9          1.3864    0.0206    3.2475 C.2       1 <0>         0.5414
     16 O3          0.2895   -0.1473    3.7370 O.2       1 <0>        -0.5187
     17 N2          1.5534   -0.0883    1.9146 N.am      1 <0>        -0.7076
     18 C10         0.4099   -0.4095    1.0570 C.3       1 <0>         0.1422
     19 H3         -0.4889    0.0576    1.4596 H         1 <0>         0.1141
     20 C11         0.6687    0.1166   -0.3562 C.3       1 <0>        -0.0857
     21 C12         0.7351    1.6219   -0.3275 C.ar      1 <0>        -0.0795
     22 C13        -0.4133    2.3681   -0.5153 C.ar      1 <0>        -0.1137
     23 C14        -0.3532    3.7488   -0.4841 C.ar      1 <0>        -0.1178
     24 C15         0.8571    4.3834   -0.2757 C.ar      1 <0>        -0.1230
     25 C16         2.0063    3.6373   -0.0932 C.ar      1 <0>        -0.1168
     26 C17         1.9453    2.2565   -0.1191 C.ar      1 <0>        -0.1104
     27 C18         0.2214   -1.9039    1.0099 C.2       1 <0>         0.4900
     28 O4          0.9686   -2.6292    1.6316 O.2       1 <0>        -0.4905
     29 N3         -0.7776   -2.4344    0.2770 N.am      1 <0>        -0.8607
     30 N4          3.1372    2.2510    8.5611 N.am      1 <0>        -0.6755
     31 C19         3.2058    2.1621    9.9042 C.2       1 <0>         0.5030
     32 O5          2.5404    1.3359   10.4920 O.2       1 <0>        -0.5208
     33 C20         4.1094    3.0893   10.6755 C.3       1 <0>         0.0207
     34 H4          4.0601    4.0883   10.2423 H         1 <0>         0.1626
     35 C21         5.5482    2.5737   10.6061 C.3       1 <0>        -0.0555
     36 C22         6.4691    3.5636   11.2719 C.2       1 <0>        -0.2333
     37 C23         7.1708    4.5342   10.6657 C.2       1 <0>         0.1055
     38 N5          7.8931    5.2359   11.5922 N.pl3     1 <0>        -0.5850
     39 H5          8.4755    5.9857   11.3932 H         1 <0>         0.4257
     40 C24         7.6748    4.7153   12.8481 C.ar      1 <0>         0.0996
     41 C25         6.7732    3.6449   12.7026 C.ar      1 <0>        -0.1171
     42 C26         6.3649    2.9209   13.8240 C.ar      1 <0>        -0.1122
     43 C27         6.8439    3.2561   15.0593 C.ar      1 <0>        -0.1208
     44 C28         7.7337    4.3107   15.2080 C.ar      1 <0>        -0.0941
     45 C29         8.1497    5.0388   14.1147 C.ar      1 <0>        -0.1128
     46 H6         -1.9219    1.6024   11.2549 H         1 <0>         0.0782
     47 H7         -1.2572    3.2379   11.4818 H         1 <0>         0.0689
     48 H8         -2.9470    3.0280   10.9635 H         1 <0>         0.1035
     49 H9          0.2388    0.9541    9.5982 H         1 <0>         0.0933
     50 H10         0.9035    2.5897    9.8251 H         1 <0>         0.0699
     51 H11         0.8758    2.9414    7.3707 H         1 <0>         0.0860
     52 H12         0.2111    1.3059    7.1438 H         1 <0>         0.1045
     53 H13         1.3635   -0.1142    5.8191 H         1 <0>         0.4232
     54 H14         3.9183   -0.8165    2.9300 H         1 <0>         0.0769
     55 H15         4.5075   -0.4629    4.5720 H         1 <0>         0.0783
     56 H16         2.4306    0.0460    1.5231 H         1 <0>         0.4002
     57 H17        -0.1403   -0.1989   -1.0152 H         1 <0>         0.0939
     58 H18         1.6139   -0.2818   -0.7249 H         1 <0>         0.0873
     59 H19        -1.3581    1.8724   -0.6826 H         1 <0>         0.1226
     60 H20        -1.2511    4.3318   -0.6271 H         1 <0>         0.1211
     61 H21         0.9048    5.4622   -0.2558 H         1 <0>         0.1194
     62 H22         2.9519    4.1331    0.0693 H         1 <0>         0.1215
     63 H23         2.8433    1.6736    0.0231 H         1 <0>         0.1211
     64 H24        -1.3752   -1.8543   -0.2202 H         1 <0>         0.3952
     65 H25        -0.8989   -3.3963    0.2467 H         1 <0>         0.4013
     66 H26         3.6695    2.9117    8.0909 H         1 <0>         0.4190
     67 H27         5.6153    1.6138   11.1181 H         1 <0>         0.1051
     68 H28         5.8401    2.4505    9.5632 H         1 <0>         0.1262
     69 H29         7.1647    4.7330    9.6042 H         1 <0>         0.1819
     70 H30         5.6729    2.0988   13.7158 H         1 <0>         0.1173
     71 H31         6.5272    2.6959   15.9267 H         1 <0>         0.1307
     72 H32         8.1036    4.5635   16.1907 H         1 <0>         0.1336
     73 H33         8.8418    5.8582   14.2409 H         1 <0>         0.1280
     74 H34         2.7511    3.5395   12.1556 H         1 <0>         0.4373
     75 H35         3.7119    2.2270   12.5022 H         1 <0>         0.4410
     76 O6          3.8791   -3.1324    4.4980 O.co2     1 <0>        -0.7688
     77 N6          3.6928    3.1572   12.0873 N.4       1 <0>        -0.6301
     78 H36         4.3399    3.7666   12.6013 H         1 <0>         0.4436
@<TRIPOS>BOND
     1    1    2 1
     2    1   46 1
     3    1   47 1
     4    1   48 1
     5    2    3 1
     6    3    4 1
     7    3   49 1
     8    3   50 1
     9    4    5 1
    10    4   51 1
    11    4   52 1
    12    5    6 1
    13    5    7 1
    14    5   30 1
    15    7    8 2
    16    7    9 am
    17    9   10 1
    18    9   53 1
    19   10   11 1
    20   10   12 1
    21   10   15 1
    22   12   13 1
    23   12   54 1
    24   12   55 1
    25   13   14 2
    26   13   76 1
    27   15   16 2
    28   15   17 am
    29   17   18 1
    30   17   56 1
    31   18   19 1
    32   18   20 1
    33   18   27 1
    34   20   21 1
    35   20   57 1
    36   20   58 1
    37   21   26 ar
    38   21   22 ar
    39   22   23 ar
    40   22   59 1
    41   23   24 ar
    42   23   60 1
    43   24   25 ar
    44   24   61 1
    45   25   26 ar
    46   25   62 1
    47   26   63 1
    48   27   28 2
    49   27   29 am
    50   29   64 1
    51   29   65 1
    52   30   31 am
    53   30   66 1
    54   31   32 2
    55   31   33 1
    56   33   34 1
    57   33   35 1
    58   33   77 1
    59   35   36 1
    60   35   67 1
    61   35   68 1
    62   36   41 1
    63   36   37 2
    64   37   38 1
    65   37   69 1
    66   38   39 1
    67   38   40 1
    68   40   45 ar
    69   40   41 ar
    70   41   42 ar
    71   42   43 ar
    72   42   70 1
    73   43   44 ar
    74   43   71 1
    75   44   45 ar
    76   44   72 1
    77   45   73 1
    78   74   77 1
    79   75   77 1
    80   77   78 1
@<TRIPOS>MOLECULE
ZINC13454576
   78    83     0     0     0
SMALL
USER_CHARGES
2-adamantyl N-[(1R)-2-[[(1S)-1-benzyl-2-hydroxy-ethyl]amino]-1-(1H-indol-3-ylmethyl)-1-methyl-2-oxo-ethyl]carbamate
@<TRIPOS>ATOM
      1 C1         -2.7162    0.8331    3.6203 C.3       1 <0>        -0.1657
      2 C2         -1.2808    1.3627    3.6094 C.3       1 <0>         0.1913
      3 C3         -0.5408    0.8559    4.8489 C.3       1 <0>        -0.0483
      4 C4          0.8320    1.4752    4.9026 C.2       1 <0>        -0.1700
      5 C5          1.9713    0.9322    4.4453 C.2       1 <0>         0.0674
      6 N1          3.0168    1.7871    4.6655 N.pl3     1 <0>        -0.5970
      7 H1          3.9391    1.6144    4.4195 H         1 <0>         0.4134
      8 C6          2.5657    2.9264    5.2934 C.ar      1 <0>         0.0925
      9 C7          1.1773    2.7810    5.4696 C.ar      1 <0>        -0.0907
     10 C8          0.4435    3.7955    6.0868 C.ar      1 <0>        -0.0813
     11 C9          1.0785    4.9263    6.5175 C.ar      1 <0>        -0.1451
     12 C10         2.4479    5.0744    6.3466 C.ar      1 <0>        -0.0995
     13 C11         3.1913    4.0857    5.7397 C.ar      1 <0>        -0.1317
     14 C12        -0.5754    0.8767    2.3695 C.2       1 <0>         0.5303
     15 O1          0.1030   -0.1277    2.4121 O.2       1 <0>        -0.5238
     16 N2         -0.6984    1.5583    1.2133 N.am      1 <0>        -0.7115
     17 C13        -0.0127    1.0858    0.0080 C.3       1 <0>         0.1562
     18 H2          0.0021   -0.0041    0.0020 H         1 <0>         0.1039
     19 C14        -0.7527    1.5927   -1.2315 C.3       1 <0>        -0.0850
     20 C15        -2.1255    0.9734   -1.2852 C.ar      1 <0>        -0.0838
     21 C16        -2.3185   -0.2230   -1.9502 C.ar      1 <0>        -0.1163
     22 C17        -3.5769   -0.7935   -1.9953 C.ar      1 <0>        -0.1159
     23 C18        -4.6442   -0.1623   -1.3844 C.ar      1 <0>        -0.1219
     24 C19        -4.4522    1.0367   -0.7239 C.ar      1 <0>        -0.1160
     25 C20        -3.1929    1.6046   -0.6743 C.ar      1 <0>        -0.1135
     26 C21         1.4227    1.6154   -0.0028 C.3       1 <0>         0.0640
     27 O2          1.4040    3.0401   -0.1124 O.3       1 <0>        -0.5677
     28 N3         -1.3007    2.8275    3.6175 N.am      1 <0>        -0.6998
     29 C22        -1.8837    3.4880    4.6375 C.2       1 <0>         0.6620
     30 O3         -2.3928    2.8684    5.5504 O.2       1 <0>        -0.5671
     31 O4         -1.9019    4.8342    4.6449 O.3       1 <0>        -0.3565
     32 C23        -2.5469    5.4785    5.7750 C.3       1 <0>         0.1245
     33 C24        -4.0294    5.6917    5.4625 C.3       1 <0>        -0.1007
     34 C25        -4.7091    6.3706    6.6533 C.3       1 <0>        -0.1059
     35 C26        -4.0440    7.7229    6.9173 C.3       1 <0>        -0.0894
     36 C27        -4.1816    8.6095    5.6780 C.3       1 <0>        -0.1091
     37 C28        -3.5020    7.9306    4.4871 C.3       1 <0>        -0.0863
     38 C29        -4.1671    6.5783    4.2232 C.3       1 <0>        -0.1042
     39 C30        -2.0194    7.7174    4.7996 C.3       1 <0>        -0.1044
     40 C31        -1.8818    6.8308    6.0389 C.3       1 <0>        -0.0845
     41 C32        -2.5614    7.5098    7.2297 C.3       1 <0>        -0.1073
     42 H3         -2.7014   -0.2568    3.6143 H         1 <0>         0.0751
     43 H4         -3.2264    1.1846    4.5171 H         1 <0>         0.0961
     44 H5         -3.2434    1.1942    2.7372 H         1 <0>         0.0623
     45 H6         -1.0991    1.1318    5.7435 H         1 <0>         0.1014
     46 H7         -0.4483   -0.2290    4.7986 H         1 <0>         0.0901
     47 H8          2.0507   -0.0352    3.9719 H         1 <0>         0.1714
     48 H9         -0.6223    3.6870    6.2234 H         1 <0>         0.1274
     49 H10         0.5103    5.7111    6.9946 H         1 <0>         0.1180
     50 H11         2.9356    5.9738    6.6924 H         1 <0>         0.1221
     51 H12         4.2563    4.2106    5.6106 H         1 <0>         0.1161
     52 H13        -1.2410    2.3616    1.1793 H         1 <0>         0.4000
     53 H14        -0.8452    2.6775   -1.1811 H         1 <0>         0.0883
     54 H15        -0.1944    1.3168   -2.1261 H         1 <0>         0.0884
     55 H16        -1.4855   -0.7139   -2.4313 H         1 <0>         0.1208
     56 H17        -3.7269   -1.7301   -2.5117 H         1 <0>         0.1217
     57 H18        -5.6282   -0.6058   -1.4235 H         1 <0>         0.1210
     58 H19        -5.2862    1.5300   -0.2469 H         1 <0>         0.1211
     59 H20        -3.0430    2.5415   -0.1585 H         1 <0>         0.1161
     60 H21         1.9227    1.3287    0.9223 H         1 <0>         0.0520
     61 H22         1.9595    1.1927   -0.8521 H         1 <0>         0.0554
     62 H23         2.2819    3.4451   -0.1253 H         1 <0>         0.3804
     63 H24        -0.8942    3.3221    2.8887 H         1 <0>         0.4039
     64 H25        -2.4489    4.8469    6.6579 H         1 <0>         0.0859
     65 H26        -4.5033    4.7283    5.2745 H         1 <0>         0.0756
     66 H27        -5.7653    6.5225    6.4308 H         1 <0>         0.0689
     67 H28        -4.6110    5.7390    7.5363 H         1 <0>         0.0655
     68 H29        -4.5282    8.2066    7.7656 H         1 <0>         0.0737
     69 H30        -3.7077    9.5729    5.8660 H         1 <0>         0.0627
     70 H31        -5.2378    8.7614    5.4554 H         1 <0>         0.0620
     71 H32        -3.6000    8.5622    3.6042 H         1 <0>         0.0701
     72 H33        -5.2233    6.7301    4.0006 H         1 <0>         0.0617
     73 H34        -3.6829    6.0946    3.3749 H         1 <0>         0.0654
     74 H35        -1.5456    8.6809    4.9876 H         1 <0>         0.0630
     75 H36        -1.5352    7.2338    3.9512 H         1 <0>         0.0698
     76 H37        -0.8256    6.6790    6.2615 H         1 <0>         0.0828
     77 H38        -2.4634    6.8781    8.1126 H         1 <0>         0.0659
     78 H39        -2.0876    8.4732    7.4177 H         1 <0>         0.0728
@<TRIPOS>BOND
     1    1    2 1
     2    1   42 1
     3    1   43 1
     4    1   44 1
     5    2    3 1
     6    2   14 1
     7    2   28 1
     8    3    4 1
     9    3   45 1
    10    3   46 1
    11    4    9 1
    12    4    5 2
    13    5    6 1
    14    5   47 1
    15    6    7 1
    16    6    8 1
    17    8   13 ar
    18    8    9 ar
    19    9   10 ar
    20   10   11 ar
    21   10   48 1
    22   11   12 ar
    23   11   49 1
    24   12   13 ar
    25   12   50 1
    26   13   51 1
    27   14   15 2
    28   14   16 am
    29   16   17 1
    30   16   52 1
    31   17   18 1
    32   17   19 1
    33   17   26 1
    34   19   20 1
    35   19   53 1
    36   19   54 1
    37   20   25 ar
    38   20   21 ar
    39   21   22 ar
    40   21   55 1
    41   22   23 ar
    42   22   56 1
    43   23   24 ar
    44   23   57 1
    45   24   25 ar
    46   24   58 1
    47   25   59 1
    48   26   27 1
    49   26   60 1
    50   26   61 1
    51   27   62 1
    52   28   29 am
    53   28   63 1
    54   29   30 2
    55   29   31 1
    56   31   32 1
    57   32   40 1
    58   32   33 1
    59   32   64 1
    60   33   38 1
    61   33   34 1
    62   33   65 1
    63   34   35 1
    64   34   66 1
    65   34   67 1
    66   35   41 1
    67   35   36 1
    68   35   68 1
    69   36   37 1
    70   36   69 1
    71   36   70 1
    72   37   38 1
    73   37   39 1
    74   37   71 1
    75   38   72 1
    76   38   73 1
    77   39   40 1
    78   39   74 1
    79   39   75 1
    80   40   41 1
    81   40   76 1
    82   41   77 1
    83   41   78 1
@<TRIPOS>MOLECULE
ZINC03920670
   86    91     0     0     0
SMALL
USER_CHARGES
4-[2-[2-(2-adamantyloxycarbonylamino)-3-(1H-indol-3-yl)-2-methyl-propanoyl]amino-1-phenyl-ethyl]amino-4-oxo-butanoic acid
@<TRIPOS>ATOM
      1 C1          3.2239    8.1673   -2.1756 C.3       1 <0>        -0.1678
      2 C2          1.7860    7.7594   -2.5028 C.3       1 <0>         0.1898
      3 C3          1.3953    8.3212   -3.8712 C.3       1 <0>        -0.0467
      4 C4         -0.0577    8.0250   -4.1397 C.2       1 <0>        -0.1710
      5 C5         -0.5456    6.9829   -4.8311 C.2       1 <0>         0.0679
      6 N1         -1.9122    7.0437   -4.8641 N.pl3     1 <0>        -0.5971
      7 H1         -2.4882    6.3991   -5.3042 H         1 <0>         0.4134
      8 C6         -2.3478    8.1593   -4.1847 C.ar      1 <0>         0.0917
      9 C7         -1.2052    8.8229   -3.7010 C.ar      1 <0>        -0.0910
     10 C8         -1.3433   10.0007   -2.9646 C.ar      1 <0>        -0.0805
     11 C9         -2.5895   10.5038   -2.7169 C.ar      1 <0>        -0.1457
     12 C10        -3.7196    9.8532   -3.1922 C.ar      1 <0>        -0.1000
     13 C11        -3.6063    8.6893   -3.9209 C.ar      1 <0>        -0.1325
     14 C12         1.6839    6.2561   -2.5292 C.2       1 <0>         0.5291
     15 O1          1.7853    5.6598   -3.5804 O.2       1 <0>        -0.5211
     16 N2          1.4799    5.5743   -1.3846 N.am      1 <0>        -0.7265
     17 C13         1.3807    4.1129   -1.4103 C.3       1 <0>         0.1193
     18 C14         1.1505    3.5924    0.0099 C.3       1 <0>         0.1751
     19 H2          0.1833    3.9407    0.3723 H         1 <0>         0.1024
     20 C15         1.1709    2.0855    0.0021 C.ar      1 <0>        -0.0938
     21 C16        -0.0167    1.3781    0.0096 C.ar      1 <0>        -0.1004
     22 C17         0.0021   -0.0041    0.0020 C.ar      1 <0>        -0.1209
     23 C18         1.2084   -0.6789   -0.0136 C.ar      1 <0>        -0.1178
     24 C19         2.3961    0.0285   -0.0212 C.ar      1 <0>        -0.1206
     25 C20         2.3773    1.4107   -0.0136 C.ar      1 <0>        -0.0992
     26 N3          2.2101    4.0905    0.8904 N.am      1 <0>        -0.7364
     27 C21         1.9861    4.2093    2.2141 C.2       1 <0>         0.5156
     28 O2          0.9072    3.9038    2.6763 O.2       1 <0>        -0.5308
     29 C22         3.0761    4.7218    3.1198 C.3       1 <0>        -0.1168
     30 C23         2.5657    4.7589    4.5617 C.3       1 <0>        -0.1404
     31 C24         3.6557    5.2713    5.4674 C.2       1 <0>         0.4602
     32 O3          4.7305    5.5757    5.0069 O.co2     1 <0>        -0.6444
     33 N4          0.8825    8.2923   -1.4800 N.am      1 <0>        -0.7010
     34 C25         0.8052    9.6223   -1.2760 C.2       1 <0>         0.6637
     35 O4          1.4850   10.3794   -1.9403 O.2       1 <0>        -0.5685
     36 O5         -0.0251   10.1121   -0.3361 O.3       1 <0>        -0.3551
     37 C26        -0.0566   11.5543   -0.1712 C.3       1 <0>         0.1250
     38 C27         0.9881   11.9721    0.8657 C.3       1 <0>        -0.1013
     39 C28         0.9549   13.4918    1.0394 C.3       1 <0>        -0.1050
     40 C29        -0.4349   13.9206    1.5144 C.3       1 <0>        -0.0887
     41 C30        -0.7468   13.2473    2.8524 C.3       1 <0>        -0.1085
     42 C31        -0.7136   11.7276    2.6786 C.3       1 <0>        -0.0874
     43 C32         0.6761   11.2988    2.2037 C.3       1 <0>        -0.1071
     44 C33        -1.7583   11.3099    1.6418 C.3       1 <0>        -0.1047
     45 C34        -1.4464   11.9831    0.3037 C.3       1 <0>        -0.0842
     46 C35        -1.4796   13.5029    0.4775 C.3       1 <0>        -0.1056
     47 H3          3.8961    7.7708   -2.9365 H         1 <0>         0.0760
     48 H4          3.2977    9.2547   -2.1565 H         1 <0>         0.0969
     49 H5          3.5022    7.7671   -1.2007 H         1 <0>         0.0655
     50 H6          1.5538    9.3996   -3.8800 H         1 <0>         0.1017
     51 H7          2.0093    7.8574   -4.6432 H         1 <0>         0.0904
     52 H8          0.0519    6.2100   -5.2914 H         1 <0>         0.1725
     53 H9         -0.4683   10.5125   -2.5919 H         1 <0>         0.1285
     54 H10        -2.6959   11.4148   -2.1467 H         1 <0>         0.1182
     55 H11        -4.6978   10.2632   -2.9884 H         1 <0>         0.1213
     56 H12        -4.4918    8.1901   -4.2858 H         1 <0>         0.1155
     57 H13         1.3988    6.0513   -0.5438 H         1 <0>         0.4040
     58 H14         2.3055    3.6929   -1.8058 H         1 <0>         0.0800
     59 H15         0.5461    3.8165   -2.0456 H         1 <0>         0.0850
     60 H16        -0.9592    1.9054    0.0170 H         1 <0>         0.1214
     61 H17        -0.9258   -0.5567    0.0079 H         1 <0>         0.1214
     62 H18         1.2231   -1.7588   -0.0196 H         1 <0>         0.1202
     63 H19         3.3386   -0.4987   -0.0327 H         1 <0>         0.1219
     64 H20         3.3052    1.9634   -0.0192 H         1 <0>         0.1206
     65 H21         3.0730    4.3349    0.5207 H         1 <0>         0.4016
     66 H22         3.9409    4.0612    3.0574 H         1 <0>         0.0926
     67 H23         3.3633    5.7266    2.8101 H         1 <0>         0.0926
     68 H24         1.7009    5.4194    4.6241 H         1 <0>         0.0700
     69 H25         2.2784    3.7540    4.8714 H         1 <0>         0.0694
     70 H26         0.3399    7.6880   -0.9497 H         1 <0>         0.4035
     71 H27         0.1656   12.0340   -1.1244 H         1 <0>         0.0848
     72 H28         1.9782   11.6666    0.5273 H         1 <0>         0.0767
     73 H29         1.6991   13.7894    1.7781 H         1 <0>         0.0695
     74 H30         1.1771   13.9714    0.0862 H         1 <0>         0.0637
     75 H31        -0.4586   15.0033    1.6382 H         1 <0>         0.0718
     76 H32        -1.7369   13.5528    3.1908 H         1 <0>         0.0613
     77 H33        -0.0026   13.5449    3.5911 H         1 <0>         0.0628
     78 H34        -0.9359   11.2479    3.6319 H         1 <0>         0.0728
     79 H35         1.4204   11.5964    2.9424 H         1 <0>         0.0647
     80 H36         0.6998   10.2161    2.0799 H         1 <0>         0.0684
     81 H37        -2.7484   11.6153    1.9801 H         1 <0>         0.0619
     82 H38        -1.7346   10.2272    1.5180 H         1 <0>         0.0708
     83 H39        -2.1906   11.6855   -0.4350 H         1 <0>         0.0813
     84 H40        -1.2574   13.9825   -0.4757 H         1 <0>         0.0641
     85 H41        -2.4697   13.8083    0.8158 H         1 <0>         0.0712
     86 O6          3.4325    5.3896    6.7857 O.co2     1 <0>        -0.7714
@<TRIPOS>BOND
     1    1    2 1
     2    1   47 1
     3    1   48 1
     4    1   49 1
     5    2    3 1
     6    2   14 1
     7    2   33 1
     8    3    4 1
     9    3   50 1
    10    3   51 1
    11    4    9 1
    12    4    5 2
    13    5    6 1
    14    5   52 1
    15    6    7 1
    16    6    8 1
    17    8   13 ar
    18    8    9 ar
    19    9   10 ar
    20   10   11 ar
    21   10   53 1
    22   11   12 ar
    23   11   54 1
    24   12   13 ar
    25   12   55 1
    26   13   56 1
    27   14   15 2
    28   14   16 am
    29   16   17 1
    30   16   57 1
    31   17   18 1
    32   17   58 1
    33   17   59 1
    34   18   19 1
    35   18   20 1
    36   18   26 1
    37   20   25 ar
    38   20   21 ar
    39   21   22 ar
    40   21   60 1
    41   22   23 ar
    42   22   61 1
    43   23   24 ar
    44   23   62 1
    45   24   25 ar
    46   24   63 1
    47   25   64 1
    48   26   27 am
    49   26   65 1
    50   27   28 2
    51   27   29 1
    52   29   30 1
    53   29   66 1
    54   29   67 1
    55   30   31 1
    56   30   68 1
    57   30   69 1
    58   31   32 2
    59   31   86 1
    60   33   34 am
    61   33   70 1
    62   34   35 2
    63   34   36 1
    64   36   37 1
    65   37   45 1
    66   37   38 1
    67   37   71 1
    68   38   43 1
    69   38   39 1
    70   38   72 1
    71   39   40 1
    72   39   73 1
    73   39   74 1
    74   40   46 1
    75   40   41 1
    76   40   75 1
    77   41   42 1
    78   41   76 1
    79   41   77 1
    80   42   43 1
    81   42   44 1
    82   42   78 1
    83   43   79 1
    84   43   80 1
    85   44   45 1
    86   44   81 1
    87   44   82 1
    88   45   46 1
    89   45   83 1
    90   46   84 1
    91   46   85 1
@<TRIPOS>MOLECULE
ZINC00598730
   46    49     0     0     0
SMALL
USER_CHARGES

@<TRIPOS>ATOM
      1 C1         -0.0365    1.3681    0.0341 C.ar      1 <0>        -0.1107
      2 C2          1.1494    2.0782    0.0177 C.ar      1 <0>        -0.1151
      3 C3          2.3572    1.4061   -0.0054 C.ar      1 <0>        -0.0969
      4 C4          2.3790    0.0239   -0.0116 C.ar      1 <0>        -0.0788
      5 C5          1.1931   -0.6862    0.0057 C.ar      1 <0>        -0.1093
      6 C6         -0.0146   -0.0141    0.0274 C.ar      1 <0>        -0.1144
      7 C7          3.6957   -0.7087   -0.0378 C.3       1 <0>        -0.0823
      8 H1          4.5242   -0.0009   -0.0618 H         1 <0>         0.1348
      9 C8          3.8181   -1.6396    1.1826 C.3       1 <0>         0.2159
     10 H2          2.9265   -1.5696    1.8057 H         1 <0>         0.1147
     11 N1          3.9371   -2.9861    0.6067 N.am      1 <0>        -0.4287
     12 N2          3.8940   -2.8986   -0.7833 N.am      1 <0>        -0.5318
     13 C9          3.7598   -1.6383   -1.2285 C.2       1 <0>         0.5444
     14 O1          3.6990   -1.3005   -2.3917 O.2       1 <0>        -0.4899
     15 C10         4.0672   -4.1271    1.3122 C.2       1 <0>         0.7309
     16 O2          4.0933   -4.0909    2.5273 O.2       1 <0>        -0.5311
     17 N3          4.1682   -5.3082    0.6709 N.am      1 <0>        -0.6830
     18 C11         4.4003   -6.4817    1.3979 C.ar      1 <0>         0.1750
     19 C12         5.1926   -7.4876    0.8605 C.ar      1 <0>        -0.1380
     20 C13         5.4199   -8.6444    1.5799 C.ar      1 <0>        -0.0696
     21 C14         4.8590   -8.8017    2.8349 C.ar      1 <0>        -0.1044
     22 C15         4.0691   -7.8010    3.3727 C.ar      1 <0>        -0.0695
     23 C16         3.8433   -6.6397    2.6600 C.ar      1 <0>        -0.1127
     24 Br1         5.1719  -10.3873    3.8166 Br        1 <0>        -0.0473
     25 C17         5.0472   -1.2971    1.9846 C.ar      1 <0>        -0.0991
     26 C18         6.2886   -1.7435    1.5715 C.ar      1 <0>        -0.0987
     27 C19         7.4160   -1.4293    2.3071 C.ar      1 <0>        -0.1173
     28 C20         7.3021   -0.6682    3.4555 C.ar      1 <0>        -0.1097
     29 C21         6.0608   -0.2210    3.8680 C.ar      1 <0>        -0.1155
     30 C22         4.9339   -0.5316    3.1301 C.ar      1 <0>        -0.0928
     31 H3         -0.9800    1.8931    0.0567 H         1 <0>         0.1258
     32 H4          1.1323    3.1580    0.0225 H         1 <0>         0.1278
     33 H5          3.2837    1.9609   -0.0190 H         1 <0>         0.1274
     34 H6          1.2102   -1.7660    0.0006 H         1 <0>         0.1175
     35 H7         -0.9412   -0.5689    0.0406 H         1 <0>         0.1255
     36 H8          3.9556   -3.6687   -1.3699 H         1 <0>         0.4251
     37 H9          4.0801   -5.3450   -0.2944 H         1 <0>         0.4064
     38 H10         5.6303   -7.3655   -0.1192 H         1 <0>         0.1353
     39 H11         6.0357   -9.4272    1.1623 H         1 <0>         0.1387
     40 H12         3.6325   -7.9263    4.3525 H         1 <0>         0.1381
     41 H13         3.2306   -5.8569    3.0823 H         1 <0>         0.1503
     42 H14         6.3776   -2.3381    0.6744 H         1 <0>         0.1136
     43 H15         8.3857   -1.7787    1.9848 H         1 <0>         0.1227
     44 H16         8.1828   -0.4233    4.0305 H         1 <0>         0.1242
     45 H17         5.9718    0.3733    4.7653 H         1 <0>         0.1266
     46 H18         3.9646   -0.1791    3.4503 H         1 <0>         0.1258
@<TRIPOS>BOND
     1    1    6 ar
     2    1    2 ar
     3    1   31 1
     4    2    3 ar
     5    2   32 1
     6    3    4 ar
     7    3   33 1
     8    4    5 ar
     9    4    7 1
    10    5    6 ar
    11    5   34 1
    12    6   35 1
    13    7    8 1
    14    7   13 1
    15    7    9 1
    16    9   10 1
    17    9   11 1
    18    9   25 1
    19   11   12 1
    20   11   15 am
    21   12   13 am
    22   12   36 1
    23   13   14 2
    24   15   16 2
    25   15   17 am
    26   17   18 1
    27   17   37 1
    28   18   23 ar
    29   18   19 ar
    30   19   20 ar
    31   19   38 1
    32   20   21 ar
    33   20   39 1
    34   21   22 ar
    35   21   24 1
    36   22   23 ar
    37   22   40 1
    38   23   41 1
    39   25   30 ar
    40   25   26 ar
    41   26   27 ar
    42   26   42 1
    43   27   28 ar
    44   27   43 1
    45   28   29 ar
    46   28   44 1
    47   29   30 ar
    48   29   45 1
    49   30   46 1
@<TRIPOS>MOLECULE
ZINC03802924
   46    49     0     0     0
SMALL
USER_CHARGES

@<TRIPOS>ATOM
      1 C1          0.4156    2.1677    0.4975 C.ar      1 <0>        -0.1104
      2 C2          0.4797    0.9555    1.1589 C.ar      1 <0>        -0.1136
      3 C3          1.5615    0.1176    0.9630 C.ar      1 <0>        -0.0939
      4 C4          2.5791    0.4917    0.1053 C.ar      1 <0>        -0.0686
      5 C5          2.5145    1.7035   -0.5568 C.ar      1 <0>        -0.0992
      6 C6          1.4333    2.5420   -0.3598 C.ar      1 <0>        -0.1152
      7 C7          3.7589   -0.4213   -0.1075 C.3       1 <0>        -0.0851
      8 H1          4.6157    0.1439   -0.4744 H         1 <0>         0.1364
      9 C8          3.3965   -1.5489   -1.0915 C.3       1 <0>         0.2131
     10 H2          4.0751   -1.5425   -1.9444 H         1 <0>         0.1153
     11 N1          3.5634   -2.7835   -0.3124 N.am      1 <0>        -0.4287
     12 N2          3.9739   -2.4616    0.9796 N.am      1 <0>        -0.5323
     13 C9          4.1098   -1.1396    1.1758 C.2       1 <0>         0.5432
     14 O1          4.4554   -0.6087    2.2100 O.2       1 <0>        -0.4897
     15 C10         3.3520   -4.0317   -0.7749 C.2       1 <0>         0.7301
     16 O2          2.9931   -4.2015   -1.9241 O.2       1 <0>        -0.5293
     17 N3          3.5386   -5.0916    0.0364 N.am      1 <0>        -0.6832
     18 C11         3.4209   -6.3908   -0.4711 C.ar      1 <0>         0.1785
     19 C12         2.9216   -7.4084    0.3311 C.ar      1 <0>        -0.1393
     20 C13         2.8065   -8.6894   -0.1721 C.ar      1 <0>        -0.0679
     21 C14         3.1882   -8.9593   -1.4744 C.ar      1 <0>        -0.1058
     22 C15         3.6860   -7.9473   -2.2759 C.ar      1 <0>        -0.0675
     23 C16         3.7978   -6.6633   -1.7795 C.ar      1 <0>        -0.1138
     24 Br1         3.0298  -10.7145   -2.1597 Br        1 <0>        -0.0471
     25 C17         1.9697   -1.4047   -1.5546 C.ar      1 <0>        -0.0857
     26 C18         0.9439   -1.9681   -0.8189 C.ar      1 <0>        -0.0884
     27 C19        -0.3648   -1.8359   -1.2437 C.ar      1 <0>        -0.1160
     28 C20        -0.6479   -1.1398   -2.4040 C.ar      1 <0>        -0.1104
     29 C21         0.3778   -0.5757   -3.1393 C.ar      1 <0>        -0.1142
     30 C22         1.6862   -0.7043   -2.7121 C.ar      1 <0>        -0.0942
     31 H3         -0.4318    2.8203    0.6471 H         1 <0>         0.1219
     32 H4         -0.3153    0.6633    1.8290 H         1 <0>         0.1209
     33 H5          1.6119   -0.8291    1.4802 H         1 <0>         0.1107
     34 H6          3.3097    1.9959   -1.2266 H         1 <0>         0.1242
     35 H7          1.3831    3.4889   -0.8767 H         1 <0>         0.1241
     36 H8          4.1452   -3.1241    1.6671 H         1 <0>         0.4250
     37 H9          3.7545   -4.9541    0.9721 H         1 <0>         0.4062
     38 H10         2.6239   -7.1983    1.3478 H         1 <0>         0.1355
     39 H11         2.4186   -9.4812    0.4515 H         1 <0>         0.1389
     40 H12         3.9832   -8.1607   -3.2920 H         1 <0>         0.1382
     41 H13         4.1819   -5.8727   -2.4071 H         1 <0>         0.1456
     42 H14         1.1651   -2.5119    0.0876 H         1 <0>         0.1079
     43 H15        -1.1662   -2.2766   -0.6693 H         1 <0>         0.1183
     44 H16        -1.6704   -1.0371   -2.7363 H         1 <0>         0.1203
     45 H17         0.1567   -0.0322   -4.0460 H         1 <0>         0.1229
     46 H18         2.4872   -0.2603   -3.2846 H         1 <0>         0.1220
@<TRIPOS>BOND
     1    1    6 ar
     2    1    2 ar
     3    1   31 1
     4    2    3 ar
     5    2   32 1
     6    3    4 ar
     7    3   33 1
     8    4    5 ar
     9    4    7 1
    10    5    6 ar
    11    5   34 1
    12    6   35 1
    13    7    8 1
    14    7   13 1
    15    7    9 1
    16    9   10 1
    17    9   11 1
    18    9   25 1
    19   11   12 1
    20   11   15 am
    21   12   13 am
    22   12   36 1
    23   13   14 2
    24   15   16 2
    25   15   17 am
    26   17   18 1
    27   17   37 1
    28   18   23 ar
    29   18   19 ar
    30   19   20 ar
    31   19   38 1
    32   20   21 ar
    33   20   39 1
    34   21   22 ar
    35   21   24 1
    36   22   23 ar
    37   22   40 1
    38   23   41 1
    39   25   30 ar
    40   25   26 ar
    41   26   27 ar
    42   26   42 1
    43   27   28 ar
    44   27   43 1
    45   28   29 ar
    46   28   44 1
    47   29   30 ar
    48   29   45 1
    49   30   46 1
@<TRIPOS>MOLECULE
ZINC13831209
   46    49     0     0     0
SMALL
USER_CHARGES

@<TRIPOS>ATOM
      1 C1          0.7419    2.0288    0.3244 C.ar      1 <0>        -0.1105
      2 C2          2.0244    2.4939    0.5476 C.ar      1 <0>        -0.1150
      3 C3          3.1015    1.6360    0.4267 C.ar      1 <0>        -0.0993
      4 C4          2.8962    0.3129    0.0831 C.ar      1 <0>        -0.0681
      5 C5          1.6136   -0.1524   -0.1392 C.ar      1 <0>        -0.0940
      6 C6          0.5366    0.7058   -0.0197 C.ar      1 <0>        -0.1134
      7 C7          4.0706   -0.6221   -0.0497 C.3       1 <0>        -0.0850
      8 H1          4.9843   -0.0599   -0.2426 H         1 <0>         0.1363
      9 C8          4.2234   -1.4782    1.2210 C.3       1 <0>         0.2127
     10 H2          5.2135   -1.3407    1.6558 H         1 <0>         0.1149
     11 N1          4.0558   -2.8613    0.7541 N.am      1 <0>        -0.4287
     12 N2          3.8297   -2.8596   -0.6208 N.am      1 <0>        -0.5321
     13 C9          3.8248   -1.6262   -1.1530 C.2       1 <0>         0.5432
     14 O1          3.6511   -1.3603   -2.3235 O.2       1 <0>        -0.4897
     15 C10         4.1123   -3.9594    1.5335 C.2       1 <0>         0.7302
     16 O2          4.3164   -3.8480    2.7269 O.2       1 <0>        -0.5293
     17 N3          3.9426   -5.1810    0.9899 N.am      1 <0>        -0.6835
     18 C11         3.8922   -6.3123    1.8128 C.ar      1 <0>         0.1780
     19 C12         4.4053   -7.5221    1.3641 C.ar      1 <0>        -0.1391
     20 C13         4.3543   -8.6368    2.1780 C.ar      1 <0>        -0.0681
     21 C14         3.7925   -8.5488    3.4393 C.ar      1 <0>        -0.1055
     22 C15         3.2805   -7.3446    3.8889 C.ar      1 <0>        -0.0677
     23 C16         3.3341   -6.2254    3.0813 C.ar      1 <0>        -0.1132
     24 Br1         3.7238  -10.0772    4.5506 Br        1 <0>        -0.0472
     25 C17         3.1558   -1.1258    2.2245 C.ar      1 <0>        -0.0848
     26 C18         1.9317   -1.7669    2.1852 C.ar      1 <0>        -0.0897
     27 C19         0.9523   -1.4436    3.1056 C.ar      1 <0>        -0.1162
     28 C20         1.1972   -0.4797    4.0657 C.ar      1 <0>        -0.1105
     29 C21         2.4216    0.1607    4.1056 C.ar      1 <0>        -0.1138
     30 C22         3.4025   -0.1656    3.1878 C.ar      1 <0>        -0.0941
     31 H3         -0.1000    2.6980    0.4232 H         1 <0>         0.1219
     32 H4          2.1848    3.5276    0.8161 H         1 <0>         0.1241
     33 H5          4.1036    1.9996    0.6004 H         1 <0>         0.1241
     34 H6          1.4532   -1.1861   -0.4080 H         1 <0>         0.1107
     35 H7         -0.4654    0.3423   -0.1938 H         1 <0>         0.1209
     36 H8          3.6911   -3.6665   -1.1410 H         1 <0>         0.4250
     37 H9          3.8554   -5.2762    0.0286 H         1 <0>         0.4063
     38 H10         4.8436   -7.5914    0.3795 H         1 <0>         0.1358
     39 H11         4.7529   -9.5780    1.8294 H         1 <0>         0.1390
     40 H12         2.8425   -7.2786    4.8739 H         1 <0>         0.1380
     41 H13         2.9387   -5.2846    3.4346 H         1 <0>         0.1456
     42 H14         1.7403   -2.5200    1.4351 H         1 <0>         0.1085
     43 H15        -0.0043   -1.9439    3.0745 H         1 <0>         0.1186
     44 H16         0.4318   -0.2267    4.7844 H         1 <0>         0.1204
     45 H17         2.6129    0.9140    4.8555 H         1 <0>         0.1228
     46 H18         4.3604    0.3320    3.2213 H         1 <0>         0.1219
@<TRIPOS>BOND
     1    1    6 ar
     2    1    2 ar
     3    1   31 1
     4    2    3 ar
     5    2   32 1
     6    3    4 ar
     7    3   33 1
     8    4    5 ar
     9    4    7 1
    10    5    6 ar
    11    5   34 1
    12    6   35 1
    13    7    8 1
    14    7   13 1
    15    7    9 1
    16    9   10 1
    17    9   11 1
    18    9   25 1
    19   11   12 1
    20   11   15 am
    21   12   13 am
    22   12   36 1
    23   13   14 2
    24   15   16 2
    25   15   17 am
    26   17   18 1
    27   17   37 1
    28   18   23 ar
    29   18   19 ar
    30   19   20 ar
    31   19   38 1
    32   20   21 ar
    33   20   39 1
    34   21   22 ar
    35   21   24 1
    36   22   23 ar
    37   22   40 1
    38   23   41 1
    39   25   30 ar
    40   25   26 ar
    41   26   27 ar
    42   26   42 1
    43   27   28 ar
    44   27   43 1
    45   28   29 ar
    46   28   44 1
    47   29   30 ar
    48   29   45 1
    49   30   46 1
@<TRIPOS>MOLECULE
ZINC02013702
   57    61     0     0     0
SMALL
USER_CHARGES

@<TRIPOS>ATOM
      1 C1          1.3586   -1.5562   -4.8314 C.3       1 <0>        -0.1496
      2 C2          0.6938   -1.5152   -3.4540 C.3       1 <0>         0.0769
      3 C3          0.6185   -0.0668   -2.9669 C.3       1 <0>        -0.1835
      4 O1         -0.6257   -2.0562   -3.5456 O.3       1 <0>        -0.3070
      5 C4         -1.1614   -2.5719   -2.4081 C.ar      1 <0>         0.1472
      6 C5         -0.4787   -2.4575   -1.2050 C.ar      1 <0>        -0.1957
      7 C6         -1.0222   -2.9815   -0.0477 C.ar      1 <0>        -0.0639
      8 C7         -2.2463   -3.6211   -0.0843 C.ar      1 <0>        -0.1316
      9 C8         -2.9338   -3.7385   -1.2852 C.ar      1 <0>         0.1461
     10 C9         -2.3924   -3.2074   -2.4476 C.ar      1 <0>        -0.1418
     11 N1         -4.1748   -4.3868   -1.3223 N.am      1 <0>        -0.5008
     12 C10        -4.2729   -5.6237   -1.8806 C.2       1 <0>         0.4045
     13 N2         -5.3862   -6.2879   -1.9520 N.2       1 <0>        -0.5102
     14 C11        -6.5477   -5.7836   -1.4656 C.ar      1 <0>         0.1548
     15 C12        -7.7452   -6.4980   -1.5418 C.ar      1 <0>        -0.1096
     16 C13        -8.9008   -5.9480   -1.0347 C.ar      1 <0>        -0.0712
     17 C14        -8.8918   -4.6893   -0.4475 C.ar      1 <0>        -0.1386
     18 C15        -7.7232   -3.9651   -0.3605 C.ar      1 <0>        -0.0398
     19 C16        -6.5421   -4.5040   -0.8673 C.ar      1 <0>        -0.1981
     20 C17        -5.2646   -3.7799   -0.7973 C.2       1 <0>         0.5503
     21 O2         -5.1906   -2.6757   -0.2902 O.2       1 <0>        -0.4949
     22 C18        -3.0262   -6.2545   -2.4453 C.3       1 <0>        -0.0713
     23 C19        -3.3409   -7.6772   -2.9120 C.3       1 <0>        -0.0246
     24 C20        -2.0942   -8.3080   -3.4766 C.2       1 <0>        -0.1664
     25 C21        -1.7306   -8.3404   -4.7684 C.2       1 <0>         0.0622
     26 N3         -0.5379   -8.9977   -4.9010 N.pl3     1 <0>        -0.5923
     27 H1         -0.0743   -9.1472   -5.7398 H         1 <0>         0.4189
     28 C22        -0.0934   -9.4152   -3.6658 C.ar      1 <0>         0.1090
     29 C23        -1.0462   -8.9965   -2.7192 C.ar      1 <0>        -0.0971
     30 C24        -0.8550   -9.2796   -1.3655 C.ar      1 <0>        -0.0367
     31 C25         0.2700   -9.9659   -0.9655 C.ar      1 <0>        -0.1156
     32 C26         1.2119  -10.3756   -1.9003 C.ar      1 <0>        -0.0736
     33 C27         1.0332  -10.1106   -3.2402 C.ar      1 <0>        -0.1223
     34 Br1         0.5340  -10.3519    0.8668 Br        1 <0>        -0.0535
     35 H2          2.3650   -1.1436   -4.7615 H         1 <0>         0.0792
     36 H3          1.4122   -2.5881   -5.1784 H         1 <0>         0.0654
     37 H4          0.7721   -0.9661   -5.5356 H         1 <0>         0.0682
     38 H5          1.2803   -2.1053   -2.7498 H         1 <0>         0.0758
     39 H6          0.0320    0.5233   -3.6711 H         1 <0>         0.0692
     40 H7          0.1449   -0.0376   -1.9856 H         1 <0>         0.0639
     41 H8          1.6250    0.3458   -2.8970 H         1 <0>         0.0747
     42 H9          0.4787   -1.9587   -1.1735 H         1 <0>         0.1374
     43 H10        -0.4890   -2.8911    0.8871 H         1 <0>         0.1367
     44 H11        -2.6686   -4.0304    0.8215 H         1 <0>         0.1284
     45 H12        -2.9273   -3.2931   -3.3819 H         1 <0>         0.1355
     46 H13        -7.7646   -7.4773   -1.9967 H         1 <0>         0.1414
     47 H14        -9.8260   -6.5019   -1.0945 H         1 <0>         0.1356
     48 H15        -9.8090   -4.2746   -0.0561 H         1 <0>         0.1344
     49 H16        -7.7223   -2.9867    0.0968 H         1 <0>         0.1377
     50 H17        -2.6716   -5.6649   -3.2908 H         1 <0>         0.1003
     51 H18        -2.2548   -6.2867   -1.6759 H         1 <0>         0.0982
     52 H19        -3.6955   -8.2668   -2.0665 H         1 <0>         0.0823
     53 H20        -4.1123   -7.6449   -3.6814 H         1 <0>         0.0862
     54 H21        -2.2960   -7.9116   -5.5825 H         1 <0>         0.1737
     55 H22        -1.5852   -8.9617   -0.6360 H         1 <0>         0.1315
     56 H23         2.0903  -10.9125   -1.5740 H         1 <0>         0.1349
     57 H24         1.7728  -10.4328   -3.9583 H         1 <0>         0.1287
@<TRIPOS>BOND
     1    1    2 1
     2    1   35 1
     3    1   36 1
     4    1   37 1
     5    2    3 1
     6    2    4 1
     7    2   38 1
     8    3   39 1
     9    3   40 1
    10    3   41 1
    11    4    5 1
    12    5   10 ar
    13    5    6 ar
    14    6    7 ar
    15    6   42 1
    16    7    8 ar
    17    7   43 1
    18    8    9 ar
    19    8   44 1
    20    9   10 ar
    21    9   11 1
    22   10   45 1
    23   11   20 am
    24   11   12 1
    25   12   13 2
    26   12   22 1
    27   13   14 1
    28   14   19 ar
    29   14   15 ar
    30   15   16 ar
    31   15   46 1
    32   16   17 ar
    33   16   47 1
    34   17   18 ar
    35   17   48 1
    36   18   19 ar
    37   18   49 1
    38   19   20 1
    39   20   21 2
    40   22   23 1
    41   22   50 1
    42   22   51 1
    43   23   24 1
    44   23   52 1
    45   23   53 1
    46   24   29 1
    47   24   25 2
    48   25   26 1
    49   25   54 1
    50   26   27 1
    51   26   28 1
    52   28   33 ar
    53   28   29 ar
    54   29   30 ar
    55   30   31 ar
    56   30   55 1
    57   31   32 ar
    58   31   34 1
    59   32   33 ar
    60   32   56 1
    61   33   57 1
@<TRIPOS>MOLECULE
ZINC00586243
   51    55     0     0     0
SMALL
USER_CHARGES
N-(2-methyl-3-oxo-6-phenyl-2,5-diazabicyclo[5.4.0]undeca-5,8,10,12-tetraen-4-yl)-1H-indole-2-carboxamide
@<TRIPOS>ATOM
      1 C1         -2.7339   -1.2157    2.0106 C.3       1 <0>         0.0620
      2 N1         -2.0377   -0.4220    0.9949 N.am      1 <0>        -0.5514
      3 C2         -2.8115    0.3745    0.1652 C.ar      1 <0>         0.1671
      4 C3         -3.8831    1.0555    0.7469 C.ar      1 <0>        -0.1492
      5 C4         -4.7002    1.8609   -0.0151 C.ar      1 <0>        -0.0726
      6 C5         -4.4651    2.0034   -1.3728 C.ar      1 <0>        -0.1310
      7 C6         -3.4136    1.3415   -1.9627 C.ar      1 <0>        -0.0599
      8 C7         -2.5716    0.5178   -1.1997 C.ar      1 <0>        -0.1390
      9 C8         -1.4654   -0.1580   -1.8956 C.2       1 <0>         0.2890
     10 N2         -0.2778   -0.3017   -1.4234 N.2       1 <0>        -0.5013
     11 C9          0.0942    0.2033   -0.1025 C.3       1 <0>         0.2918
     12 H1          1.1567    0.0304    0.0685 H         1 <0>         0.1667
     13 C10        -0.7112   -0.5219    0.9409 C.2       1 <0>         0.5019
     14 O1         -0.1371   -1.2153    1.7536 O.2       1 <0>        -0.4947
     15 N3         -0.1872    1.6392   -0.0291 N.am      1 <0>        -0.7381
     16 C11         0.8242    2.5280   -0.0888 C.2       1 <0>         0.5945
     17 O2          1.9707    2.1380   -0.2037 O.2       1 <0>        -0.5003
     18 C12         0.5418    3.9693   -0.0152 C.2       1 <0>         0.0053
     19 C13         1.4725    4.9579   -0.0644 C.2       1 <0>        -0.0898
     20 C14         0.7926    6.1956    0.0377 C.ar      1 <0>        -0.1227
     21 C15         1.2192    7.5301    0.0445 C.ar      1 <0>        -0.0560
     22 C16         0.3032    8.5348    0.1592 C.ar      1 <0>        -0.1482
     23 C17        -1.0517    8.2479    0.2702 C.ar      1 <0>        -0.0808
     24 C18        -1.4957    6.9448    0.2660 C.ar      1 <0>        -0.1359
     25 C19        -0.5804    5.9021    0.1496 C.ar      1 <0>         0.1193
     26 N4         -0.7128    4.5342    0.1092 N.pl3     1 <0>        -0.5801
     27 H2         -1.5493    4.0460    0.1615 H         1 <0>         0.4137
     28 C20        -1.7399   -0.7140   -3.2411 C.ar      1 <0>        -0.0752
     29 C21        -3.0439   -1.0447   -3.6092 C.ar      1 <0>        -0.0874
     30 C22        -3.2939   -1.5578   -4.8655 C.ar      1 <0>        -0.1261
     31 C23        -2.2530   -1.7537   -5.7555 C.ar      1 <0>        -0.0960
     32 C24        -0.9567   -1.4329   -5.3940 C.ar      1 <0>        -0.1261
     33 C25        -0.6947   -0.9143   -4.1425 C.ar      1 <0>        -0.0648
     34 H3         -2.9923   -2.1901    1.5961 H         1 <0>         0.0713
     35 H4         -2.0841   -1.3495    2.8755 H         1 <0>         0.0928
     36 H5         -3.6432   -0.6980    2.3160 H         1 <0>         0.0851
     37 H6         -4.0732    0.9492    1.8047 H         1 <0>         0.1392
     38 H7         -5.5254    2.3825    0.4467 H         1 <0>         0.1387
     39 H8         -5.1076    2.6350   -1.9684 H         1 <0>         0.1383
     40 H9         -3.2347    1.4562   -3.0216 H         1 <0>         0.1399
     41 H10        -1.1017    1.9503    0.0585 H         1 <0>         0.3962
     42 H11         2.5396    4.8237   -0.1636 H         1 <0>         0.1593
     43 H12         2.2703    7.7630   -0.0406 H         1 <0>         0.1279
     44 H13         0.6345    9.5628    0.1642 H         1 <0>         0.1268
     45 H14        -1.7635    9.0550    0.3610 H         1 <0>         0.1295
     46 H15        -2.5509    6.7319    0.3532 H         1 <0>         0.1232
     47 H16        -3.8567   -0.8961   -2.9139 H         1 <0>         0.1271
     48 H17        -4.3037   -1.8104   -5.1533 H         1 <0>         0.1286
     49 H18        -2.4531   -2.1591   -6.7363 H         1 <0>         0.1270
     50 H19        -0.1481   -1.5884   -6.0930 H         1 <0>         0.1294
     51 H20         0.3176   -0.6636   -3.8617 H         1 <0>         0.1352
@<TRIPOS>BOND
     1    1    2 1
     2    1   34 1
     3    1   35 1
     4    1   36 1
     5    2   13 am
     6    2    3 1
     7    3    8 ar
     8    3    4 ar
     9    4    5 ar
    10    4   37 1
    11    5    6 ar
    12    5   38 1
    13    6    7 ar
    14    6   39 1
    15    7    8 ar
    16    7   40 1
    17    8    9 1
    18    9   10 2
    19    9   28 1
    20   10   11 1
    21   11   12 1
    22   11   13 1
    23   11   15 1
    24   13   14 2
    25   15   16 am
    26   15   41 1
    27   16   17 2
    28   16   18 1
    29   18   26 1
    30   18   19 2
    31   19   20 1
    32   19   42 1
    33   20   25 ar
    34   20   21 ar
    35   21   22 ar
    36   21   43 1
    37   22   23 ar
    38   22   44 1
    39   23   24 ar
    40   23   45 1
    41   24   25 ar
    42   24   46 1
    43   25   26 1
    44   26   27 1
    45   28   33 ar
    46   28   29 ar
    47   29   30 ar
    48   29   47 1
    49   30   31 ar
    50   30   48 1
    51   31   32 ar
    52   31   49 1
    53   32   33 ar
    54   32   50 1
    55   33   51 1
@<TRIPOS>MOLECULE
ZINC04534207
   92    94     0     0     0
SMALL
USER_CHARGES

@<TRIPOS>ATOM
      1 C1         -0.1679    0.5599    0.2732 C.3       1 <0>        -0.1918
      2 C2         -0.0129   -0.9581    0.1612 C.3       1 <0>         0.1389
      3 C3          0.7899   -1.4783    1.3553 C.3       1 <0>        -0.1851
      4 C4         -1.3958   -1.6127    0.1523 C.3       1 <0>        -0.1393
      5 O1          0.6737   -1.2787   -1.0504 O.3       1 <0>        -0.3635
      6 C5          1.9137   -0.7764   -1.2016 C.2       1 <0>         0.6587
      7 O2          2.3995   -0.0846   -0.3287 O.2       1 <0>        -0.5340
      8 N1          2.6160   -1.0407   -2.3211 N.am      1 <0>        -0.6956
      9 C6          3.9652   -0.4941   -2.4856 C.3       1 <0>         0.1652
     10 H1          4.3717   -0.8126   -3.4455 H         1 <0>         0.1140
     11 C7          3.9055    1.0340   -2.4389 C.3       1 <0>        -0.0641
     12 C8          3.1223    1.5426   -3.6218 C.2       1 <0>        -0.1621
     13 C9          3.6259    1.9479   -4.7982 C.2       1 <0>         0.0541
     14 N2          2.6123    2.3414   -5.6289 N.pl3     1 <0>        -0.5955
     15 H2          2.7297    2.6739   -6.5326 H         1 <0>         0.4148
     16 C10         1.4008    2.1951   -4.9911 C.ar      1 <0>         0.0937
     17 C11         1.6667    1.6823   -3.7080 C.ar      1 <0>        -0.0928
     18 C12         0.6134    1.4247   -2.8289 C.ar      1 <0>        -0.0721
     19 C13        -0.6727    1.6690   -3.2210 C.ar      1 <0>        -0.1480
     20 C14        -0.9405    2.1710   -4.4869 C.ar      1 <0>        -0.0987
     21 C15         0.0846    2.4411   -5.3672 C.ar      1 <0>        -0.1343
     22 C16         4.8497   -0.9965   -1.3738 C.2       1 <0>         0.5007
     23 O3          4.3558   -1.4216   -0.3510 O.2       1 <0>        -0.5014
     24 N3          6.1898   -0.9734   -1.5161 N.am      1 <0>        -0.7065
     25 C17         7.0497   -1.4618   -0.4353 C.3       1 <0>         0.1383
     26 H3          6.5971   -1.2201    0.5264 H         1 <0>         0.1175
     27 C18         7.2099   -2.9785   -0.5568 C.3       1 <0>        -0.1054
     28 C19         5.8554   -3.6540   -0.3330 C.3       1 <0>        -0.0657
     29 S1          6.0453   -5.4522   -0.4771 S.3       1 <0>        -0.2781
     30 C20         4.3734   -6.0945   -0.1895 C.3       1 <0>        -0.1156
     31 C21         8.4022   -0.8043   -0.5334 C.2       1 <0>         0.5311
     32 O4          8.6258   -0.0064   -1.4189 O.2       1 <0>        -0.5436
     33 N4          9.3633   -1.1031    0.3630 N.am      1 <0>        -0.6740
     34 C22        10.7097   -0.5476    0.2058 C.3       1 <0>         0.1606
     35 H4         10.6395    0.4794   -0.1525 H         1 <0>         0.1171
     36 C23        11.4309   -0.5687    1.5551 C.3       1 <0>        -0.1901
     37 C24        10.7368    0.3676    2.5103 C.2       1 <0>         0.4928
     38 O5          9.8198    1.0690    2.1183 O.co2     1 <0>        -0.6819
     39 O6         11.0922    0.4237    3.6753 O.co2     1 <0>        -0.6976
     40 C25        11.4816   -1.3752   -0.7893 C.2       1 <0>         0.5180
     41 O7         10.9585   -2.3346   -1.3155 O.2       1 <0>        -0.5367
     42 N5         12.7532   -1.0492   -1.0946 N.am      1 <0>        -0.7073
     43 C26        13.5036   -1.8537   -2.0621 C.3       1 <0>         0.1368
     44 H5         12.8281   -2.2102   -2.8397 H         1 <0>         0.1150
     45 C27        14.6025   -0.9973   -2.6943 C.3       1 <0>        -0.0831
     46 C28        13.9747    0.1112   -3.4994 C.ar      1 <0>        -0.0843
     47 C29        13.6753   -0.0880   -4.8342 C.ar      1 <0>        -0.1153
     48 C30        13.0995    0.9288   -5.5726 C.ar      1 <0>        -0.1194
     49 C31        12.8226    2.1447   -4.9763 C.ar      1 <0>        -0.1197
     50 C32        13.1211    2.3437   -3.6413 C.ar      1 <0>        -0.1117
     51 C33        13.6930    1.3255   -2.9017 C.ar      1 <0>        -0.1062
     52 C34        14.1269   -3.0321   -1.3593 C.2       1 <0>         0.5029
     53 O8         13.9608   -3.1848   -0.1677 O.2       1 <0>        -0.5185
     54 N6         14.8691   -3.9162   -2.0550 N.am      1 <0>        -0.8573
     55 H6          0.8173    1.0262    0.2796 H         1 <0>         0.0907
     56 H7         -0.7398    0.9305   -0.5775 H         1 <0>         0.0609
     57 H8         -0.6916    0.8044    1.1973 H         1 <0>         0.0681
     58 H9          0.2662   -1.2338    2.2794 H         1 <0>         0.0639
     59 H10         0.9003   -2.5598    1.2755 H         1 <0>         0.0550
     60 H11         1.7751   -1.0120    1.3617 H         1 <0>         0.0967
     61 H12        -1.9677   -1.2421   -0.6984 H         1 <0>         0.0643
     62 H13        -1.2853   -2.6941    0.0725 H         1 <0>         0.0640
     63 H14        -1.9195   -1.3681    1.0764 H         1 <0>         0.0774
     64 H15         2.2281   -1.5929   -3.0179 H         1 <0>         0.4064
     65 H16         3.4177    1.3506   -1.5170 H         1 <0>         0.1042
     66 H17         4.9172    1.4383   -2.4721 H         1 <0>         0.0897
     67 H18         4.6757    1.9618   -5.0514 H         1 <0>         0.1720
     68 H19         0.8142    1.0335   -1.8425 H         1 <0>         0.1271
     69 H20        -1.4873    1.4696   -2.5405 H         1 <0>         0.1177
     70 H21        -1.9623    2.3582   -4.7826 H         1 <0>         0.1218
     71 H22        -0.1341    2.8304   -6.3506 H         1 <0>         0.1165
     72 H23         6.5848   -0.6334   -2.3342 H         1 <0>         0.4080
     73 H24         7.5794   -3.2263   -1.5519 H         1 <0>         0.0816
     74 H25         7.9194   -3.3301    0.1922 H         1 <0>         0.0876
     75 H26         5.4859   -3.4062    0.6620 H         1 <0>         0.0884
     76 H27         5.1459   -3.3024   -1.0821 H         1 <0>         0.0833
     77 H28         4.3856   -7.1824   -0.2566 H         1 <0>         0.0972
     78 H29         4.0350   -5.7955    0.8026 H         1 <0>         0.0746
     79 H30         3.6951   -5.6917   -0.9415 H         1 <0>         0.0719
     80 H31         9.1635   -1.6860    1.1122 H         1 <0>         0.4027
     81 H32        11.4133   -1.5803    1.9606 H         1 <0>         0.0710
     82 H33        12.4642   -0.2494    1.4198 H         1 <0>         0.0772
     83 H34        13.1716   -0.2819   -0.6738 H         1 <0>         0.4039
     84 H35        15.2256   -0.5684   -1.9096 H         1 <0>         0.0869
     85 H36        15.2163   -1.6178   -3.3472 H         1 <0>         0.0913
     86 H37        13.8917   -1.0380   -5.3001 H         1 <0>         0.1199
     87 H38        12.8662    0.7733   -6.6156 H         1 <0>         0.1195
     88 H39        12.3733    2.9394   -5.5534 H         1 <0>         0.1196
     89 H40        12.9050    3.2938   -3.1754 H         1 <0>         0.1238
     90 H41        13.9228    1.4797   -1.8578 H         1 <0>         0.1220
     91 H42        15.0020   -3.7941   -3.0080 H         1 <0>         0.3983
     92 H43        15.2703   -4.6747   -1.6026 H         1 <0>         0.4008
@<TRIPOS>BOND
     1    1    2 1
     2    1   55 1
     3    1   56 1
     4    1   57 1
     5    2    3 1
     6    2    4 1
     7    2    5 1
     8    3   58 1
     9    3   59 1
    10    3   60 1
    11    4   61 1
    12    4   62 1
    13    4   63 1
    14    5    6 1
    15    6    7 2
    16    6    8 am
    17    8    9 1
    18    8   64 1
    19    9   10 1
    20    9   11 1
    21    9   22 1
    22   11   12 1
    23   11   65 1
    24   11   66 1
    25   12   17 1
    26   12   13 2
    27   13   14 1
    28   13   67 1
    29   14   15 1
    30   14   16 1
    31   16   21 ar
    32   16   17 ar
    33   17   18 ar
    34   18   19 ar
    35   18   68 1
    36   19   20 ar
    37   19   69 1
    38   20   21 ar
    39   20   70 1
    40   21   71 1
    41   22   23 2
    42   22   24 am
    43   24   25 1
    44   24   72 1
    45   25   26 1
    46   25   27 1
    47   25   31 1
    48   27   28 1
    49   27   73 1
    50   27   74 1
    51   28   29 1
    52   28   75 1
    53   28   76 1
    54   29   30 1
    55   30   77 1
    56   30   78 1
    57   30   79 1
    58   31   32 2
    59   31   33 am
    60   33   34 1
    61   33   80 1
    62   34   35 1
    63   34   36 1
    64   34   40 1
    65   36   37 1
    66   36   81 1
    67   36   82 1
    68   37   38 2
    69   37   39 1
    70   40   41 2
    71   40   42 am
    72   42   43 1
    73   42   83 1
    74   43   44 1
    75   43   45 1
    76   43   52 1
    77   45   46 1
    78   45   84 1
    79   45   85 1
    80   46   51 ar
    81   46   47 ar
    82   47   48 ar
    83   47   86 1
    84   48   49 ar
    85   48   87 1
    86   49   50 ar
    87   49   88 1
    88   50   51 ar
    89   50   89 1
    90   51   90 1
    91   52   53 2
    92   52   54 am
    93   54   91 1
    94   54   92 1
@<TRIPOS>MOLECULE
ZINC00597180
   52    55     0     0     0
SMALL
USER_CHARGES
1-[(3S)-1-methyl-2-oxo-5-phenyl-3H-1,4-benzodiazepin-3-yl]-3-(m-tolyl)urea
@<TRIPOS>ATOM
      1 C1          1.3357    3.3074   -1.2278 C.3       1 <0>        -0.1166
      2 C2          1.2644    1.9479   -0.5815 C.ar      1 <0>        -0.0680
      3 C3          2.3895    1.4057    0.0126 C.ar      1 <0>        -0.1381
      4 C4          2.3284    0.1585    0.6062 C.ar      1 <0>        -0.0980
      5 C5          1.1426   -0.5500    0.6075 C.ar      1 <0>        -0.1278
      6 C6          0.0113   -0.0084    0.0119 C.ar      1 <0>         0.1723
      7 C7          0.0760    1.2446   -0.5835 C.ar      1 <0>        -0.1494
      8 N1         -1.1917   -0.7235    0.0119 N.am      1 <0>        -0.6939
      9 C8         -1.1772   -2.0667   -0.0979 C.2       1 <0>         0.7197
     10 O1         -0.1183   -2.6641   -0.1127 O.2       1 <0>        -0.5787
     11 N2         -2.3365   -2.7477   -0.1912 N.am      1 <0>        -0.7161
     12 C9         -2.3208   -4.2078   -0.3106 C.3       1 <0>         0.3052
     13 H1         -1.2960   -4.5277   -0.5502 H         1 <0>         0.1289
     14 C10        -3.2892   -4.6364   -1.3791 C.2       1 <0>         0.5085
     15 O2         -3.9660   -3.7969   -1.9341 O.2       1 <0>        -0.5049
     16 N3         -3.4248   -5.9137   -1.7288 N.am      1 <0>        -0.5495
     17 C11        -2.6776   -6.9635   -1.2177 C.ar      1 <0>         0.1720
     18 C12        -2.2623   -7.9510   -2.1136 C.ar      1 <0>        -0.1445
     19 C13        -1.5218   -9.0277   -1.6784 C.ar      1 <0>        -0.0724
     20 C14        -1.1805   -9.1413   -0.3407 C.ar      1 <0>        -0.1303
     21 C15        -1.5795   -8.1777    0.5559 C.ar      1 <0>        -0.0578
     22 C16        -2.3338   -7.0743    0.1279 C.ar      1 <0>        -0.1339
     23 C17        -2.7244   -6.0810    1.1406 C.2       1 <0>         0.2808
     24 N4         -2.7202   -4.8075    0.9619 N.2       1 <0>        -0.5079
     25 C18        -3.1542   -6.5858    2.4655 C.ar      1 <0>        -0.0676
     26 C19        -3.6813   -7.8712    2.5877 C.ar      1 <0>        -0.0881
     27 C20        -4.0763   -8.3371    3.8250 C.ar      1 <0>        -0.1253
     28 C21        -3.9589   -7.5285    4.9415 C.ar      1 <0>        -0.0995
     29 C22        -3.4413   -6.2507    4.8258 C.ar      1 <0>        -0.1268
     30 C23        -3.0388   -5.7752    3.5946 C.ar      1 <0>        -0.0680
     31 C24        -4.4404   -6.2346   -2.7347 C.3       1 <0>         0.0694
     32 H2          2.3550    3.7084   -1.1268 H         1 <0>         0.0670
     33 H3          0.6242    3.9858   -0.7342 H         1 <0>         0.0702
     34 H4          1.0799    3.2203   -2.2941 H         1 <0>         0.0697
     35 H5          3.3178    1.9577    0.0129 H         1 <0>         0.1219
     36 H6          3.2087   -0.2624    1.0690 H         1 <0>         0.1245
     37 H7          1.0953   -1.5241    1.0716 H         1 <0>         0.1381
     38 H8         -0.8010    1.6667   -1.0516 H         1 <0>         0.1240
     39 H9         -2.1491   -0.1893    0.1015 H         1 <0>         0.4314
     40 H10        -3.2945   -2.2072   -0.1777 H         1 <0>         0.4305
     41 H11        -2.5242   -7.8695   -3.1582 H         1 <0>         0.1356
     42 H12        -1.2065   -9.7846   -2.3813 H         1 <0>         0.1363
     43 H13        -0.6010   -9.9872   -0.0015 H         1 <0>         0.1361
     44 H14        -1.3106   -8.2711    1.5977 H         1 <0>         0.1378
     45 H15        -3.7773   -8.5018    1.7162 H         1 <0>         0.1277
     46 H16        -4.4814   -9.3336    3.9215 H         1 <0>         0.1281
     47 H17        -4.2729   -7.8962    5.9072 H         1 <0>         0.1257
     48 H18        -3.3524   -5.6240    5.7009 H         1 <0>         0.1273
     49 H19        -2.6356   -4.7773    3.5054 H         1 <0>         0.1320
     50 H20        -4.4400   -7.3183   -2.9234 H         1 <0>         0.0897
     51 H21        -4.2133   -5.6997   -3.6687 H         1 <0>         0.0769
     52 H22        -5.4305   -5.9268   -2.3673 H         1 <0>         0.0759
@<TRIPOS>BOND
     1    1    2 1
     2    1   32 1
     3    1   33 1
     4    1   34 1
     5    2    7 ar
     6    2    3 ar
     7    3    4 ar
     8    3   35 1
     9    4    5 ar
    10    4   36 1
    11    5    6 ar
    12    5   37 1
    13    6    7 ar
    14    6    8 1
    15    7   38 1
    16    8    9 am
    17    8   39 1
    18    9   10 2
    19    9   11 am
    20   11   12 1
    21   11   40 1
    22   12   13 1
    23   12   24 1
    24   12   14 1
    25   14   15 2
    26   14   16 am
    27   16   17 1
    28   16   31 1
    29   17   22 ar
    30   17   18 ar
    31   18   19 ar
    32   18   41 1
    33   19   20 ar
    34   19   42 1
    35   20   21 ar
    36   20   43 1
    37   21   22 ar
    38   21   44 1
    39   22   23 1
    40   23   24 2
    41   23   25 1
    42   25   30 ar
    43   25   26 ar
    44   26   27 ar
    45   26   45 1
    46   27   28 ar
    47   27   46 1
    48   28   29 ar
    49   28   47 1
    50   29   30 ar
    51   29   48 1
    52   30   49 1
    53   31   50 1
    54   31   51 1
    55   31   52 1
@<TRIPOS>MOLECULE
ZINC03797417
   52    55     0     0     0
SMALL
USER_CHARGES
3-(2-methyl-3-oxo-6-phenyl-2,5-diazabicyclo[5.4.0]undeca-5,8,10,12-tetraen-4-yl)-1-(m-tolyl)urea
@<TRIPOS>ATOM
      1 C1          0.4589    2.9754    1.3209 C.3       1 <0>        -0.1148
      2 C2          1.4028    2.0717    0.5703 C.ar      1 <0>        -0.0662
      3 C3          2.4835    2.6093   -0.1048 C.ar      1 <0>        -0.1373
      4 C4          3.3486    1.7842   -0.7993 C.ar      1 <0>        -0.0954
      5 C5          3.1356    0.4195   -0.8210 C.ar      1 <0>        -0.1267
      6 C6          2.0515   -0.1233   -0.1444 C.ar      1 <0>         0.1685
      7 C7          1.1844    0.7082    0.5524 C.ar      1 <0>        -0.1489
      8 N1          1.8333   -1.5055   -0.1640 N.am      1 <0>        -0.6802
      9 C8          2.8800   -2.3521   -0.2288 C.2       1 <0>         0.7166
     10 O1          4.0153   -1.9205   -0.1744 O.2       1 <0>        -0.5696
     11 N2          2.6681   -3.6773   -0.3539 N.am      1 <0>        -0.7027
     12 C9          3.8058   -4.5975   -0.4243 C.3       1 <0>         0.3054
     13 H1          4.7115   -4.0836   -0.1023 H         1 <0>         0.1294
     14 C10         3.5529   -5.7806    0.4699 C.2       1 <0>         0.5065
     15 O2          2.4935   -5.8635    1.0544 O.2       1 <0>        -0.5075
     16 N3          4.4620   -6.7386    0.6365 N.am      1 <0>        -0.5492
     17 C11         5.7292   -6.7417    0.0747 C.ar      1 <0>         0.1723
     18 C12         6.7842   -7.1865    0.8743 C.ar      1 <0>        -0.1423
     19 C13         8.0709   -7.2204    0.3844 C.ar      1 <0>        -0.0723
     20 C14         8.3316   -6.8111   -0.9131 C.ar      1 <0>        -0.1295
     21 C15         7.3052   -6.3689   -1.7149 C.ar      1 <0>        -0.0580
     22 C16         5.9888   -6.3281   -1.2302 C.ar      1 <0>        -0.1345
     23 C17         4.9415   -5.8397   -2.1409 C.2       1 <0>         0.2836
     24 N4          3.9698   -5.0693   -1.7987 N.2       1 <0>        -0.5089
     25 C18         5.0116   -6.2668   -3.5578 C.ar      1 <0>        -0.0685
     26 C19         4.4138   -5.4933   -4.5526 C.ar      1 <0>        -0.0675
     27 C20         4.4878   -5.8931   -5.8711 C.ar      1 <0>        -0.1268
     28 C21         5.1432   -7.0646   -6.2059 C.ar      1 <0>        -0.0988
     29 C22         5.7329   -7.8392   -5.2230 C.ar      1 <0>        -0.1253
     30 C23         5.6709   -7.4468   -3.9016 C.ar      1 <0>        -0.0876
     31 C24         4.0946   -7.8787    1.4800 C.3       1 <0>         0.0611
     32 H2          0.8055    3.0902    2.3479 H         1 <0>         0.0716
     33 H3          0.4280    3.9514    0.8366 H         1 <0>         0.0684
     34 H4         -0.5396    2.5382    1.3212 H         1 <0>         0.0664
     35 H5          2.6521    3.6760   -0.0893 H         1 <0>         0.1231
     36 H6          4.1916    2.2070   -1.3255 H         1 <0>         0.1258
     37 H7          3.8119   -0.2246   -1.3635 H         1 <0>         0.1359
     38 H8          0.3401    0.2890    1.0794 H         1 <0>         0.1248
     39 H9          0.9288   -1.8542   -0.1310 H         1 <0>         0.4096
     40 H10         1.7623   -4.0216   -0.3973 H         1 <0>         0.4096
     41 H11         6.5890   -7.5075    1.8869 H         1 <0>         0.1356
     42 H12         8.8782   -7.5664    1.0129 H         1 <0>         0.1364
     43 H13         9.3413   -6.8389   -1.2952 H         1 <0>         0.1364
     44 H14         7.5140   -6.0511   -2.7257 H         1 <0>         0.1382
     45 H15         3.8978   -4.5811   -4.2918 H         1 <0>         0.1324
     46 H16         4.0294   -5.2926   -6.6429 H         1 <0>         0.1275
     47 H17         5.1943   -7.3759   -7.2388 H         1 <0>         0.1259
     48 H18         6.2430   -8.7528   -5.4904 H         1 <0>         0.1283
     49 H19         6.1322   -8.0519   -3.1352 H         1 <0>         0.1280
     50 H20         3.0788   -7.7434    1.8515 H         1 <0>         0.1015
     51 H21         4.1479   -8.7963    0.8941 H         1 <0>         0.0744
     52 H22         4.7836   -7.9447    2.3220 H         1 <0>         0.0750
@<TRIPOS>BOND
     1    1    2 1
     2    1   32 1
     3    1   33 1
     4    1   34 1
     5    2    7 ar
     6    2    3 ar
     7    3    4 ar
     8    3   35 1
     9    4    5 ar
    10    4   36 1
    11    5    6 ar
    12    5   37 1
    13    6    7 ar
    14    6    8 1
    15    7   38 1
    16    8    9 am
    17    8   39 1
    18    9   10 2
    19    9   11 am
    20   11   12 1
    21   11   40 1
    22   12   13 1
    23   12   24 1
    24   12   14 1
    25   14   15 2
    26   14   16 am
    27   16   17 1
    28   16   31 1
    29   17   22 ar
    30   17   18 ar
    31   18   19 ar
    32   18   41 1
    33   19   20 ar
    34   19   42 1
    35   20   21 ar
    36   20   43 1
    37   21   22 ar
    38   21   44 1
    39   22   23 1
    40   23   24 2
    41   23   25 1
    42   25   30 ar
    43   25   26 ar
    44   26   27 ar
    45   26   45 1
    46   27   28 ar
    47   27   46 1
    48   28   29 ar
    49   28   47 1
    50   29   30 ar
    51   29   48 1
    52   30   49 1
    53   31   50 1
    54   31   51 1
    55   31   52 1
@<TRIPOS>MOLECULE
ZINC13732955
   55    58     0     0     0
SMALL
USER_CHARGES
methyl 3-[[(3R)-1-methyl-2-oxo-5-phenyl-3H-1,4-benzodiazepin-3-yl]carbamoylamino]benzoate
@<TRIPOS>ATOM
      1 C1         -1.4827   -7.9414   -1.5785 C.3       1 <0>         0.0612
      2 N1         -1.8793   -6.8196   -0.7238 N.am      1 <0>        -0.5488
      3 C2         -3.1461   -6.8608   -0.1626 C.ar      1 <0>         0.1718
      4 C3         -4.1892   -7.3246   -0.9670 C.ar      1 <0>        -0.1423
      5 C4         -5.4748   -7.3963   -0.4779 C.ar      1 <0>        -0.0723
      6 C5         -5.7460   -7.0068    0.8234 C.ar      1 <0>        -0.1293
      7 C6         -4.7315   -6.5465    1.6300 C.ar      1 <0>        -0.0576
      8 C7         -3.4164   -6.4670    1.1463 C.ar      1 <0>        -0.1343
      9 C8         -2.3822   -5.9610    2.0622 C.2       1 <0>         0.2845
     10 N2         -1.4305   -5.1626    1.7281 N.2       1 <0>        -0.5091
     11 C9         -1.2785   -4.6731    0.3585 C.3       1 <0>         0.3048
     12 H1         -2.1970   -4.1793    0.0414 H         1 <0>         0.1299
     13 C10        -0.9952   -5.8403   -0.5473 C.2       1 <0>         0.5071
     14 O1          0.0661   -5.8901   -1.1322 O.2       1 <0>        -0.5080
     15 N3         -0.1647   -3.7232    0.2978 N.am      1 <0>        -0.7008
     16 C11        -0.4105   -2.4028    0.1858 C.2       1 <0>         0.7151
     17 O2         -1.5566   -1.9999    0.1352 O.2       1 <0>        -0.5657
     18 N4          0.6141   -1.5290    0.1299 N.am      1 <0>        -0.6795
     19 C12         0.3604   -0.1524    0.1240 C.ar      1 <0>         0.1557
     20 C13         1.2070    0.7072   -0.5661 C.ar      1 <0>        -0.1104
     21 C14         0.9606    2.0673   -0.5760 C.ar      1 <0>        -0.1097
     22 C15        -0.1275    2.5812    0.0997 C.ar      1 <0>        -0.0788
     23 C16        -0.9839    1.7262    0.7963 C.ar      1 <0>        -0.1067
     24 C17        -0.7351    0.3531    0.8057 C.ar      1 <0>        -0.0582
     25 C18        -2.1493    2.2734    1.5210 C.2       1 <0>         0.5078
     26 O3         -2.8929    1.5277    2.1263 O.2       1 <0>        -0.4977
     27 O4         -2.3873    3.5993    1.5103 O.3       1 <0>        -0.3548
     28 C19        -3.5502    4.0662    2.2438 C.3       1 <0>         0.0364
     29 C20        -2.4415   -6.4039    3.4747 C.ar      1 <0>        -0.0688
     30 C21        -1.8635   -5.6255    4.4774 C.ar      1 <0>        -0.0670
     31 C22        -1.9275   -6.0401    5.7919 C.ar      1 <0>        -0.1267
     32 C23        -2.5529   -7.2312    6.1148 C.ar      1 <0>        -0.0986
     33 C24        -3.1226   -8.0107    5.1239 C.ar      1 <0>        -0.1255
     34 C25        -3.0705   -7.6036    3.8065 C.ar      1 <0>        -0.0875
     35 H2         -0.4707   -7.7763   -1.9483 H         1 <0>         0.1015
     36 H3         -1.5125   -8.8658   -1.0018 H         1 <0>         0.0744
     37 H4         -2.1697   -8.0166   -2.4214 H         1 <0>         0.0750
     38 H5         -3.9858   -7.6303   -1.9827 H         1 <0>         0.1356
     39 H6         -6.2728   -7.7566   -1.1102 H         1 <0>         0.1364
     40 H7         -6.7548   -7.0643    1.2048 H         1 <0>         0.1364
     41 H8         -4.9484   -6.2442    2.6439 H         1 <0>         0.1384
     42 H9          0.7496   -4.0447    0.3381 H         1 <0>         0.4102
     43 H10         1.5273   -1.8540    0.0937 H         1 <0>         0.4128
     44 H11         2.0602    0.3111   -1.0967 H         1 <0>         0.1347
     45 H12         1.6245    2.7305   -1.1105 H         1 <0>         0.1388
     46 H13        -0.3168    3.6444    0.0893 H         1 <0>         0.1410
     47 H14        -1.3938   -0.3132    1.3427 H         1 <0>         0.1531
     48 H15        -3.4499    3.7951    3.2947 H         1 <0>         0.0645
     49 H16        -3.6255    5.1499    2.1537 H         1 <0>         0.1044
     50 H17        -4.4481    3.6042    1.8334 H         1 <0>         0.0646
     51 H18        -1.3709   -4.6979    4.2259 H         1 <0>         0.1326
     52 H19        -1.4845   -5.4359    6.5697 H         1 <0>         0.1276
     53 H20        -2.5962   -7.5540    7.1445 H         1 <0>         0.1259
     54 H21        -3.6094   -8.9395    5.3821 H         1 <0>         0.1282
     55 H22        -3.5163   -8.2126    3.0340 H         1 <0>         0.1280
@<TRIPOS>BOND
     1    1    2 1
     2    1   35 1
     3    1   36 1
     4    1   37 1
     5    2   13 am
     6    2    3 1
     7    3    8 ar
     8    3    4 ar
     9    4    5 ar
    10    4   38 1
    11    5    6 ar
    12    5   39 1
    13    6    7 ar
    14    6   40 1
    15    7    8 ar
    16    7   41 1
    17    8    9 1
    18    9   10 2
    19    9   29 1
    20   10   11 1
    21   11   12 1
    22   11   13 1
    23   11   15 1
    24   13   14 2
    25   15   16 am
    26   15   42 1
    27   16   17 2
    28   16   18 am
    29   18   19 1
    30   18   43 1
    31   19   24 ar
    32   19   20 ar
    33   20   21 ar
    34   20   44 1
    35   21   22 ar
    36   21   45 1
    37   22   23 ar
    38   22   46 1
    39   23   24 ar
    40   23   25 1
    41   24   47 1
    42   25   26 2
    43   25   27 1
    44   27   28 1
    45   28   48 1
    46   28   49 1
    47   28   50 1
    48   29   34 ar
    49   29   30 ar
    50   30   31 ar
    51   30   51 1
    52   31   32 ar
    53   31   52 1
    54   32   33 ar
    55   32   53 1
    56   33   34 ar
    57   33   54 1
    58   34   55 1
@<TRIPOS>MOLECULE
ZINC03782183
   61    61     0     0     0
SMALL
USER_CHARGES

@<TRIPOS>ATOM
      1 C1         -0.6935    1.4906   -2.9588 C.3       1 <0>        -0.1527
      2 C2         -0.3915    0.1106   -2.3713 C.3       1 <0>        -0.1240
      3 C3         -1.7009   -0.5679   -1.9637 C.3       1 <0>        -0.1163
      4 C4         -1.3988   -1.9479   -1.3761 C.3       1 <0>        -0.1337
      5 C5         -2.7082   -2.6263   -0.9685 C.3       1 <0>         0.1156
      6 N1         -2.4303   -3.9913   -0.5147 N.am      1 <0>        -0.6078
      7 C6         -2.2462   -4.2655    0.9125 C.3       1 <0>         0.1009
      8 C7         -3.6128   -4.4230    1.5821 C.3       1 <0>        -0.1440
      9 C8         -3.4210   -4.8521    3.0381 C.3       1 <0>        -0.1162
     10 C9         -4.7877   -5.0096    3.7077 C.3       1 <0>        -0.1257
     11 C10        -4.5958   -5.4386    5.1637 C.3       1 <0>        -0.1516
     12 C11        -2.3441   -4.9948   -1.4103 C.2       1 <0>         0.5214
     13 O1         -2.6163   -4.7933   -2.5749 O.2       1 <0>        -0.5382
     14 C12        -1.9094   -6.3672   -0.9647 C.3       1 <0>         0.1242
     15 H1         -1.2137   -6.2750   -0.1306 H         1 <0>         0.1088
     16 C13        -3.1335   -7.1709   -0.5214 C.3       1 <0>        -0.0994
     17 C14        -2.6868   -8.5462   -0.0213 C.3       1 <0>        -0.1679
     18 C15        -3.8925   -9.3379    0.4153 C.2       1 <0>         0.4887
     19 O2         -5.0058   -8.8476    0.3341 O.co2     1 <0>        -0.7020
     20 O3         -3.7546  -10.4687    0.8498 O.co2     1 <0>        -0.7050
     21 N2         -1.2498   -7.0556   -2.0769 N.am      1 <0>        -0.7050
     22 C16        -0.3567   -8.0341   -1.8292 C.2       1 <0>         0.5592
     23 O4         -0.0985   -8.3454   -0.6829 O.2       1 <0>        -0.5107
     24 C17         0.3088   -8.7286   -2.9513 C.ar      1 <0>        -0.1081
     25 C18         0.0184   -8.3693   -4.2689 C.ar      1 <0>        -0.0699
     26 C19         0.6420   -9.0205   -5.3121 C.ar      1 <0>        -0.1047
     27 C20         1.5549  -10.0300   -5.0556 C.ar      1 <0>        -0.0117
     28 C21         1.8477  -10.3916   -3.7501 C.ar      1 <0>        -0.0391
     29 C22         1.2342   -9.7424   -2.6977 C.ar      1 <0>        -0.0380
     30 Cl1         2.9932  -11.6580   -3.4377 Cl        1 <0>        -0.0419
     31 Cl2         2.3351  -10.8460   -6.3744 Cl        1 <0>        -0.0456
     32 H2          0.2393    1.9740   -3.2492 H         1 <0>         0.0520
     33 H3         -1.3336    1.3807   -3.8342 H         1 <0>         0.0537
     34 H4         -1.2014    2.1004   -2.2116 H         1 <0>         0.0529
     35 H5          0.1164   -0.4992   -3.1185 H         1 <0>         0.0606
     36 H6          0.2486    0.2206   -1.4959 H         1 <0>         0.0598
     37 H7         -2.2088    0.0419   -1.2165 H         1 <0>         0.0620
     38 H8         -2.3410   -0.6778   -2.8390 H         1 <0>         0.0642
     39 H9         -0.8909   -2.5577   -2.1233 H         1 <0>         0.0654
     40 H10        -0.7588   -1.8379   -0.5007 H         1 <0>         0.0622
     41 H11        -3.1734   -2.0623   -0.1601 H         1 <0>         0.0780
     42 H12        -3.3827   -2.6582   -1.8242 H         1 <0>         0.0826
     43 H13        -1.6735   -5.1848    1.0350 H         1 <0>         0.0882
     44 H14        -1.7082   -3.4380    1.3750 H         1 <0>         0.0781
     45 H15        -4.1446   -3.4720    1.5506 H         1 <0>         0.0637
     46 H16        -4.1914   -5.1805    1.0533 H         1 <0>         0.0799
     47 H17        -2.8892   -5.8030    3.0696 H         1 <0>         0.0687
     48 H18        -2.8425   -4.0946    3.5669 H         1 <0>         0.0589
     49 H19        -5.3194   -4.0586    3.6762 H         1 <0>         0.0564
     50 H20        -5.3662   -5.7670    3.1789 H         1 <0>         0.0696
     51 H21        -5.5695   -5.5508    5.6407 H         1 <0>         0.0515
     52 H22        -4.0640   -6.3896    5.1952 H         1 <0>         0.0568
     53 H23        -4.0173   -4.6812    5.6925 H         1 <0>         0.0488
     54 H24        -3.6448   -6.6407    0.2821 H         1 <0>         0.0801
     55 H25        -3.8124   -7.2940   -1.3652 H         1 <0>         0.0685
     56 H26        -2.1755   -9.0764   -0.8248 H         1 <0>         0.0554
     57 H27        -2.0079   -8.4231    0.8225 H         1 <0>         0.0632
     58 H28        -1.4558   -6.8073   -2.9917 H         1 <0>         0.4052
     59 H29        -0.6938   -7.5828   -4.4707 H         1 <0>         0.1447
     60 H30         0.4178   -8.7430   -6.3315 H         1 <0>         0.1498
     61 H31         1.4660  -10.0215   -1.6805 H         1 <0>         0.1594
@<TRIPOS>BOND
     1    1    2 1
     2    1   32 1
     3    1   33 1
     4    1   34 1
     5    2    3 1
     6    2   35 1
     7    2   36 1
     8    3    4 1
     9    3   37 1
    10    3   38 1
    11    4    5 1
    12    4   39 1
    13    4   40 1
    14    5    6 1
    15    5   41 1
    16    5   42 1
    17    6    7 1
    18    6   12 am
    19    7    8 1
    20    7   43 1
    21    7   44 1
    22    8    9 1
    23    8   45 1
    24    8   46 1
    25    9   10 1
    26    9   47 1
    27    9   48 1
    28   10   11 1
    29   10   49 1
    30   10   50 1
    31   11   51 1
    32   11   52 1
    33   11   53 1
    34   12   13 2
    35   12   14 1
    36   14   15 1
    37   14   16 1
    38   14   21 1
    39   16   17 1
    40   16   54 1
    41   16   55 1
    42   17   18 1
    43   17   56 1
    44   17   57 1
    45   18   19 2
    46   18   20 1
    47   21   22 am
    48   21   58 1
    49   22   23 2
    50   22   24 1
    51   24   29 ar
    52   24   25 ar
    53   25   26 ar
    54   25   59 1
    55   26   27 ar
    56   26   60 1
    57   27   28 ar
    58   27   31 1
    59   28   29 ar
    60   28   30 1
    61   29   61 1
@<TRIPOS>MOLECULE
ZINC01847292
   51    55     0     0     0
SMALL
USER_CHARGES

@<TRIPOS>ATOM
      1 C1          0.5657    1.4218    0.1931 C.3       1 <0>         0.0609
      2 N1          0.3242   -0.0205    0.1050 N.am      1 <0>        -0.5485
      3 C2         -0.9917   -0.4526    0.1628 C.ar      1 <0>         0.1717
      4 C3         -1.9447    0.2999   -0.5269 C.ar      1 <0>        -0.1421
      5 C4         -3.2724   -0.0664   -0.5140 C.ar      1 <0>        -0.0717
      6 C5         -3.6765   -1.1903    0.1877 C.ar      1 <0>        -0.1290
      7 C6         -2.7517   -1.9440    0.8722 C.ar      1 <0>        -0.0579
      8 C7         -1.3951   -1.5845    0.8680 C.ar      1 <0>        -0.1352
      9 C8         -0.4608   -2.4385    1.6179 C.2       1 <0>         0.2857
     10 N2          0.7148   -2.7713    1.2172 N.2       1 <0>        -0.5096
     11 C9          1.2534   -2.3111   -0.0622 C.3       1 <0>         0.2879
     12 H1          0.5771   -2.5981   -0.8674 H         1 <0>         0.1294
     13 C10         1.3851   -0.8131   -0.0296 C.2       1 <0>         0.5073
     14 O1          2.4867   -0.3146   -0.1240 O.2       1 <0>        -0.5087
     15 N3          2.5685   -2.9162   -0.2870 N.am      1 <0>        -0.6915
     16 C11         2.7051   -3.9213   -1.1744 C.2       1 <0>         0.5979
     17 O2          1.7362   -4.3262   -1.7887 O.2       1 <0>        -0.5174
     18 C12         4.0252   -4.5287   -1.4001 C.2       1 <0>         0.0120
     19 C13         4.2891   -5.5395   -2.2688 C.2       1 <0>        -0.0944
     20 C14         5.6723   -5.8299   -2.1850 C.ar      1 <0>        -0.1229
     21 C15         6.5019   -6.7562   -2.8306 C.ar      1 <0>        -0.0576
     22 C16         7.8323   -6.7999   -2.5311 C.ar      1 <0>        -0.1485
     23 C17         8.3745   -5.9336   -1.5898 C.ar      1 <0>        -0.0827
     24 C18         7.5801   -5.0149   -0.9417 C.ar      1 <0>        -0.1347
     25 C19         6.2196   -4.9503   -1.2307 C.ar      1 <0>         0.1182
     26 N4          5.1959   -4.1585   -0.7670 N.pl3     1 <0>        -0.5778
     27 H2          5.2811   -3.4568   -0.1026 H         1 <0>         0.4182
     28 C20        -0.9077   -2.9531    2.9333 C.ar      1 <0>        -0.0699
     29 C21        -0.3328   -4.1068    3.4658 C.ar      1 <0>        -0.0672
     30 C22        -0.7533   -4.5813    4.6914 C.ar      1 <0>        -0.1267
     31 C23        -1.7433   -3.9152    5.3915 C.ar      1 <0>        -0.0979
     32 C24        -2.3173   -2.7702    4.8686 C.ar      1 <0>        -0.1254
     33 C25        -1.9009   -2.2825    3.6468 C.ar      1 <0>        -0.0873
     34 H3          1.6365    1.6154    0.1298 H         1 <0>         0.1015
     35 H4          0.0562    1.9263   -0.6279 H         1 <0>         0.0755
     36 H5          0.1841    1.7968    1.1427 H         1 <0>         0.0748
     37 H6         -1.6377    1.1780   -1.0755 H         1 <0>         0.1359
     38 H7         -3.9997    0.5238   -1.0517 H         1 <0>         0.1369
     39 H8         -4.7182   -1.4750    0.1971 H         1 <0>         0.1369
     40 H9         -3.0722   -2.8194    1.4176 H         1 <0>         0.1388
     41 H10         3.3410   -2.5934    0.2028 H         1 <0>         0.4075
     42 H11         3.5723   -6.0328   -2.9086 H         1 <0>         0.1580
     43 H12         6.0892   -7.4340   -3.5631 H         1 <0>         0.1271
     44 H13         8.4697   -7.5148   -3.0301 H         1 <0>         0.1261
     45 H14         9.4296   -5.9816   -1.3642 H         1 <0>         0.1290
     46 H15         8.0108   -4.3463   -0.2111 H         1 <0>         0.1237
     47 H16         0.4396   -4.6281    2.9198 H         1 <0>         0.1326
     48 H17        -0.3089   -5.4746    5.1047 H         1 <0>         0.1279
     49 H18        -2.0696   -4.2907    6.3501 H         1 <0>         0.1263
     50 H19        -3.0897   -2.2545    5.4198 H         1 <0>         0.1286
     51 H20        -2.3464   -1.3859    3.2417 H         1 <0>         0.1284
@<TRIPOS>BOND
     1    1    2 1
     2    1   34 1
     3    1   35 1
     4    1   36 1
     5    2   13 am
     6    2    3 1
     7    3    8 ar
     8    3    4 ar
     9    4    5 ar
    10    4   37 1
    11    5    6 ar
    12    5   38 1
    13    6    7 ar
    14    6   39 1
    15    7    8 ar
    16    7   40 1
    17    8    9 1
    18    9   10 2
    19    9   28 1
    20   10   11 1
    21   11   12 1
    22   11   13 1
    23   11   15 1
    24   13   14 2
    25   15   16 am
    26   15   41 1
    27   16   17 2
    28   16   18 1
    29   18   26 1
    30   18   19 2
    31   19   20 1
    32   19   42 1
    33   20   25 ar
    34   20   21 ar
    35   21   22 ar
    36   21   43 1
    37   22   23 ar
    38   22   44 1
    39   23   24 ar
    40   23   45 1
    41   24   25 ar
    42   24   46 1
    43   25   26 1
    44   26   27 1
    45   28   33 ar
    46   28   29 ar
    47   29   30 ar
    48   29   47 1
    49   30   31 ar
    50   30   48 1
    51   31   32 ar
    52   31   49 1
    53   32   33 ar
    54   32   50 1
    55   33   51 1
