@<TRIPOS>MOLECULE
ZINC04217536
   78    80     0     0     0
SMALL
USER_CHARGES
3-[2-[2-amino-3-(1H-indol-3-yl)propanoyl]amino-4-methylsulfanyl-butanoyl]amino-4-(1-carbamoyl-2-phenyl-ethyl)amino-4-oxo-butanoic acid
@<TRIPOS>ATOM
      1 C1         -1.9361    2.6279   10.8859 C.3       1 <0>        -0.1199
      2 S1         -1.4070    2.6536    9.1510 S.3       1 <0>        -0.2585
      3 C2          0.2710    1.9658    9.1936 C.3       1 <0>        -0.0733
      4 C3          0.8436    1.9298    7.7753 C.3       1 <0>        -0.1154
      5 C4          2.2589    1.3496    7.8112 C.3       1 <0>         0.1327
      6 H1          2.2394    0.3740    8.2969 H         1 <0>         0.1289
      7 C5          2.7763    1.1998    6.4038 C.2       1 <0>         0.5111
      8 O1          3.7799    1.7881    6.0608 O.2       1 <0>        -0.5524
      9 N1          2.1237    0.4122    5.5262 N.am      1 <0>        -0.6672
     10 C6          2.5626    0.3511    4.1298 C.3       1 <0>         0.1525
     11 H2          2.9770    1.3156    3.8366 H         1 <0>         0.1034
     12 C7          3.6334   -0.7313    3.9786 C.3       1 <0>        -0.1731
     13 C8          3.0857   -2.0504    4.4593 C.2       1 <0>         0.4657
     14 O2          1.9324   -2.1340    4.8097 O.co2     1 <0>        -0.6188
     15 C9          1.3864    0.0206    3.2475 C.2       1 <0>         0.5414
     16 O3          0.2895   -0.1473    3.7370 O.2       1 <0>        -0.5187
     17 N2          1.5534   -0.0883    1.9146 N.am      1 <0>        -0.7076
     18 C10         0.4099   -0.4095    1.0570 C.3       1 <0>         0.1422
     19 H3         -0.4889    0.0576    1.4596 H         1 <0>         0.1141
     20 C11         0.6687    0.1166   -0.3562 C.3       1 <0>        -0.0857
     21 C12         0.7351    1.6219   -0.3275 C.ar      1 <0>        -0.0795
     22 C13        -0.4133    2.3681   -0.5153 C.ar      1 <0>        -0.1137
     23 C14        -0.3532    3.7488   -0.4841 C.ar      1 <0>        -0.1178
     24 C15         0.8571    4.3834   -0.2757 C.ar      1 <0>        -0.1230
     25 C16         2.0063    3.6373   -0.0932 C.ar      1 <0>        -0.1168
     26 C17         1.9453    2.2565   -0.1191 C.ar      1 <0>        -0.1104
     27 C18         0.2214   -1.9039    1.0099 C.2       1 <0>         0.4900
     28 O4          0.9686   -2.6292    1.6316 O.2       1 <0>        -0.4905
     29 N3         -0.7776   -2.4344    0.2770 N.am      1 <0>        -0.8607
     30 N4          3.1372    2.2510    8.5611 N.am      1 <0>        -0.6755
     31 C19         3.2058    2.1621    9.9042 C.2       1 <0>         0.5030
     32 O5          2.5404    1.3359   10.4920 O.2       1 <0>        -0.5208
     33 C20         4.1094    3.0893   10.6755 C.3       1 <0>         0.0207
     34 H4          4.0601    4.0883   10.2423 H         1 <0>         0.1626
     35 C21         5.5482    2.5737   10.6061 C.3       1 <0>        -0.0555
     36 C22         6.4691    3.5636   11.2719 C.2       1 <0>        -0.2333
     37 C23         7.1708    4.5342   10.6657 C.2       1 <0>         0.1055
     38 N5          7.8931    5.2359   11.5922 N.pl3     1 <0>        -0.5850
     39 H5          8.4755    5.9857   11.3932 H         1 <0>         0.4257
     40 C24         7.6748    4.7153   12.8481 C.ar      1 <0>         0.0996
     41 C25         6.7732    3.6449   12.7026 C.ar      1 <0>        -0.1171
     42 C26         6.3649    2.9209   13.8240 C.ar      1 <0>        -0.1122
     43 C27         6.8439    3.2561   15.0593 C.ar      1 <0>        -0.1208
     44 C28         7.7337    4.3107   15.2080 C.ar      1 <0>        -0.0941
     45 C29         8.1497    5.0388   14.1147 C.ar      1 <0>        -0.1128
     46 H6         -1.9219    1.6024   11.2549 H         1 <0>         0.0782
     47 H7         -1.2572    3.2379   11.4818 H         1 <0>         0.0689
     48 H8         -2.9470    3.0280   10.9635 H         1 <0>         0.1035
     49 H9          0.2388    0.9541    9.5982 H         1 <0>         0.0933
     50 H10         0.9035    2.5897    9.8251 H         1 <0>         0.0699
     51 H11         0.8758    2.9414    7.3707 H         1 <0>         0.0860
     52 H12         0.2111    1.3059    7.1438 H         1 <0>         0.1045
     53 H13         1.3635   -0.1142    5.8191 H         1 <0>         0.4232
     54 H14         3.9183   -0.8165    2.9300 H         1 <0>         0.0769
     55 H15         4.5075   -0.4629    4.5720 H         1 <0>         0.0783
     56 H16         2.4306    0.0460    1.5231 H         1 <0>         0.4002
     57 H17        -0.1403   -0.1989   -1.0152 H         1 <0>         0.0939
     58 H18         1.6139   -0.2818   -0.7249 H         1 <0>         0.0873
     59 H19        -1.3581    1.8724   -0.6826 H         1 <0>         0.1226
     60 H20        -1.2511    4.3318   -0.6271 H         1 <0>         0.1211
     61 H21         0.9048    5.4622   -0.2558 H         1 <0>         0.1194
     62 H22         2.9519    4.1331    0.0693 H         1 <0>         0.1215
     63 H23         2.8433    1.6736    0.0231 H         1 <0>         0.1211
     64 H24        -1.3752   -1.8543   -0.2202 H         1 <0>         0.3952
     65 H25        -0.8989   -3.3963    0.2467 H         1 <0>         0.4013
     66 H26         3.6695    2.9117    8.0909 H         1 <0>         0.4190
     67 H27         5.6153    1.6138   11.1181 H         1 <0>         0.1051
     68 H28         5.8401    2.4505    9.5632 H         1 <0>         0.1262
     69 H29         7.1647    4.7330    9.6042 H         1 <0>         0.1819
     70 H30         5.6729    2.0988   13.7158 H         1 <0>         0.1173
     71 H31         6.5272    2.6959   15.9267 H         1 <0>         0.1307
     72 H32         8.1036    4.5635   16.1907 H         1 <0>         0.1336
     73 H33         8.8418    5.8582   14.2409 H         1 <0>         0.1280
     74 H34         2.7511    3.5395   12.1556 H         1 <0>         0.4373
     75 H35         3.7119    2.2270   12.5022 H         1 <0>         0.4410
     76 O6          3.8791   -3.1324    4.4980 O.co2     1 <0>        -0.7688
     77 N6          3.6928    3.1572   12.0873 N.4       1 <0>        -0.6301
     78 H36         4.3399    3.7666   12.6013 H         1 <0>         0.4436
@<TRIPOS>BOND
     1    1    2 1
     2    1   46 1
     3    1   47 1
     4    1   48 1
     5    2    3 1
     6    3    4 1
     7    3   49 1
     8    3   50 1
     9    4    5 1
    10    4   51 1
    11    4   52 1
    12    5    6 1
    13    5    7 1
    14    5   30 1
    15    7    8 2
    16    7    9 am
    17    9   10 1
    18    9   53 1
    19   10   11 1
    20   10   12 1
    21   10   15 1
    22   12   13 1
    23   12   54 1
    24   12   55 1
    25   13   14 2
    26   13   76 1
    27   15   16 2
    28   15   17 am
    29   17   18 1
    30   17   56 1
    31   18   19 1
    32   18   20 1
    33   18   27 1
    34   20   21 1
    35   20   57 1
    36   20   58 1
    37   21   26 ar
    38   21   22 ar
    39   22   23 ar
    40   22   59 1
    41   23   24 ar
    42   23   60 1
    43   24   25 ar
    44   24   61 1
    45   25   26 ar
    46   25   62 1
    47   26   63 1
    48   27   28 2
    49   27   29 am
    50   29   64 1
    51   29   65 1
    52   30   31 am
    53   30   66 1
    54   31   32 2
    55   31   33 1
    56   33   34 1
    57   33   35 1
    58   33   77 1
    59   35   36 1
    60   35   67 1
    61   35   68 1
    62   36   41 1
    63   36   37 2
    64   37   38 1
    65   37   69 1
    66   38   39 1
    67   38   40 1
    68   40   45 ar
    69   40   41 ar
    70   41   42 ar
    71   42   43 ar
    72   42   70 1
    73   43   44 ar
    74   43   71 1
    75   44   45 ar
    76   44   72 1
    77   45   73 1
    78   74   77 1
    79   75   77 1
    80   77   78 1
@<TRIPOS>MOLECULE
ZINC02022527
   54    55     0     0     0
SMALL
USER_CHARGES

@<TRIPOS>ATOM
      1 C1         -3.0730    2.2881   -4.2693 C.3       1 <0>        -0.1569
      2 C2         -2.3049    1.5870   -3.1471 C.3       1 <0>        -0.1270
      3 C3         -2.8110    2.0874   -1.7927 C.3       1 <0>        -0.1231
      4 C4         -2.0429    1.3862   -0.6705 C.3       1 <0>        -0.1174
      5 C5         -2.5490    1.8867    0.6839 C.3       1 <0>        -0.1006
      6 C6         -2.2117    3.3722    0.8391 C.3       1 <0>        -0.1451
      7 C7         -2.6658    3.8518    2.2196 C.3       1 <0>        -0.0114
      8 C8         -2.3347    1.6429    3.1595 C.3       1 <0>        -0.0001
      9 C9         -1.8707    1.0973    1.8070 C.3       1 <0>        -0.1442
     10 C10        -2.2939    3.5901    4.5974 C.3       1 <0>        -0.0052
     11 C11        -2.1583    5.1140    4.5919 C.3       1 <0>        -0.1459
     12 C12        -2.4764    5.6593    5.9856 C.3       1 <0>        -0.1543
     13 C13        -2.3428    7.1604    5.9803 C.2       1 <0>         0.3987
     14 O1         -2.0245    7.7371    4.9623 O.2       1 <0>        -0.4456
     15 C14        -2.5986    7.9263    7.2106 C.ar      1 <0>        -0.1885
     16 C15        -3.0878    7.2813    8.3513 C.ar      1 <0>        -0.0705
     17 C16        -3.3195    8.0047    9.5018 C.ar      1 <0>        -0.1389
     18 C17        -3.0801    9.3679    9.5265 C.ar      1 <0>        -0.0729
     19 C18        -2.6016   10.0143    8.4004 C.ar      1 <0>        -0.1345
     20 C19        -2.3594    9.3036    7.2436 C.ar      1 <0>        -0.0178
     21 C20        -1.8387   10.0095    6.0182 C.3       1 <0>        -0.1264
     22 H1         -4.1363    2.0676   -4.1746 H         1 <0>         0.0549
     23 H2         -2.9175    3.3647   -4.1985 H         1 <0>         0.0540
     24 H3         -2.7125    1.9316   -5.2342 H         1 <0>         0.0581
     25 H4         -1.2417    1.8075   -3.2417 H         1 <0>         0.0621
     26 H5         -2.4605    0.5104   -3.2179 H         1 <0>         0.0631
     27 H6         -3.8743    1.8669   -1.6981 H         1 <0>         0.0644
     28 H7         -2.6555    3.1639   -1.7219 H         1 <0>         0.0632
     29 H8         -2.1984    0.3097   -0.7413 H         1 <0>         0.0733
     30 H9         -0.9796    1.6067   -0.7651 H         1 <0>         0.0688
     31 H10        -3.6287    1.7492    0.7427 H         1 <0>         0.0884
     32 H11        -1.1354    3.5132    0.7407 H         1 <0>         0.0881
     33 H12        -2.7264    3.9447    0.0675 H         1 <0>         0.1133
     34 H13        -3.7442    3.7233    2.3122 H         1 <0>         0.1295
     35 H14        -2.4142    4.9057    2.3388 H         1 <0>         0.1342
     36 H15        -3.4146    1.5248    3.2476 H         1 <0>         0.1293
     37 H16        -1.8426    1.0924    3.9613 H         1 <0>         0.1282
     38 H17        -2.1418    0.0446    1.7270 H         1 <0>         0.1118
     39 H18        -0.7890    1.2025    1.7239 H         1 <0>         0.0880
     40 H19        -3.3133    3.3170    4.8704 H         1 <0>         0.1315
     41 H20        -1.5979    3.1659    5.3211 H         1 <0>         0.1302
     42 H21        -1.1389    5.3871    4.3190 H         1 <0>         0.0944
     43 H22        -2.8542    5.5382    3.8682 H         1 <0>         0.0968
     44 H23        -3.4115    5.4088    6.2361 H         1 <0>         0.0981
     45 H24        -1.7805    5.2352    6.7093 H         1 <0>         0.1100
     46 H25        -3.2793    6.2186    8.3321 H         1 <0>         0.1290
     47 H26        -3.6933    7.5074   10.3846 H         1 <0>         0.1322
     48 H27        -3.2682    9.9300   10.4293 H         1 <0>         0.1326
     49 H28        -2.4176   11.0782    8.4274 H         1 <0>         0.1332
     50 H29        -2.6709   10.2515    5.3572 H         1 <0>         0.0784
     51 H30        -1.3321   10.9277    6.3156 H         1 <0>         0.0652
     52 H31        -1.1