@<TRIPOS>MOLECULE
ZINC03794711
   37    37     0     0     0
SMALL
USER_CHARGES

@<TRIPOS>ATOM
      1 C1         -0.5626    1.3318    0.0235 C.3       1 <0>        -0.1592
      2 C2         -0.3431   -0.1823    0.0355 C.3       1 <0>        -0.1202
      3 C3          0.4110   -0.5984   -1.2291 C.3       1 <0>        -0.1495
      4 C4          0.6305   -2.1125   -1.2171 C.3       1 <0>        -0.0135
      5 N1          1.3545   -2.5120   -2.4312 N.4       1 <0>        -0.3726
      6 C5          0.5252   -2.2296   -3.6089 C.3       1 <0>        -0.0105
      7 C6          1.3061   -2.5684   -4.8805 C.3       1 <0>         0.0589
      8 H1          2.2125   -1.9645   -4.9227 H         1 <0>         0.0900
      9 C7          1.6810   -4.0530   -4.8624 C.3       1 <0>         0.0258
     10 H2          0.7744   -4.6581   -4.8718 H         1 <0>         0.0912
     11 C8          2.4827   -4.3515   -3.5921 C.3       1 <0>         0.1122
     12 H3          3.4136   -3.7847   -3.6076 H         1 <0>         0.0961
     13 C9          1.6582   -3.9467   -2.3683 C.3       1 <0>         0.0358
     14 H4          0.7277   -4.5142   -2.3537 H         1 <0>         0.1569
     15 C10         2.4551   -4.2433   -1.0964 C.3       1 <0>         0.0568
     16 O1          3.7102   -3.5623   -1.1509 O.3       1 <0>        -0.5781
     17 O2          2.7758   -5.7488   -3.5301 O.3       1 <0>        -0.5411
     18 O3          2.4724   -4.3601   -6.0119 O.3       1 <0>        -0.5475
     19 O4          0.4961   -2.2938   -6.0253 O.3       1 <0>        -0.5410
     20 H5          0.4020    1.8385   -0.0076 H         1 <0>         0.0598
     21 H6         -1.1462    1.6074   -0.8548 H         1 <0>         0.0596
     22 H7         -1.0998    1.6282    0.9244 H         1 <0>         0.0677
     23 H8          0.2405   -0.4579    0.9138 H         1 <0>         0.0739
     24 H9         -1.3077   -0.6890    0.0666 H         1 <0>         0.0741
     25 H10        -0.1727   -0.3228   -2.1074 H         1 <0>         0.0883
     26 H11         1.3756   -0.0917   -1.2601 H         1 <0>         0.0893
     27 H12         1.2141   -2.3881   -0.3387 H         1 <0>         0.1385
     28 H13        -0.3341   -2.6192   -1.1860 H         1 <0>         0.1342
     29 H14        -0.3811   -2.8337   -3.5678 H         1 <0>         0.1416
     30 H15         0.2565   -1.1733   -3.6187 H         1 <0>         0.1496
     31 H16         1.8933   -3.9008   -0.2274 H         1 <0>         0.0779
     32 H17         2.6274   -5.3168   -1.0176 H         1 <0>         0.1050
     33 H18         4.2694   -3.7053   -0.3751 H         1 <0>         0.4108
     34 H19         3.2946   -6.0754   -4.2779 H         1 <0>         0.4110
     35 H20         2.0271   -4.1891   -6.8531 H         1 <0>         0.3955
     36 H21         0.9288   -2.4859   -6.8685 H         1 <0>         0.4021
     37 H22         2.2153   -1.9895   -2.4955 H         1 <0>         0.4306
@<TRIPOS>BOND
     1    1    2 1
     2    1   20 1
     3    1   21 1
     4    1   22 1
     5    2    3 1
     6    2   23 1
     7    2   24 1
     8    3    4 1
     9    3   25 1
    10    3   26 1
    11    4    5 1
    12    4   27 1
    13    4   28 1
    14    5   13 1
    15    5    6 1
    16    5   37 1
    17    6    7 1
    18    6   29 1
    19    6   30 1
    20    7    8 1
    21    7    9 1
    22    7   19 1
    23    9   10 1
    24    9   11 1
    25    9   18 1
    26   11   12 1
    27   11   13 1
    28   11   17 1
    29   13   14 1
    30   13   15 1
    31   15   16 1
    32   15   31 1
    33   15   32 1
    34   16   33 1
    35   17   34 1
    36   18   35 1
    37   19   36 1
@<TRIPOS>MOLECULE
ZINC03957104
   37    37     0     0     0
SMALL
USER_CHARGES
1-butyl-2-(hydroxymethyl)piperidine-3,4,5-triol
@<TRIPOS>ATOM
      1 C1         -0.5810    1.2596   -0.6709 C.3       1 <0>        -0.1585
      2 C2         -1.0982    1.6662    0.7104 C.3       1 <0>        -0.1207
      3 C3         -2.5225    1.1397    0.8970 C.3       1 <0>        -0.1470
      4 C4         -3.0397    1.5463    2.2784 C.3       1 <0>        -0.0138
      5 C5         -4.4285   -0.4275    2.4675 C.3       1 <0>        -0.0394
      6 C6         -5.8776   -0.9178    2.5092 C.3       1 <0>         0.0578
      7 H1         -5.8925   -2.0075    2.5323 H         1 <0>         0.1020
      8 C7         -6.5605   -0.3704    3.7656 C.3       1 <0>         0.0663
      9 H2         -7.6051   -0.6814    3.7772 H         1 <0>         0.0956
     10 C8         -6.4820    1.1588    3.7544 C.3       1 <0>         0.1073
     11 H3         -6.9295    1.5528    4.6669 H         1 <0>         0.1026
     12 C9         -5.0154    1.5889    3.6767 C.3       1 <0>         0.0510
     13 H4         -4.4804    1.2144    4.5494 H         1 <0>         0.1597
     14 C10        -4.9331    3.1163    3.6451 C.3       1 <0>         0.0513
     15 O1         -5.6886    3.6113    2.5377 O.3       1 <0>        -0.5518
     16 O2         -7.1883    1.6645    2.6198 O.3       1 <0>        -0.5194
     17 O3         -5.8990   -0.8753    4.9272 O.3       1 <0>        -0.5513
     18 O4         -6.5712   -0.4557    1.3484 O.3       1 <0>        -0.5380
     19 H5         -0.5803    0.1727   -0.7531 H         1 <0>         0.0584
     20 H6          0.4337    1.6347   -0.8039 H         1 <0>         0.0671
     21 H7         -1.2281    1.6816   -1.4399 H         1 <0>         0.0598
     22 H8         -0.4511    1.2441    1.4793 H         1 <0>         0.0727
     23 H9         -1.0989    2.7531    0.7926 H         1 <0>         0.0733
     24 H10        -3.1696    1.5617    0.1281 H         1 <0>         0.0871
     25 H11        -2.5218    0.0528    0.8148 H         1 <0>         0.0830
     26 H12        -2.3926    1.1242    3.0473 H         1 <0>         0.1292
     27 H13        -3.0404    2.6332    2.3606 H         1 <0>         0.1314
     28 H14        -3.9435   -0.8038    1.5668 H         1 <0>         0.1325
     29 H15        -3.8963   -0.7925    3.3460 H         1 <0>         0.1411
     30 H16        -5.3392    3.5213    4.5720 H         1 <0>         0.0900
     31 H17        -3.8921    3.4220    3.5403 H         1 <0>         0.0706
     32 H18        -5.6810    4.5747    2.4556 H         1 <0>         0.3984
     33 H19        -8.1256    1.4271    2.6020 H         1 <0>         0.3968
     34 H20        -5.9066   -1.8398    4.9961 H         1 <0>         0.3990
     35 H21        -6.1902   -0.7628    0.5143 H         1 <0>         0.3921
     36 N1         -4.4229    1.0506    2.4339 N.4       1 <0>        -0.3798
     37 H22        -4.9826    1.3677    1.6336 H         1 <0>         0.4437
@<TRIPOS>BOND
     1    1    2 1
     2    1   19 1
     3    1   20 1
     4    1   21 1
     5    2    3 1
     6    2   22 1
     7    2   23 1
     8    3    4 1
     9    3   24 1
    10    3   25 1
    11    4   26 1
    12    4   27 1
    13    4   36 1
    14    5    6 1
    15    5   28 1
    16    5   29 1
    17    5   36 1
    18    6    7 1
    19    6    8 1
    20    6   18 1
    21    8    9 1
    22    8   10 1
    23    8   17 1
    24   10   11 1
    25   10   12 1
    26   10   16 1
    27   12   13 1
    28   12   14 1
    29   12   36 1
    30   14   15 1
    31   14   30 1
    32   14   31 1
    33   15   32 1
    34   16   33 1
    35   17   34 1
    36   18   35 1
    37   36   37 1
@<TRIPOS>MOLECULE
ZINC49054534
   68    71     0     0     0
SMALL
USER_CHARGES

@<TRIPOS>ATOM
      1 C1         -0.0408    1.4963   -0.0860 C.3       1 <0>         0.0008
      2 C2          1.4070    1.9844   -0.1715 C.3       1 <0>         0.0582
      3 H1          1.4205    3.0714   -0.2507 H         1 <0>         0.1016
      4 C3          2.1603    1.5543    1.0905 C.3       1 <0>         0.0279
      5 H2          3.2062    1.8503    1.0094 H         1 <0>         0.0893
      6 C4          2.0685    0.0324    1.2342 C.3       1 <0>         0.1078
      7 H3          2.5548   -0.2758    2.1597 H         1 <0>         0.1029
      8 C5          0.5962   -0.3834    1.2676 C.3       1 <0>         0.0466
      9 H4          0.1038    0.0930    2.1154 H         1 <0>         0.1587
     10 N1         -0.0618    0.0327    0.0233 N.4       1 <0>        -0.3707
     11 C6         -1.4538   -0.4366    0.0267 C.3       1 <0>        -0.0181
     12 C7         -2.1057   -0.1092   -1.3183 C.3       1 <0>        -0.1445
     13 C8         -3.5555   -0.5980   -1.3148 C.3       1 <0>        -0.1138
     14 C9         -4.2073   -0.2705   -2.6597 C.3       1 <0>        -0.1189
     15 C10        -5.6571   -0.7594   -2.6562 C.3       1 <0>         0.0607
     16 O1         -6.2659   -0.4535   -3.9123 O.3       1 <0>        -0.3814
     17 C11        -7.6290   -0.8703   -4.0144 C.3       1 <0>         0.0731
     18 C12        -8.1756   -0.4938   -5.3929 C.3       1 <0>        -0.0495
     19 C13        -7.3477   -1.1873   -6.4766 C.3       1 <0>        -0.0959
     20 C14        -7.8943   -0.8108   -7.8552 C.3       1 <0>        -0.0876
     21 C15        -9.3537   -1.2571   -7.9645 C.3       1 <0>        -0.1103
     22 C16       -10.1816   -0.5635   -6.8807 C.3       1 <0>        -0.0845
     23 C17        -9.6350   -0.9400   -5.5022 C.3       1 <0>        -0.1029
     24 C18       -10.0966    0.9529   -7.0663 C.3       1 <0>        -0.1103
     25 C19        -8.6372    1.3991   -6.9570 C.3       1 <0>        -0.0876
     26 C20        -7.8094    0.7055   -8.0407 C.3       1 <0>        -0.1078
     27 C21        -8.0906    1.0226   -5.5785 C.3       1 <0>        -0.0957
     28 C22         0.4994   -1.9036    1.4106 C.3       1 <0>         0.0519
     29 O2          1.2049   -2.5289    0.3367 O.3       1 <0>        -0.5514
     30 O3          2.7164   -0.5916    0.1239 O.3       1 <0>        -0.5208
     31 O4          1.5739    2.1800    2.2337 O.3       1 <0>        -0.5536
     32 O5          2.0356    1.4143   -1.3211 O.3       1 <0>        -0.5473
     33 H5         -0.5196    1.9326    0.7907 H         1 <0>         0.1424
     34 H6         -0.5800    1.8010   -0.9829 H         1 <0>         0.1395
     35 H7         -1.4734   -1.5146    0.1870 H         1 <0>         0.1331
     36 H8         -2.0027    0.0598    0.8269 H         1 <0>         0.1286
     37 H9         -2.0861    0.9688   -1.4786 H         1 <0>         0.0867
     38 H10        -1.5568   -0.6056   -2.1185 H         1 <0>         0.0901
     39 H11        -3.5751   -1.6760   -1.1544 H         1 <0>         0.0757
     40 H12        -4.1044   -0.1016   -0.5145 H         1 <0>         0.0754
     41 H13        -4.1877    0.8074   -2.8200 H         1 <0>         0.0744
     42 H14        -3.6584   -0.7670   -3.4599 H         1 <0>         0.0754
     43 H15        -5.6767   -1.8373   -2.4958 H         1 <0>         0.0480
     44 H16        -6.2060   -0.2630   -1.8560 H         1 <0>         0.0477
     45 H17        -7.6895   -1.9506   -3.8822 H         1 <0>         0.0491
     46 H18        -8.2188   -0.3762   -3.2423 H         1 <0>         0.0489
     47 H19        -6.3080   -0.8694   -6.3988 H         1 <0>         0.0682
     48 H20        -7.4082   -2.2676   -6.3445 H         1 <0>         0.0578
     49 H21        -7.3045   -1.3049   -8.6273 H         1 <0>         0.0694
     50 H22        -9.7431   -0.9888   -8.9466 H         1 <0>         0.0633
     51 H23        -9.4142   -2.3373   -7.8323 H         1 <0>         0.0615
     52 H24       -11.2213   -0.8814   -6.9586 H         1 <0>         0.0722
     53 H25        -9.6955   -2.0203   -5.3700 H         1 <0>         0.0634
     54 H26       -10.2248   -0.4459   -4.7301 H         1 <0>         0.0633
     55 H27       -10.4860    1.2211   -8.0484 H         1 <0>         0.0633
     56 H28       -10.6864    1.4470   -6.2942 H         1 <0>         0.0614
     57 H29        -8.5767    2.4793   -7.0892 H         1 <0>         0.0692
     58 H30        -6.7696    1.0234   -7.9629 H         1 <0>         0.0605
     59 H31        -8.1987    0.9738   -9.0228 H         1 <0>         0.0619
     60 H32        -8.6805    1.5167   -4.8064 H         1 <0>         0.0576
     61 H33        -7.0509    1.3405   -5.5006 H         1 <0>         0.0681
     62 H34         0.9394   -2.2080    2.3603 H         1 <0>         0.0898
     63 H35        -0.5476   -2.2053    1.3820 H         1 <0>         0.0714
     64 H36         1.1855   -3.4954    0.3634 H         1 <0>         0.3986
     65 H37         3.6537   -0.3694    0.0397 H         1 <0>         0.3930
     66 H38         1.5929    3.1464    2.2061 H         1 <0>         0.3988
     67 H39         2.9577    1.6812   -1.4382 H         1 <0>         0.4017
     68 H40         0.4247   -0.3694   -0.7639 H         1 <0>         0.4434
@<TRIPOS>BOND
     1    1   10 1
     2    1    2 1
     3    1   33 1
     4    1   34 1
     5    2    3 1
     6    2    4 1
     7    2   32 1
     8    4    5 1
     9    4    6 1
    10    4   31 1
    11    6    7 1
    12    6    8 1
    13    6   30 1
    14    8    9 1
    15    8   10 1
    16    8   28 1
    17   10   11 1
    18   10   68 1
    19   11   12 1
    20   11   35 1
    21   11   36 1
    22   12   13 1
    23   12   37 1
    24   12   38 1
    25   13   14 1
    26   13   39 1
    27   13   40 1
    28   14   15 1
    29   14   41 1
    30   14   42 1
    31   15   16 1
    32   15   43 1
    33   15   44 1
    34   16   17 1
    35   17   18 1
    36   17   45 1
    37   17   46 1
    38   18   23 1
    39   18   27 1
    40   18   19 1
    41   19   20 1
    42   19   47 1
    43   19   48 1
    44   20   26 1
    45   20   21 1
    46   20   49 1
    47   21   22 1
    48   21   50 1
    49   21   51 1
    50   22   23 1
    51   22   24 1
    52   22   52 1
    53   23   53 1
    54   23   54 1
    55   24   25 1
    56   24   55 1
    57   24   56 1
    58   25   26 1
    59   25   27 1
    60   25   57 1
    61   26   58 1
    62   26   59 1
    63   27   60 1
    64   27   61 1
    65   28   29 1
    66   28   62 1
    67   28   63 1
    68   29   64 1
    69   30   65 1
    70   31   66 1
    71   32   67 1
@<TRIPOS>MOLECULE
ZINC13719785
   37    37     0     0     0
SMALL
USER_CHARGES

@<TRIPOS>ATOM
      1 C1         -0.5154    1.3602    0.0038 C.3       1 <0>        -0.1592
      2 C2         -0.3088   -0.1557    0.0219 C.3       1 <0>        -0.1199
      3 C3          0.4399   -0.5834   -1.2420 C.3       1 <0>        -0.1494
      4 C4          0.6464   -2.0993   -1.2240 C.3       1 <0>        -0.0156
      5 N1          1.3653   -2.5100   -2.4375 N.4       1 <0>        -0.3722
      6 C5          0.5360   -2.2269   -3.6151 C.3       1 <0>        -0.0071
      7 C6          1.3120   -2.5777   -4.8864 C.3       1 <0>         0.0607
      8 H1          2.2230   -1.9809   -4.9331 H         1 <0>         0.0939
      9 C7          1.6758   -4.0650   -4.8619 C.3       1 <0>         0.0285
     10 H2          0.7646   -4.6632   -4.8669 H         1 <0>         0.0886
     11 C8          2.4774   -4.3636   -3.5916 C.3       1 <0>         0.1047
     12 H3          2.6923   -5.4309   -3.5393 H         1 <0>         0.1087
     13 C9          1.6582   -3.9467   -2.3683 C.3       1 <0>         0.0405
     14 H4          0.7235   -4.5071   -2.3493 H         1 <0>         0.1590
     15 C10         2.4551   -4.2433   -1.0964 C.3       1 <0>         0.0543
     16 O1          3.7102   -3.5623   -1.1509 O.3       1 <0>        -0.5525
     17 O2          3.7038   -3.6306   -3.6181 O.3       1 <0>        -0.5395
     18 O3          2.4628   -4.3835   -6.0113 O.3       1 <0>        -0.5478
     19 O4          0.5021   -2.3024   -6.0311 O.3       1 <0>        -0.5451
     20 H5          0.4534    1.8585   -0.0307 H         1 <0>         0.0599
     21 H6         -1.0980    1.6371   -0.8748 H         1 <0>         0.0594
     22 H7         -1.0488    1.6649    0.9043 H         1 <0>         0.0673
     23 H8          0.2738   -0.4326    0.9005 H         1 <0>         0.0735
     24 H9         -1.2776   -0.6540    0.0564 H         1 <0>         0.0734
     25 H10        -0.1427   -0.3065   -2.1207 H         1 <0>         0.0871
     26 H11         1.4087   -0.0851   -1.2766 H         1 <0>         0.0887
     27 H12         1.2290   -2.3762   -0.3454 H         1 <0>         0.1366
     28 H13        -0.3224   -2.5976   -1.1894 H         1 <0>         0.1313
     29 H14        -0.3748   -2.8240   -3.5695 H         1 <0>         0.1377
     30 H15         0.2753   -1.1687   -3.6294 H         1 <0>         0.1458
     31 H16         1.8933   -3.9008   -0.2274 H         1 <0>         0.0752
     32 H17         2.6274   -5.3168   -1.0176 H         1 <0>         0.0930
     33 H18         4.2694   -3.7053   -0.3751 H         1 <0>         0.4011
     34 H19         4.2728   -3.8429   -4.3706 H         1 <0>         0.4048
     35 H20         2.0173   -4.2131   -6.8525 H         1 <0>         0.3955
     36 H21         0.9319   -2.5017   -6.8741 H         1 <0>         0.4006
     37 H22         2.2299   -1.9944   -2.5057 H         1 <0>         0.4384
@<TRIPOS>BOND
     1    1    2 1
     2    1   20 1
     3    1   21 1
     4    1   22 1
     5    2    3 1
     6    2   23 1
     7    2   24 1
     8    3    4 1
     9    3   25 1
    10    3   26 1
    11    4    5 1
    12    4   27 1
    13    4   28 1
    14    5   13 1
    15    5    6 1
    16    5   37 1
    17    6    7 1
    18    6   29 1
    19    6   30 1
    20    7    8 1
    21    7    9 1
    22    7   19 1
    23    9   10 1
    24    9   11 1
    25    9   18 1
    26   11   12 1
    27   11   13 1
    28   11   17 1
    29   13   14 1
    30   13   15 1
    31   15   16 1
    32   15   31 1
    33   15   32 1
    34   16   33 1
    35   17   34 1
    36   18   35 1
    37   19   36 1
@<TRIPOS>MOLECULE
ZINC11681341
   37    37     0     0     0
SMALL
USER_CHARGES
(2S,3S,4R,5S)-1-butyl-2-(hydroxymethyl)piperidine-3,4,5-triol
@<TRIPOS>ATOM
      1 C1         -0.8693    2.4203   -1.0974 C.3       1 <0>        -0.1585
      2 C2         -0.1452    1.6999    0.0417 C.3       1 <0>        -0.1210
      3 C3         -0.8069    2.0579    1.3739 C.3       1 <0>        -0.1475
      4 C4         -0.0827    1.3375    2.5129 C.3       1 <0>        -0.0116
      5 C5         -2.0964    1.1775    3.8472 C.3       1 <0>        -0.0414
      6 C6         -2.7725    1.6765    5.1261 C.3       1 <0>         0.0537
      7 H1         -3.7904    1.2896    5.1744 H         1 <0>         0.1099
      8 C7         -1.9808    1.1854    6.3412 C.3       1 <0>         0.0650
      9 H2         -2.4341    1.5746    7.2529 H         1 <0>         0.0971
     10 C8         -0.5368    1.6833    6.2349 C.3       1 <0>         0.1155
     11 H3         -0.5255    2.7731    6.2506 H         1 <0>         0.1074
     12 C9          0.0746    1.1841    4.9238 C.3       1 <0>         0.0444
     13 H4          0.0757    0.0941    4.9154 H         1 <0>         0.1592
     14 C10         1.5114    1.6960    4.8037 C.3       1 <0>         0.0531
     15 O1          1.5178    3.1223    4.8920 O.3       1 <0>        -0.5778
     16 O2          0.2230    1.1825    7.3367 O.3       1 <0>        -0.5393
     17 O3         -1.9935   -0.2432    6.3739 O.3       1 <0>        -0.5429
     18 O4         -2.8040    3.1052    5.1229 O.3       1 <0>        -0.5523
     19 H5         -1.9145    2.1115   -1.1163 H         1 <0>         0.0586
     20 H6         -0.8116    3.4975   -0.9409 H         1 <0>         0.0597
     21 H7         -0.3979    2.1653   -2.0465 H         1 <0>         0.0675
     22 H8         -0.2030    0.6227   -0.1148 H         1 <0>         0.0736
     23 H9          0.9000    2.0087    0.0606 H         1 <0>         0.0739
     24 H10        -0.7491    3.1351    1.5304 H         1 <0>         0.0877
     25 H11        -1.8521    1.7490    1.3550 H         1 <0>         0.0843
     26 H12        -0.1405    0.2603    2.3564 H         1 <0>         0.1324
     27 H13         0.9624    1.6463    2.5318 H         1 <0>         0.1334
     28 H14        -2.6496    1.5374    2.9797 H         1 <0>         0.1367
     29 H15        -2.0851    0.0875    3.8439 H         1 <0>         0.1460
     30 H16         2.1142    1.2793    5.6107 H         1 <0>         0.1022
     31 H17         1.9273    1.3895    3.8440 H         1 <0>         0.0737
     32 H18         2.3981    3.5166    4.8235 H         1 <0>         0.4084
     33 H19        -0.1104    1.4576    8.2017 H         1 <0>         0.4028
     34 H20        -2.8787   -0.6273    6.4364 H         1 <0>         0.3943
     35 H21        -3.2878    3.4862    4.3774 H         1 <0>         0.3982
     36 N1         -0.7186    1.7112    3.7932 N.4       1 <0>        -0.3812
     37 H22        -0.7552    2.7351    3.8608 H         1 <0>         0.4347
@<TRIPOS>BOND
     1    1    2 1
     2    1   19 1
     3    1   20 1
     4    1   21 1
     5    2    3 1
     6    2   22 1
     7    2   23 1
     8    3    4 1
     9    3   24 1
    10    3   25 1
    11    4   26 1
    12    4   27 1
    13    4   36 1
    14    5    6 1
    15    5   28 1
    16    5   29 1
    17    5   36 1
    18    6    7 1
    19    6    8 1
    20    6   18 1
    21    8    9 1
    22    8   10 1
    23    8   17 1
    24   10   11 1
    25   10   12 1
    26   10   16 1
    27   12   13 1
    28   12   14 1
    29   12   36 1
    30   14   15 1
    31   14   30 1
    32   14   31 1
    33   15   32 1
    34   16   33 1
    35   17   34 1
    36   18   35 1
    37   36   37 1
@<TRIPOS>MOLECULE
ZINC66156319
   52    52     0     0     0
SMALL
USER_CHARGES

@<TRIPOS>ATOM
      1 C1          0.8596    0.7506   -1.4202 C.3       1 <0>        -0.1557
      2 C2          0.7349   -0.7717   -1.3323 C.3       1 <0>        -0.1263
      3 C3         -0.7299   -1.1513   -1.1061 C.3       1 <0>        -0.1217
      4 C4         -0.8545   -2.6737   -1.0182 C.3       1 <0>        -0.1218
      5 C5         -2.3193   -3.0533   -0.7921 C.3       1 <0>        -0.1213
      6 C6         -2.4439   -4.5757   -0.7041 C.3       1 <0>        -0.1212
      7 C7         -3.9087   -4.9553   -0.4780 C.3       1 <0>        -0.1168
      8 C8         -4.0333   -6.4777   -0.3901 C.3       1 <0>        -0.1459
      9 C9         -5.4981   -6.8573   -0.1639 C.3       1 <0>        -0.0180
     10 N1         -5.6177   -8.3190   -0.0795 N.4       1 <0>        -0.3707
     11 C10        -4.8916   -8.8004    1.1018 C.3       1 <0>         0.0009
     12 C11        -4.9447  -10.3289    1.1499 C.3       1 <0>         0.0581
     13 H1         -4.4066  -10.6843    2.0287 H         1 <0>         0.1015
     14 C12        -6.4057  -10.7813    1.2274 C.3       1 <0>         0.0281
     15 H2         -6.4518  -11.8701    1.2048 H         1 <0>         0.0893
     16 C13        -7.1704  -10.2115    0.0292 C.3       1 <0>         0.1077
     17 H3         -8.2232  -10.4829    0.1068 H         1 <0>         0.1029
     18 C14        -7.0349   -8.6873    0.0226 C.3       1 <0>         0.0465
     19 H4         -7.4496   -8.2821    0.9456 H         1 <0>         0.1585
     20 C15        -7.7978   -8.1133   -1.1730 C.3       1 <0>         0.0520
     21 O1         -7.2993   -8.6943   -2.3796 O.3       1 <0>        -0.5516
     22 O2         -6.6281  -10.7449   -1.1805 O.3       1 <0>        -0.5209
     23 O3         -6.9903  -10.3033    2.4405 O.3       1 <0>        -0.5535
     24 O4         -4.3402  -10.8648   -0.0288 O.3       1 <0>        -0.5475
     25 H5          1.9031    1.0211   -1.5813 H         1 <0>         0.0558
     26 H6          0.2568    1.1171   -2.2511 H         1 <0>         0.0541
     27 H7          0.5075    1.1983   -0.4908 H         1 <0>         0.0540
     28 H8          1.0870   -1.2194   -2.2617 H         1 <0>         0.0609
     29 H9          1.3377   -1.1382   -0.5014 H         1 <0>         0.0606
     30 H10        -1.0819   -0.7037   -0.1767 H         1 <0>         0.0613
     31 H11        -1.3326   -0.7848   -1.9371 H         1 <0>         0.0615
     32 H12        -0.5024   -3.1214   -1.9476 H         1 <0>         0.0620
     33 H13        -0.2517   -3.0402   -0.1873 H         1 <0>         0.0616
     34 H14        -2.6713   -2.6057    0.1374 H         1 <0>         0.0632
     35 H15        -2.9220   -2.6868   -1.6230 H         1 <0>         0.0635
     36 H16        -2.0919   -5.0233   -1.6336 H         1 <0>         0.0663
     37 H17        -1.8411   -4.9422    0.1268 H         1 <0>         0.0653
     38 H18        -4.2607   -4.5077    0.4514 H         1 <0>         0.0730
     39 H19        -4.5114   -4.5888   -1.3089 H         1 <0>         0.0733
     40 H20        -3.6813   -6.9253   -1.3195 H         1 <0>         0.0880
     41 H21        -3.4305   -6.8442    0.4409 H         1 <0>         0.0848
     42 H22        -5.8501   -6.4097    0.7655 H         1 <0>         0.1280
     43 H23        -6.1008   -6.4908   -0.9948 H         1 <0>         0.1326
     44 H24        -3.8528   -8.4750    1.0468 H         1 <0>         0.1392
     45 H25        -5.3520   -8.3928    2.0018 H         1 <0>         0.1423
     46 H26        -8.8586   -8.3420   -1.0708 H         1 <0>         0.0898
     47 H27        -7.6607   -7.0325   -1.2065 H         1 <0>         0.0715
     48 H28        -7.7382   -8.3756   -3.1802 H         1 <0>         0.3986
     49 H29        -6.6781  -11.7086   -1.2426 H         1 <0>         0.3929
     50 H30        -6.5509  -10.6215    3.2410 H         1 <0>         0.3987
     51 H31        -4.3387  -11.8311   -0.0656 H         1 <0>         0.4016
     52 H32        -5.2216   -8.7363   -0.9084 H         1 <0>         0.4431
@<TRIPOS>BOND
     1    1    2 1
     2    1   25 1
     3    1   26 1
     4    1   27 1
     5    2    3 1
     6    2   28 1
     7    2   29 1
     8    3    4 1
     9    3   30 1
    10    3   31 1
    11    4    5 1
    12    4   32 1
    13    4   33 1
    14    5    6 1
    15    5   34 1
    16    5   35 1
    17    6    7 1
    18    6   36 1
    19    6   37 1
    20    7    8 1
    21    7   38 1
    22    7   39 1
    23    8    9 1
    24    8   40 1
    25    8   41 1
    26    9   10 1
    27    9   42 1
    28    9   43 1
    29   10   18 1
    30   10   11 1
    31   10   52 1
    32   11   12 1
    33   11   44 1
    34   11   45 1
    35   12   13 1
    36   12   14 1
    37   12   24 1
    38   14   15 1
    39   14   16 1
    40   14   23 1
    41   16   17 1
    42   16   18 1
    43   16   22 1
    44   18   19 1
    45   18   20 1
    46   20   21 1
    47   20   46 1
    48   20   47 1
    49   21   48 1
    50   22   49 1
    51   23   50 1
    52   24   51 1
@<TRIPOS>MOLECULE
ZINC14253608
   52    52     0     0     0
SMALL
USER_CHARGES
(2R,3R,4R,5S)-2-(hydroxymethyl)-1-nonyl-piperidine-3,4,5-triol
@<TRIPOS>ATOM
      1 C1          0.7154   -2.0470   -3.5299 C.3       1 <0>        -0.1559
      2 C2          0.0108   -1.6297   -2.2375 C.3       1 <0>        -0.1262
      3 C3          0.1604   -0.1200   -2.0396 C.3       1 <0>        -0.1219
      4 C4         -0.5442    0.2973   -0.7472 C.3       1 <0>        -0.1216
      5 C5         -0.3946    1.8071   -0.5493 C.3       1 <0>        -0.1218
      6 C6         -1.0992    2.2243    0.7431 C.3       1 <0>        -0.1209
      7 C7         -0.9496    3.7341    0.9409 C.3       1 <0>        -0.1175
      8 C8         -1.6542    4.1513    2.2334 C.3       1 <0>        -0.1485
      9 C9         -1.5046    5.6611    2.4312 C.3       1 <0>        -0.0103
     10 C10        -3.6231    5.7956    3.5949 C.3       1 <0>        -0.0457
     11 C11        -4.2704    6.0877    4.9505 C.3       1 <0>         0.0575
     12 H1         -3.8342    5.4390    5.7101 H         1 <0>         0.0901
     13 C12        -4.0219    7.5516    5.3245 C.3       1 <0>         0.0687
     14 H2         -4.4921    8.2011    4.5861 H         1 <0>         0.0870
     15 C13        -2.5137    7.8145    5.3507 C.3       1 <0>         0.1111
     16 H3         -2.0492    7.1930    6.1162 H         1 <0>         0.0964
     17 C14        -1.9173    7.4724    3.9835 C.3       1 <0>         0.0415
     18 H4         -2.3723    8.1039    3.2204 H         1 <0>         0.1581
     19 C15        -0.4069    7.7145    4.0114 C.3       1 <0>         0.0557
     20 O1          0.1793    6.9463    5.0641 O.3       1 <0>        -0.5785
     21 O2         -2.2747    9.1925    5.6441 O.3       1 <0>        -0.5400
     22 O3         -4.5751    7.8153    6.6154 O.3       1 <0>        -0.5484
     23 O4         -5.6769    5.8483    4.8692 O.3       1 <0>        -0.5369
     24 H5          0.6088   -3.1226   -3.6709 H         1 <0>         0.0560
     25 H6          0.2660   -1.5237   -4.3739 H         1 <0>         0.0541
     26 H7          1.7732   -1.7920   -3.4657 H         1 <0>         0.0542
     27 H8          0.4601   -2.1530   -1.3935 H         1 <0>         0.0608
     28 H9         -1.0470   -1.8847   -2.3017 H         1 <0>         0.0607
     29 H10        -0.2889    0.4034   -2.8836 H         1 <0>         0.0615
     30 H11         1.2182    0.1350   -1.9754 H         1 <0>         0.0616
     31 H12        -0.0949   -0.2260    0.0968 H         1 <0>         0.0619
     32 H13        -1.6020    0.0423   -0.8114 H         1 <0>         0.0617
     33 H14         0.6632    2.0621   -0.4851 H         1 <0>         0.0639
     34 H15        -0.8439    2.3304   -1.3934 H         1 <0>         0.0636
     35 H16        -2.1570    1.9693    0.6789 H         1 <0>         0.0654
     36 H17        -0.6498    1.7010    1.5871 H         1 <0>         0.0663
     37 H18         0.1082    3.9891    1.0051 H         1 <0>         0.0746
     38 H19        -1.3989    4.2574    0.0969 H         1 <0>         0.0743
     39 H20        -2.7120    3.8963    2.1692 H         1 <0>         0.0857
     40 H21        -1.2048    3.6280    3.0774 H         1 <0>         0.0885
     41 H22        -0.4468    5.9161    2.4954 H         1 <0>         0.1357
     42 H23        -1.9539    6.1844    1.5872 H         1 <0>         0.1344
     43 H24        -4.0702    6.4350    2.8337 H         1 <0>         0.1423
     44 H25        -3.7860    4.7503    3.3324 H         1 <0>         0.1402
     45 H26         0.0269    7.4143    3.0575 H         1 <0>         0.0773
     46 H27        -0.2117    8.7732    4.1821 H         1 <0>         0.1048
     47 H28         1.1376    7.0510    5.1408 H         1 <0>         0.4108
     48 H29        -2.6264    9.4796    6.4979 H         1 <0>         0.4120
     49 H30        -5.5294    7.6691    6.6717 H         1 <0>         0.4050
     50 H31        -5.9081    4.9388    4.6357 H         1 <0>         0.3994
     51 N1         -2.1691    6.0447    3.6938 N.4       1 <0>        -0.3828
     52 H32        -1.7853    5.4771    4.4584 H         1 <0>         0.4345
@<TRIPOS>BOND
     1    1    2 1
     2    1   24 1
     3    1   25 1
     4    1   26 1
     5    2    3 1
     6    2   27 1
     7    2   28 1
     8    3    4 1
     9    3   29 1
    10    3   30 1
    11    4    5 1
    12    4   31 1
    13    4   32 1
    14    5    6 1
    15    5   33 1
    16    5   34 1
    17    6    7 1
    18    6   35 1
    19    6   36 1
    20    7    8 1
    21    7   37 1
    22    7   38 1
    23    8    9 1
    24    8   39 1
    25    8   40 1
    26    9   41 1
    27    9   42 1
    28    9   51 1
    29   10   11 1
    30   10   43 1
    31   10   44 1
    32   10   51 1
    33   11   12 1
    34   11   13 1
    35   11   23 1
    36   13   14 1
    37   13   15 1
    38   13   22 1
    39   15   16 1
    40   15   17 1
    41   15   21 1
    42   17   18 1
    43   17   19 1
    44   17   51 1
    45   19   20 1
    46   19   45 1
    47   19   46 1
    48   20   47 1
    49   21   48 1
    50   22   49 1
    51   23   50 1
    52   51   52 1
@<TRIPOS>MOLECULE
ZINC44351037
   61    61     0     0     0
SMALL
USER_CHARGES

@<TRIPOS>ATOM
      1 C1          0.7011    0.9820    1.3261 C.3       1 <0>        -0.1551
      2 C2          0.6398   -0.5348    1.1354 C.3       1 <0>        -0.1262
      3 C3         -0.8215   -0.9878    1.1159 C.3       1 <0>        -0.1215
      4 C4         -0.8828   -2.5046    0.9252 C.3       1 <0>        -0.1214
      5 C5         -2.3441   -2.9575    0.9058 C.3       1 <0>        -0.1210
      6 C6         -2.4054   -4.4743    0.7150 C.3       1 <0>        -0.1211
      7 C7         -3.8666   -4.9273    0.6956 C.3       1 <0>        -0.1213
      8 C8         -3.9279   -6.4441    0.5048 C.3       1 <0>        -0.1215
      9 C9         -5.3892   -6.8971    0.4854 C.3       1 <0>        -0.1214
     10 C10        -5.4505   -8.4139    0.2946 C.3       1 <0>        -0.1170
     11 C11        -6.9118   -8.8668    0.2752 C.3       1 <0>        -0.1490
     12 C12        -6.9731  -10.3837    0.0845 C.3       1 <0>        -0.0135
     13 N1         -8.3761  -10.8185    0.0658 N.4       1 <0>        -0.3725
     14 C13        -8.9884  -10.5469    1.3719 C.3       1 <0>        -0.0105
     15 C14       -10.4711  -10.9231    1.3325 C.3       1 <0>         0.0588
     16 H1        -10.9758  -10.3344    0.5664 H         1 <0>         0.0900
     17 C15       -10.6055  -12.4128    1.0039 C.3       1 <0>         0.0257
     18 H2        -10.1455  -13.0037    1.7959 H         1 <0>         0.0911
     19 C16        -9.8988  -12.6983   -0.3244 C.3       1 <0>         0.1122
     20 H3        -10.3917  -12.1464   -1.1248 H         1 <0>         0.0961
     21 C17        -8.4374  -12.2562   -0.2236 C.3       1 <0>         0.0357
     22 H4         -7.9455  -12.8088    0.5769 H         1 <0>         0.1569
     23 C18        -7.7269  -12.5398   -1.5487 C.3       1 <0>         0.0569
     24 O1         -8.4184  -11.8796   -2.6107 O.3       1 <0>        -0.5780
     25 O2         -9.9566  -14.0984   -0.6043 O.3       1 <0>        -0.5411
     26 O3        -11.9886  -12.7551    0.8943 O.3       1 <0>        -0.5475
     27 O4        -11.0644  -10.6589    2.6054 O.3       1 <0>        -0.5409
     28 H5          1.7421    1.3047    1.3400 H         1 <0>         0.0549
     29 H6          0.1794    1.4729    0.5045 H         1 <0>         0.0537
     30 H7          0.2253    1.2491    2.2698 H         1 <0>         0.0537
     31 H8          1.1155   -0.8019    0.1917 H         1 <0>         0.0605
     32 H9          1.1614   -1.0257    1.9570 H         1 <0>         0.0605
     33 H10        -1.2972   -0.7207    2.0596 H         1 <0>         0.0608
     34 H11        -1.3431   -0.4969    0.2943 H         1 <0>         0.0608
     35 H12        -0.4070   -2.7716   -0.0185 H         1 <0>         0.0609
     36 H13        -0.3611   -2.9955    1.7468 H         1 <0>         0.0609
     37 H14        -2.8198   -2.6905    1.8494 H         1 <0>         0.0609
     38 H15        -2.8657   -2.4666    0.0842 H         1 <0>         0.0609
     39 H16        -1.9296   -4.7414   -0.2286 H         1 <0>         0.0613
     40 H17        -1.8837   -4.9652    1.5366 H         1 <0>         0.0613
     41 H18        -4.3424   -4.6603    1.6392 H         1 <0>         0.0617
     42 H19        -4.3883   -4.4364   -0.1260 H         1 <0>         0.0618
     43 H20        -3.4522   -6.7112   -0.4388 H         1 <0>         0.0635
     44 H21        -3.4063   -6.9350    1.3264 H         1 <0>         0.0635
     45 H22        -5.8650   -6.6300    1.4290 H         1 <0>         0.0660
     46 H23        -5.9109   -6.4062   -0.3362 H         1 <0>         0.0663
     47 H24        -4.9748   -8.6809   -0.6490 H         1 <0>         0.0744
     48 H25        -4.9289   -8.9048    1.1162 H         1 <0>         0.0745
     49 H26        -7.3875   -8.5998    1.2189 H         1 <0>         0.0883
     50 H27        -7.4334   -8.3759   -0.5464 H         1 <0>         0.0893
     51 H28        -6.4973  -10.6507   -0.8592 H         1 <0>         0.1385
     52 H29        -6.4514  -10.8745    0.9061 H         1 <0>         0.1342
     53 H30        -8.4848  -11.1359    2.1383 H         1 <0>         0.1416
     54 H31        -8.8891   -9.4869    1.6058 H         1 <0>         0.1497
     55 H32        -6.7024  -12.1712   -1.4977 H         1 <0>         0.0779
     56 H33        -7.7179  -13.6140   -1.7335 H         1 <0>         0.1049
     57 H34        -8.0225  -12.0158   -3.4824 H         1 <0>         0.4107
     58 H35       -10.8551  -14.4479   -0.6787 H         1 <0>         0.4110
     59 H36       -12.4987  -12.5940    1.6999 H         1 <0>         0.3954
     60 H37       -12.0059  -10.8745    2.6528 H         1 <0>         0.4021
     61 H38        -8.8750  -10.3110   -0.6494 H         1 <0>         0.4305
@<TRIPOS>BOND
     1    1    2 1
     2    1   28 1
     3    1   29 1
     4    1   30 1
     5    2    3 1
     6    2   31 1
     7    2   32 1
     8    3    4 1
     9    3   33 1
    10    3   34 1
    11    4    5 1
    12    4   35 1
    13    4   36 1
    14    5    6 1
    15    5   37 1
    16    5   38 1
    17    6    7 1
    18    6   39 1
    19    6   40 1
    20    7    8 1
    21    7   41 1
    22    7   42 1
    23    8    9 1
    24    8   43 1
    25    8   44 1
    26    9   10 1
    27    9   45 1
    28    9   46 1
    29   10   11 1
    30   10   47 1
    31   10   48 1
    32   11   12 1
    33   11   49 1
    34   11   50 1
    35   12   13 1
    36   12   51 1
    37   12   52 1
    38   13   21 1
    39   13   14 1
    40   13   61 1
    41   14   15 1
    42   14   53 1
    43   14   54 1
    44   15   16 1
    45   15   17 1
    46   15   27 1
    47   17   18 1
    48   17   19 1
    49   17   26 1
    50   19   20 1
    51   19   21 1
    52   19   25 1
    53   21   22 1
    54   21   23 1
    55   23   24 1
    56   23   55 1
    57   23   56 1
    58   24   57 1
    59   25   58 1
    60   26   59 1
    61   27   60 1
@<TRIPOS>MOLECULE
ZINC33375437
   38    39     0     0     0
SMALL
USER_CHARGES
[[(3S,4S,5S,6S)-3,4,5-trihydroxy-6-(hydroxymethyl)tetrahydropyran-2-ylidene]amino] N-phenylcarbamate
@<TRIPOS>ATOM
      1 C1          1.3241    3.7803   -9.6827 C.ar      1 <0>        -0.1336
      2 C2          0.2302    2.9742   -9.9389 C.ar      1 <0>        -0.0991
      3 C3         -0.3598    2.2617   -8.9133 C.ar      1 <0>        -0.1413
      4 C4          0.1470    2.3552   -7.6238 C.ar      1 <0>         0.1648
      5 C5          1.2424    3.1697   -7.3688 C.ar      1 <0>        -0.1238
      6 C6          1.8314    3.8752   -8.3998 C.ar      1 <0>        -0.0972
      7 N1         -0.4485    1.6345   -6.5824 N.am      1 <0>        -0.6595
      8 C7          0.3072    1.1631   -5.5709 C.2       1 <0>         0.6496
      9 O1          1.5163    1.2792   -5.6105 O.2       1 <0>        -0.5099
     10 O2         -0.2771    0.5638   -4.5170 O.3       1 <0>        -0.1171
     11 N2          0.4575    0.1583   -3.6342 N.2       1 <0>        -0.3006
     12 C8         -0.0412   -0.4253   -2.5974 C.2       1 <0>         0.2703
     13 C9          0.8508   -0.9376   -1.4876 C.3       1 <0>         0.1858
     14 H1          0.9461   -2.0328   -1.5252 H         1 <0>         0.1094
     15 C10         0.2853   -0.4446   -0.1496 C.3       1 <0>         0.0956
     16 H2          0.8506   -0.8468    0.7040 H         1 <0>         0.0846
     17 C11        -1.1982   -0.8183   -0.0701 C.3       1 <0>         0.0603
     18 H3         -1.6317   -0.5334    0.8999 H         1 <0>         0.0784
     19 C12        -1.9508   -0.1613   -1.2302 C.3       1 <0>         0.0681
     20 H4         -1.8374    0.9327   -1.2123 H         1 <0>         0.0881
     21 O3         -1.3828   -0.5985   -2.4700 O.3       1 <0>        -0.3274
     22 C13        -3.4264   -0.5618   -1.1749 C.3       1 <0>         0.0921
     23 O4         -4.1485    0.1394   -2.1892 O.3       1 <0>        -0.5907
     24 O5         -1.3373   -2.2380   -0.1548 O.3       1 <0>        -0.5821
     25 O6          0.4265    0.9748   -0.0642 O.3       1 <0>        -0.5726
     26 O7          2.1772   -0.4360   -1.6641 O.3       1 <0>        -0.5623
     27 H5          1.7835    4.3367  -10.4863 H         1 <0>         0.1254
     28 H6         -0.1635    2.9019  -10.9420 H         1 <0>         0.1289
     29 H7         -1.2141    1.6323   -9.1141 H         1 <0>         0.1287
     30 H8          1.6359    3.2482   -6.3661 H         1 <0>         0.1348
     31 H9          2.6861    4.5054   -8.2029 H         1 <0>         0.1278
     32 H10        -1.5334    1.4528   -6.5894 H         1 <0>         0.4454
     33 H11        -3.5188   -1.6452   -1.3415 H         1 <0>         0.0572
     34 H12        -3.8390   -0.3061   -0.1878 H         1 <0>         0.0646
     35 H13        -5.2307   -0.0204   -2.3041 H         1 <0>         0.4154
     36 H14        -2.3366   -2.6961   -0.1150 H         1 <0>         0.4145
     37 H15         0.0747    1.5097    0.8303 H         1 <0>         0.4120
     38 H16         2.9670   -0.7056   -0.9475 H         1 <0>         0.4154
@<TRIPOS>BOND
     1    1    6 ar
     2    1    2 ar
     3    1   27 1
     4    2    3 ar
     5    2   28 1
     6    3    4 ar
     7    3   29 1
     8    4    5 ar
     9    4    7 1
    10    5    6 ar
    11    5   30 1
    12    6   31 1
    13    7    8 am
    14    7   32 1
    15    8    9 2
    16    8   10 1
    17   10   11 1
    18   11   12 2
    19   12   21 1
    20   12   13 1
    21   13   14 1
    22   13   15 1
    23   13   26 1
    24   15   16 1
    25   15   17 1
    26   15   25 1
    27   17   18 1
    28   17   19 1
    29   17   24 1
    30   19   20 1
    31   19   21 1
    32   19   22 1
    33   22   23 1
    34   22   33 1
    35   22   34 1
    36   23   35 1
    37   24   36 1
    38   25   37 1
    39   26   38 1
@<TRIPOS>MOLECULE
ZINC36323386
   38    39     0     0     0
SMALL
USER_CHARGES

@<TRIPOS>ATOM
      1 C1         -0.0153    1.3805    0.0310 C.ar      1 <0>        -0.1322
      2 C2          0.1397    0.2185    0.7645 C.ar      1 <0>        -0.0984
      3 C3          1.3441   -0.4573    0.7440 C.ar      1 <0>        -0.1206
      4 C4          2.3999    0.0314   -0.0141 C.ar      1 <0>         0.1587
      5 C5          2.2411    1.1986   -0.7495 C.ar      1 <0>        -0.1412
      6 C6          1.0342    1.8696   -0.7249 C.ar      1 <0>        -0.0990
      7 N1          3.6217   -0.6507   -0.0365 N.am      1 <0>        -0.6508
      8 C7          3.6448   -1.9950    0.0577 C.2       1 <0>         0.6535
      9 O1          2.6035   -2.6216    0.0649 O.2       1 <0>        -0.5241
     10 O2          4.8210   -2.6434    0.1439 O.3       1 <0>        -0.2007
     11 N2          4.6972   -4.0509    0.2375 N.2       1 <0>        -0.2760
     12 C8          5.7531   -4.7868    0.3256 C.2       1 <0>         0.2779
     13 C9          5.6469   -6.2933    0.4202 C.3       1 <0>         0.1275
     14 H1          4.6264   -6.6045    0.1968 H         1 <0>         0.0991
     15 C10         6.6108   -6.9087   -0.6022 C.3       1 <0>         0.0801
     16 H2          6.2605   -6.6910   -1.6111 H         1 <0>         0.0893
     17 C11         8.0025   -6.3015   -0.4000 C.3       1 <0>         0.0849
     18 H3          8.6947   -6.7292   -1.1253 H         1 <0>         0.0871
     19 C12         7.9290   -4.7851   -0.5970 C.3       1 <0>         0.1094
     20 H4          7.6025   -4.5655   -1.6135 H         1 <0>         0.0930
     21 O3          6.9936   -4.2324    0.3304 O.3       1 <0>        -0.3158
     22 C13         9.3105   -4.1716   -0.3604 C.3       1 <0>         0.0880
     23 O4          9.2685   -2.7744   -0.6573 O.3       1 <0>        -0.5679
     24 O5          8.4604   -6.5890    0.9228 O.3       1 <0>        -0.5328
     25 O6          6.6712   -8.3237   -0.4115 O.3       1 <0>        -0.5414
     26 O7          6.0031   -6.7196    1.7368 O.3       1 <0>        -0.5145
     27 H5         -0.9594    1.9047    0.0451 H         1 <0>         0.1257
     28 H6         -0.6817   -0.1608    1.3541 H         1 <0>         0.1281
     29 H7          1.4646   -1.3646    1.3173 H         1 <0>         0.1359
     30 H8          3.0605    1.5813   -1.3398 H         1 <0>         0.1283
     31 H9          0.9099    2.7772   -1.2969 H         1 <0>         0.1293
     32 H10         4.4519   -0.1561   -0.1200 H         1 <0>         0.4181
     33 H11         9.5974   -4.3132    0.6816 H         1 <0>         0.0726
     34 H12        10.0400   -4.6588   -1.0075 H         1 <0>         0.0720
     35 H13        10.1122   -2.3196   -0.5293 H         1 <0>         0.3868
     36 H14         8.5302   -7.5334    1.1183 H         1 <0>         0.3911
     37 H15         5.8206   -8.7714   -0.5170 H         1 <0>         0.3915
     38 H16         5.4434   -6.3518    2.4342 H         1 <0>         0.3875
@<TRIPOS>BOND
     1    1    6 ar
     2    1    2 ar
     3    1   27 1
     4    2    3 ar
     5    2   28 1
     6    3    4 ar
     7    3   29 1
     8    4    5 ar
     9    4    7 1
    10    5    6 ar
    11    5   30 1
    12    6   31 1
    13    7    8 am
    14    7   32 1
    15    8    9 2
    16    8   10 1
    17   10   11 1
    18   11   12 2
    19   12   21 1
    20   12   13 1
    21   13   14 1
    22   13   15 1
    23   13   26 1
    24   15   16 1
    25   15   17 1
    26   15   25 1
    27   17   18 1
    28   17   19 1
    29   17   24 1
    30   19   20 1
    31   19   21 1
    32   19   22 1
    33   22   23 1
    34   22   33 1
    35   22   34 1
    36   23   35 1
    37   24   36 1
    38   25   37 1
    39   26   38 1
@<TRIPOS>MOLECULE
ZINC36323390
   38    39     0     0     0
SMALL
USER_CHARGES

@<TRIPOS>ATOM
      1 C1         -0.0153    1.3805    0.0310 C.ar      1 <0>        -0.1324
      2 C2          0.1397    0.2185    0.7645 C.ar      1 <0>        -0.0984
      3 C3          1.3441   -0.4573    0.7440 C.ar      1 <0>        -0.1205
      4 C4          2.3999    0.0314   -0.0141 C.ar      1 <0>         0.1590
      5 C5          2.2411    1.1986   -0.7495 C.ar      1 <0>        -0.1415
      6 C6          1.0342    1.8696   -0.7249 C.ar      1 <0>        -0.0990
      7 N1          3.6217   -0.6507   -0.0365 N.am      1 <0>        -0.6512
      8 C7          3.6448   -1.9950    0.0577 C.2       1 <0>         0.6535
      9 O1          2.6035   -2.6216    0.0649 O.2       1 <0>        -0.5231
     10 O2          4.8210   -2.6434    0.1439 O.3       1 <0>        -0.2006
     11 N2          4.6972   -4.0509    0.2375 N.2       1 <0>        -0.2791
     12 C8          5.7531   -4.7868    0.3256 C.2       1 <0>         0.2794
     13 C9          5.6469   -6.2933    0.4202 C.3       1 <0>         0.1267
     14 H1          5.9193   -6.6185    1.4242 H         1 <0>         0.1162
     15 C10         6.6108   -6.9087   -0.6022 C.3       1 <0>         0.0847
     16 H2          6.2605   -6.6910   -1.6111 H         1 <0>         0.0853
     17 C11         8.0025   -6.3015   -0.4000 C.3       1 <0>         0.0843
     18 H3          8.6947   -6.7292   -1.1253 H         1 <0>         0.0974
     19 C12         7.9290   -4.7851   -0.5970 C.3       1 <0>         0.1072
     20 H4          7.6025   -4.5655   -1.6135 H         1 <0>         0.0965
     21 O3          6.9936   -4.2324    0.3304 O.3       1 <0>        -0.3184
     22 C13         9.3105   -4.1716   -0.3604 C.3       1 <0>         0.0879
     23 O4          9.2685   -2.7744   -0.6573 O.3       1 <0>        -0.5670
     24 O5          8.4604   -6.5890    0.9228 O.3       1 <0>        -0.5476
     25 O6          6.6712   -8.3237   -0.4115 O.3       1 <0>        -0.5502
     26 O7          4.3088   -6.7012    0.1282 O.3       1 <0>        -0.5426
     27 H5         -0.9594    1.9047    0.0451 H         1 <0>         0.1256
     28 H6         -0.6817   -0.1608    1.3541 H         1 <0>         0.1281
     29 H7          1.4646   -1.3646    1.3173 H         1 <0>         0.1360
     30 H8          3.0605    1.5813   -1.3398 H         1 <0>         0.1281
     31 H9          0.9099    2.7772   -1.2969 H         1 <0>         0.1292
     32 H10         4.4519   -0.1561   -0.1200 H         1 <0>         0.4178
     33 H11         9.5974   -4.3132    0.6816 H         1 <0>         0.0726
     34 H12        10.0400   -4.6588   -1.0075 H         1 <0>         0.0732
     35 H13        10.1122   -2.3196   -0.5293 H         1 <0>         0.3874
     36 H14         8.5302   -7.5334    1.1183 H         1 <0>         0.3939
     37 H15         5.8206   -8.7714   -0.5170 H         1 <0>         0.3996
     38 H16         3.6456   -6.3323    0.7275 H         1 <0>         0.4017
@<TRIPOS>BOND
     1    1    6 ar
     2    1    2 ar
     3    1   27 1
     4    2    3 ar
     5    2   28 1
     6    3    4 ar
     7    3   29 1
     8    4    5 ar
     9    4    7 1
    10    5    6 ar
    11    5   30 1
    12    6   31 1
    13    7    8 am
    14    7   32 1
    15    8    9 2
    16    8   10 1
    17   10   11 1
    18   11   12 2
    19   12   21 1
    20   12   13 1
    21   13   14 1
    22   13   15 1
    23   13   26 1
    24   15   16 1
    25   15   17 1
    26   15   25 1
    27   17   18 1
    28   17   19 1
    29   17   24 1
    30   19   20 1
    31   19   21 1
    32   19   22 1
    33   22   23 1
    34   22   33 1
    35   22   34 1
    36   23   35 1
    37   24   36 1
    38   25   37 1
    39   26   38 1
@<TRIPOS>MOLECULE
ZINC36323394
   38    39     0     0     0
SMALL
USER_CHARGES

@<TRIPOS>ATOM
      1 C1         -0.0153    1.3805    0.0310 C.ar      1 <0>        -0.1327
      2 C2          0.1397    0.2185    0.7645 C.ar      1 <0>        -0.0985
      3 C3          1.3441   -0.4573    0.7440 C.ar      1 <0>        -0.1208
      4 C4          2.3999    0.0314   -0.0141 C.ar      1 <0>         0.1595
      5 C5          2.2411    1.1986   -0.7495 C.ar      1 <0>        -0.1416
      6 C6          1.0342    1.8696   -0.7249 C.ar      1 <0>        -0.0989
      7 N1          3.6217   -0.6507   -0.0365 N.am      1 <0>        -0.6514
      8 C7          3.6448   -1.9950    0.0577 C.2       1 <0>         0.6539
      9 O1          2.6035   -2.6216    0.0649 O.2       1 <0>        -0.5252
     10 O2          4.8210   -2.6434    0.1439 O.3       1 <0>        -0.2012
     11 N2          4.6972   -4.0509    0.2375 N.2       1 <0>        -0.2793
     12 C8          5.7531   -4.7868    0.3256 C.2       1 <0>         0.2862
     13 C9          5.6469   -6.2933    0.4202 C.3       1 <0>         0.1271
     14 H1          4.6264   -6.6045    0.1968 H         1 <0>         0.0995
     15 C10         6.6108   -6.9087   -0.6022 C.3       1 <0>         0.0775
     16 H2          6.6584   -7.9878   -0.4553 H         1 <0>         0.0966
     17 C11         8.0025   -6.3015   -0.4000 C.3       1 <0>         0.0840
     18 H3          8.6947   -6.7292   -1.1253 H         1 <0>         0.0898
     19 C12         7.9290   -4.7851   -0.5970 C.3       1 <0>         0.1133
     20 H4          7.6025   -4.5655   -1.6135 H         1 <0>         0.0989
     21 O3          6.9936   -4.2324    0.3304 O.3       1 <0>        -0.3185
     22 C13         9.3105   -4.1716   -0.3604 C.3       1 <0>         0.0859
     23 O4          9.2685   -2.7744   -0.6573 O.3       1 <0>        -0.5673
     24 O5          8.4604   -6.5890    0.9228 O.3       1 <0>        -0.5281
     25 O6          6.1501   -6.6256   -1.9249 O.3       1 <0>        -0.5475
     26 O7          6.0031   -6.7196    1.7368 O.3       1 <0>        -0.5236
     27 H5         -0.9594    1.9047    0.0451 H         1 <0>         0.1255
     28 H6         -0.6817   -0.1608    1.3541 H         1 <0>         0.1279
     29 H7          1.4646   -1.3646    1.3173 H         1 <0>         0.1358
     30 H8          3.0605    1.5813   -1.3398 H         1 <0>         0.1282
     31 H9          0.9099    2.7772   -1.2969 H         1 <0>         0.1291
     32 H10         4.4519   -0.1561   -0.1200 H         1 <0>         0.4180
     33 H11         9.5974   -4.3132    0.6816 H         1 <0>         0.0699
     34 H12        10.0400   -4.6588   -1.0075 H         1 <0>         0.0701
     35 H13        10.1122   -2.3196   -0.5293 H         1 <0>         0.3852
     36 H14         8.5302   -7.5334    1.1183 H         1 <0>         0.3856
     37 H15         5.2694   -6.9752   -2.1180 H         1 <0>         0.3939
     38 H16         5.4434   -6.3518    2.4342 H         1 <0>         0.3934
@<TRIPOS>BOND
     1    1    6 ar
     2    1    2 ar
     3    1   27 1
     4    2    3 ar
     5    2   28 1
     6    3    4 ar
     7    3   29 1
     8    4    5 ar
     9    4    7 1
    10    5    6 ar
    11    5   30 1
    12    6   31 1
    13    7    8 am
    14    7   32 1
    15    8    9 2
    16    8   10 1
    17   10   11 1
    18   11   12 2
    19   12   21 1
    20   12   13 1
    21   13   14 1
    22   13   15 1
    23   13   26 1
    24   15   16 1
    25   15   17 1
    26   15   25 1
    27   17   18 1
    28   17   19 1
    29   17   24 1
    30   19   20 1
    31   19   21 1
    32   19   22 1
    33   22   23 1
    34   22   33 1
    35   22   34 1
    36   23   35 1
    37   24   36 1
    38   25   37 1
    39   26   38 1
