@<TRIPOS>MOLECULE
ZINC33375437
   38    39     0     0     0
SMALL
USER_CHARGES
[[(3S,4S,5S,6S)-3,4,5-trihydroxy-6-(hydroxymethyl)tetrahydropyran-2-ylidene]amino] N-phenylcarbamate
@<TRIPOS>ATOM
      1 C1          1.3241    3.7803   -9.6827 C.ar      1 <0>        -0.1336
      2 C2          0.2302    2.9742   -9.9389 C.ar      1 <0>        -0.0991
      3 C3         -0.3598    2.2617   -8.9133 C.ar      1 <0>        -0.1413
      4 C4          0.1470    2.3552   -7.6238 C.ar      1 <0>         0.1648
      5 C5          1.2424    3.1697   -7.3688 C.ar      1 <0>        -0.1238
      6 C6          1.8314    3.8752   -8.3998 C.ar      1 <0>        -0.0972
      7 N1         -0.4485    1.6345   -6.5824 N.am      1 <0>        -0.6595
      8 C7          0.3072    1.1631   -5.5709 C.2       1 <0>         0.6496
      9 O1          1.5163    1.2792   -5.6105 O.2       1 <0>        -0.5099
     10 O2         -0.2771    0.5638   -4.5170 O.3       1 <0>        -0.1171
     11 N2          0.4575    0.1583   -3.6342 N.2       1 <0>        -0.3006
     12 C8         -0.0412   -0.4253   -2.5974 C.2       1 <0>         0.2703
     13 C9          0.8508   -0.9376   -1.4876 C.3       1 <0>         0.1858
     14 H1          0.9461   -2.0328   -1.5252 H         1 <0>         0.1094
     15 C10         0.2853   -0.4446   -0.1496 C.3       1 <0>         0.0956
     16 H2          0.8506   -0.8468    0.7040 H         1 <0>         0.0846
     17 C11        -1.1982   -0.8183   -0.0701 C.3       1 <0>         0.0603
     18 H3         -1.6317   -0.5334    0.8999 H         1 <0>         0.0784
     19 C12        -1.9508   -0.1613   -1.2302 C.3       1 <0>         0.0681
     20 H4         -1.8374    0.9327   -1.2123 H         1 <0>         0.0881
     21 O3         -1.3828   -0.5985   -2.4700 O.3       1 <0>        -0.3274
     22 C13        -3.4264   -0.5618   -1.1749 C.3       1 <0>         0.0921
     23 O4         -4.1485    0.1394   -2.1892 O.3       1 <0>        -0.5907
     24 O5         -1.3373   -2.2380   -0.1548 O.3       1 <0>        -0.5821
     25 O6          0.4265    0.9748   -0.0642 O.3       1 <0>        -0.5726
     26 O7          2.1772   -0.4360   -1.6641 O.3       1 <0>        -0.5623
     27 H5          1.7835    4.3367  -10.4863 H         1 <0>         0.1254
     28 H6         -0.1635    2.9019  -10.9420 H         1 <0>         0.1289
     29 H7         -1.2141    1.6323   -9.1141 H         1 <0>         0.1287
     30 H8          1.6359    3.2482   -6.3661 H         1 <0>         0.1348
     31 H9          2.6861    4.5054   -8.2029 H         1 <0>         0.1278
     32 H10        -1.5334    1.4528   -6.5894 H         1 <0>         0.4454
     33 H11        -3.5188   -1.6452   -1.3415 H         1 <0>         0.0572
     34 H12        -3.8390   -0.3061   -0.1878 H         1 <0>         0.0646
     35 H13        -5.2307   -0.0204   -2.3041 H         1 <0>         0.4154
     36 H14        -2.3366   -2.6961   -0.1150 H         1 <0>         0.4145
     37 H15         0.0747    1.5097    0.8303 H         1 <0>         0.4120
     38 H16         2.9670   -0.7056   -0.9475 H         1 <0>         0.4154
@<TRIPOS>BOND
     1    1    6 ar
     2    1    2 ar
     3    1   27 1
     4    2    3 ar
     5    2   28 1
     6    3    4 ar
     7    3   29 1
     8    4    5 ar
     9    4    7 1
    10    5    6 ar
    11    5   30 1
    12    6   31 1
    13    7    8 am
    14    7   32 1
    15    8    9 2
    16    8   10 1
    17   10   11 1
    18   11   12 2
    19   12   21 1
    20   12   13 1
    21   13   14 1
    22   13   15 1
    23   13   26 1
    24   15   16 1
    25   15   17 1
    26   15   25 1
    27   17   18 1
    28   17   19 1
    29   17   24 1
    30   19   20 1
    31   19   21 1
    32   19   22 1
    33   22   23 1
    34   22   33 1
    35   22   34 1
    36   23   35 1
    37   24   36 1
    38   25   37 1
    39   26   38 1
@<TRIPOS>MOLECULE
ZINC36323386
   38    39     0     0     0
SMALL
USER_CHARGES

@<TRIPOS>ATOM
      1 C1         -0.0153    1.3805    0.0310 C.ar      1 <0>        -0.1322
      2 C2          0.1397    0.2185    0.7645 C.ar      1 <0>        -0.0984
      3 C3          1.3441   -0.4573    0.7440 C.ar      1 <0>        -0.1206
      4 C4          2.3999    0.0314   -0.0141 C.ar      1 <0>         0.1587
      5 C5          2.2411    1.1986   -0.7495 C.ar      1 <0>        -0.1412
      6 C6          1.0342    1.8696   -0.7249 C.ar      1 <0>        -0.0990
      7 N1          3.6217   -0.6507   -0.0365 N.am      1 <0>        -0.6508
      8 C7          3.6448   -1.9950    0.0577 C.2       1 <0>         0.6535
      9 O1          2.6035   -2.6216    0.0649 O.2       1 <0>        -0.5241
     10 O2          4.8210   -2.6434    0.1439 O.3       1 <0>        -0.2007
     11 N2          4.6972   -4.0509    0.2375 N.2       1 <0>        -0.2760
     12 C8          5.7531   -4.7868    0.3256 C.2       1 <0>         0.2779
     13 C9          5.6469   -6.2933    0.4202 C.3       1 <0>         0.1275
     14 H1          4.6264   -6.6045    0.1968 H         1 <0>         0.0991
     15 C10         6.6108   -6.9087   -0.6022 C.3       1 <0>         0.0801
     16 H2          6.2605   -6.6910   -1.6111 H         1 <0>         0.0893
     17 C11         8.0025   -6.3015   -0.4000 C.3       1 <0>         0.0849
     18 H3          8.6947   -6.7292   -1.1253 H         1 <0>         0.0871
     19 C12         7.9290   -4.7851   -0.5970 C.3       1 <0>         0.1094
     20 H4          7.6025   -4.5655   -1.6135 H         1 <0>         0.0930
     21 O3          6.9936   -4.2324    0.3304 O.3       1 <0>        -0.3158
     22 C13         9.3105   -4.1716   -0.3604 C.3       1 <0>         0.0880
     23 O4          9.2685   -2.7744   -0.6573 O.3       1 <0>        -0.5679
     24 O5          8.4604   -6.5890    0.9228 O.3       1 <0>        -0.5328
     25 O6          6.6712   -8.3237   -0.4115 O.3       1 <0>        -0.5414
     26 O7          6.0031   -6.7196    1.7368 O.3       1 <0>        -0.5145
     27 H5         -0.9594    1.9047    0.0451 H         1 <0>         0.1257
     28 H6         -0.6817   -0.1608    1.3541 H         1 <0>         0.1281
     29 H7          1.4646   -1.3646    1.3173 H         1 <0>         0.1359
     30 H8          3.0605    1.5813   -1.3398 H         1 <0>         0.1283
     31 H9          0.9099    2.7772   -1.2969 H         1 <0>         0.1293
     32 H10         4.4519   -0.1561   -0.1200 H         1 <0>         0.4181
     33 H11         9.5974   -4.3132    0.6816 H         1 <0>         0.0726
     34 H12        10.0400   -4.6588   -1.0075 H         1 <0>         0.0720
     35 H13        10.1122   -2.3196   -0.5293 H         1 <0>         0.3868
     36 H14         8.5302   -7.5334    1.1183 H         1 <0>         0.3911
     37 H15         5.8206   -8.7714   -0.5170 H         1 <0>         0.3915
     38 H16         5.4434   -6.3518    2.4342 H         1 <0>         0.3875
@<TRIPOS>BOND
     1    1    6 ar
     2    1    2 ar
     3    1   27 1
     4    2    3 ar
     5    2   28 1
     6    3    4 ar
     7    3   29 1
     8    4    5 ar
     9    4    7 1
    10    5    6 ar
    11    5   30 1
    12    6   31 1
    13    7    8 am
    14    7   32 1
    15    8    9 2
    16    8   10 1
    17   10   11 1
    18   11   12 2
    19   12   21 1
    20   12   13 1
    21   13   14 1
    22   13   15 1
    23   13   26 1
    24   15   16 1
    25   15   17 1
    26   15   25 1
    27   17   18 1
    28   17   19 1
    29   17   24 1
    30   19   20 1
    31   19   21 1
    32   19   22 1
    33   22   23 1
    34   22   33 1
    35   22   34 1
    36   23   35 1
    37   24   36 1
    38   25   37 1
    39   26   38 1
@<TRIPOS>MOLECULE
ZINC36323390
   38    39     0     0     0
SMALL
USER_CHARGES

@<TRIPOS>ATOM
      1 C1         -0.0153    1.3805    0.0310 C.ar      1 <0>        -0.1324
      2 C2          0.1397    0.2185    0.7645 C.ar      1 <0>        -0.0984
      3 C3          1.3441   -0.4573    0.7440 C.ar      1 <0>        -0.1205
      4 C4          2.3999    0.0314   -0.0141 C.ar      1 <0>         0.1590
      5 C5          2.2411    1.1986   -0.7495 C.ar      1 <0>        -0.1415
      6 C6          1.0342    1.8696   -0.7249 C.ar      1 <0>        -0.0990
      7 N1          3.6217   -0.6507   -0.0365 N.am      1 <0>        -0.6512
      8 C7          3.6448   -1.9950    0.0577 C.2       1 <0>         0.6535
      9 O1          2.6035   -2.6216    0.0649 O.2       1 <0>        -0.5231
     10 O2          4.8210   -2.6434    0.1439 O.3       1 <0>        -0.2006
     11 N2          4.6972   -4.0509    0.2375 N.2       1 <0>        -0.2791
     12 C8          5.7531   -4.7868    0.3256 C.2       1 <0>         0.2794
     13 C9          5.6469   -6.2933    0.4202 C.3       1 <0>         0.1267
     14 H1          5.9193   -6.6185    1.4242 H         1 <0>         0.1162
     15 C10         6.6108   -6.9087   -0.6022 C.3       1 <0>         0.0847
     16 H2          6.2605   -6.6910   -1.6111 H         1 <0>         0.0853
     17 C11         8.0025   -6.3015   -0.4000 C.3       1 <0>         0.0843
     18 H3          8.6947   -6.7292   -1.1253 H         1 <0>         0.0974
     19 C12         7.9290   -4.7851   -0.5970 C.3       1 <0>         0.1072
     20 H4          7.6025   -4.5655   -1.6135 H         1 <0>         0.0965
     21 O3          6.9936   -4.2324    0.3304 O.3       1 <0>        -0.3184
     22 C13         9.3105   -4.1716   -0.3604 C.3       1 <0>         0.0879
     23 O4          9.2685   -2.7744   -0.6573 O.3       1 <0>        -0.5670
     24 O5          8.4604   -6.5890    0.9228 O.3       1 <0>        -0.5476
     25 O6          6.6712   -8.3237   -0.4115 O.3       1 <0>        -0.5502
     26 O7          4.3088   -6.7012    0.1282 O.3       1 <0>        -0.5426
     27 H5         -0.9594    1.9047    0.0451 H         1 <0>         0.1256
     28 H6         -0.6817   -0.1608    1.3541 H         1 <0>         0.1281
     29 H7          1.4646   -1.3646    1.3173 H         1 <0>         0.1360
     30 H8          3.0605    1.5813   -1.3398 H         1 <0>         0.1281
     31 H9          0.9099    2.7772   -1.2969 H         1 <0>         0.1292
     32 H10         4.4519   -0.1561   -0.1200 H         1 <0>         0.4178
     33 H11         9.5974   -4.3132    0.6816 H         1 <0>         0.0726
     34 H12        10.0400   -4.6588   -1.0075 H         1 <0>         0.0732
     35 H13        10.1122   -2.3196   -0.5293 H         1 <0>         0.3874
     36 H14         8.5302   -7.5334    1.1183 H         1 <0>         0.3939
     37 H15         5.8206   -8.7714   -0.5170 H         1 <0>         0.3996
     38 H16         3.6456   -6.3323    0.7275 H         1 <0>         0.4017
@<TRIPOS>BOND
     1    1    6 ar
     2    1    2 ar
     3    1   27 1
     4    2    3 ar
     5    2   28 1
     6    3    4 ar
     7    3   29 1
     8    4    5 ar
     9    4    7 1
    10    5    6 ar
    11    5   30 1
    12    6   31 1
    13    7    8 am
    14    7   32 1
    15    8    9 2
    16    8   10 1
    17   10   11 1
    18   11   12 2
    19   12   21 1
    20   12   13 1
    21   13   14 1
    22   13   15 1
    23   13   26 1
    24   15   16 1
    25   15   17 1
    26   15   25 1
    27   17   18 1
    28   17   19 1
    29   17   24 1
    30   19   20 1
    31   19   21 1
    32   19   22 1
    33   22   23 1
    34   22   33 1
    35   22   34 1
    36   23   35 1
    37   24   36 1
    38   25   37 1
    39   26   38 1
@<TRIPOS>MOLECULE
ZINC36323394
   38    39     0     0     0
SMALL
USER_CHARGES

@<TRIPOS>ATOM
      1 C1         -0.0153    1.3805    0.0310 C.ar      1 <0>        -0.1327
      2 C2          0.1397    0.2185    0.7645 C.ar      1 <0>        -0.0985
      3 C3          1.3441   -0.4573    0.7440 C.ar      1 <0>        -0.1208
      4 C4          2.3999    0.0314   -0.0141 C.ar      1 <0>         0.1595
      5 C5          2.2411    1.1986   -0.7495 C.ar      1 <0>        -0.1416
      6 C6          1.0342    1.8696   -0.7249 C.ar      1 <0>        -0.0989
      7 N1          3.6217   -0.6507   -0.0365 N.am      1 <0>        -0.6514
      8 C7          3.6448   -1.9950    0.0577 C.2       1 <0>         0.6539
      9 O1          2.6035   -2.6216    0.0649 O.2       1 <0>        -0.5252
     10 O2          4.8210   -2.6434    0.1439 O.3       1 <0>        -0.2012
     11 N2          4.6972   -4.0509    0.2375 N.2       1 <0>        -0.2793
     12 C8          5.7531   -4.7868    0.3256 C.2       1 <0>         0.2862
     13 C9          5.6469   -6.2933    0.4202 C.3       1 <0>         0.1271
     14 H1          4.6264   -6.6045    0.1968 H         1 <0>         0.0995
     15 C10         6.6108   -6.9087   -0.6022 C.3       1 <0>         0.0775
     16 H2          6.6584   -7.9878   -0.4553 H         1 <0>         0.0966
     17 C11         8.0025   -6.3015   -0.4000 C.3       1 <0>         0.0840
     18 H3          8.6947   -6.7292   -1.1253 H         1 <0>         0.0898
     19 C12         7.9290   -4.7851   -0.5970 C.3       1 <0>         0.1133
     20 H4          7.6025   -4.5655   -1.6135 H         1 <0>         0.0989
     21 O3          6.9936   -4.2324    0.3304 O.3       1 <0>        -0.3185
     22 C13         9.3105   -4.1716   -0.3604 C.3       1 <0>         0.0859
     23 O4          9.2685   -2.7744   -0.6573 O.3       1 <0>        -0.5673
     24 O5          8.4604   -6.5890    0.9228 O.3       1 <0>        -0.5281
     25 O6          6.1501   -6.6256   -1.9249 O.3       1 <0>        -0.5475
     26 O7          6.0031   -6.7196    1.7368 O.3       1 <0>        -0.5236
     27 H5         -0.9594    1.9047    0.0451 H         1 <0>         0.1255
     28 H6         -0.6817   -0.1608    1.3541 H         1 <0>         0.1279
     29 H7          1.4646   -1.3646    1.3173 H         1 <0>         0.1358
     30 H8          3.0605    1.5813   -1.3398 H         1 <0>         0.1282
     31 H9          0.9099    2.7772   -1.2969 H         1 <0>         0.1291
     32 H10         4.4519   -0.1561   -0.1200 H         1 <0>         0.4180
     33 H11         9.5974   -4.3132    0.6816 H         1 <0>         0.0699
     34 H12        10.0400   -4.6588   -1.0075 H         1 <0>         0.0701
     35 H13        10.1122   -2.3196   -0.5293 H         1 <0>         0.3852
     36 H14         8.5302   -7.5334    1.1183 H         1 <0>         0.3856
     37 H15         5.2694   -6.9752   -2.1180 H         1 <0>         0.3939
     38 H16         5.4434   -6.3518    2.4342 H         1 <0>         0.3934
@<TRIPOS>BOND
     1    1    6 ar
     2    1    2 ar
     3    1   27 1
     4    2    3 ar
     5    2   28 1
     6    3    4 ar
     7    3   29 1
     8    4    5 ar
     9    4    7 1
    10    5    6 ar
    11    5   30 1
    12    6   31 1
    13    7    8 am
    14    7   32 1
    15    8    9 2
    16    8   10 1
    17   10   11 1
    18   11   12 2
    19   12   21 1
    20   12   13 1
    21   13   14 1
    22   13   15 1
    23   13   26 1
    24   15   16 1
    25   15   17 1
    26   15   25 1
    27   17   18 1
    28   17   19 1
    29   17   24 1
    30   19   20 1
    31   19   21 1
    32   19   22 1
    33   22   23 1
    34   22   33 1
    35   22   34 1
    36   23   35 1
    37   24   36 1
    38   25   37 1
    39   26   38 1
