@<TRIPOS>MOLECULE
ZINC01532157
   30    31     0     0     0
SMALL
USER_CHARGES

@<TRIPOS>ATOM
      1 C1          0.6241    1.3582    1.1570 C.ar      1 <0>        -0.0402
      2 C2          1.1796    2.0855    0.1204 C.ar      1 <0>        -0.1470
      3 C3          1.7557    1.4341   -0.9546 C.ar      1 <0>        -0.0419
      4 C4          1.7778    0.0526   -0.9968 C.ar      1 <0>        -0.0140
      5 C5          1.2206   -0.6815    0.0429 C.ar      1 <0>         0.1822
      6 C6          0.6429   -0.0236    1.1218 C.ar      1 <0>        -0.0370
      7 Cl1        -0.0548   -0.9357    2.4237 Cl        1 <0>        -0.0099
      8 N1          1.2407   -2.0822    0.0033 N.pl3     1 <0>        -0.3493
      9 C7          0.1537   -2.9004    0.0743 C.2       1 <0>         0.5034
     10 C8          0.5952   -4.1828    0.0019 C.2       1 <0>        -0.6460
     11 C9          2.0005   -4.1488   -0.1175 C.2       1 <0>         0.2619
     12 N2          2.3813   -2.8853   -0.1222 N.2       1 <0>        -0.2092
     13 C10         2.8631   -5.2871   -0.2217 C.1       1 <0>         0.2680
     14 N3          3.5474   -6.1901   -0.3044 N.1       1 <0>        -0.3345
     15 S1         -0.4082   -5.6305    0.0487 S.o       1 <0>         1.4312
     16 O1          0.4701   -6.6422    0.5223 O.2       1 <0>        -0.7564
     17 C11        -0.8082   -5.9437   -1.6927 C.3       1 <0>         0.0980
     18 F1          0.3737   -6.1446   -2.4138 F         1 <0>        -0.1891
     19 F2         -1.6126   -7.0843   -1.7885 F         1 <0>        -0.1738
     20 F3         -1.4942   -4.8437   -2.2187 F         1 <0>        -0.1709
     21 N4         -1.1722   -2.4947    0.1993 N.pl3     1 <0>        -0.8236
     22 Cl2         2.5003   -0.7642   -2.3476 Cl        1 <0>        -0.0017
     23 C12         1.1566    3.5917    0.1623 C.3       1 <0>         0.5153
     24 F4          2.3120    4.0583    0.7985 F         1 <0>        -0.1653
     25 F5          1.1077    4.0938   -1.1426 F         1 <0>        -0.1671
     26 F6          0.0288    4.0214    0.8698 F         1 <0>        -0.1674
     27 H1          0.1790    1.8703    1.9972 H         1 <0>         0.1698
     28 H2          2.1886    2.0054   -1.7625 H         1 <0>         0.1687
     29 H3         -1.3977   -1.5525    0.1513 H         1 <0>         0.4162
     30 H4         -1.8706   -3.1542    0.3343 H         1 <0>         0.4295
@<TRIPOS>BOND
     1    1    6 ar
     2    1    2 ar
     3    1   27 1
     4    2    3 ar
     5    2   23 1
     6    3    4 ar
     7    3   28 1
     8    4    5 ar
     9    4   22 1
    10    5    6 ar
    11    5    8 1
    12    6    7 1
    13    8   12 1
    14    8    9 1
    15    9   10 2
    16    9   21 1
    17   10   11 1
    18   10   15 1
    19   11   12 2
    20   11   13 1
    21   13   14 3
    22   15   16 2
    23   15   17 1
    24   17   18 1
    25   17   19 1
    26   17   20 1
    27   21   29 1
    28   21   30 1
    29   23   24 1
    30   23   25 1
    31   23   26 1
@<TRIPOS>MOLECULE
ZINC03872568
   30    31     0     0     0
SMALL
USER_CHARGES

@<TRIPOS>ATOM
      1 C1          0.6247    1.3688    1.1156 C.ar      1 <0>        -0.0407
      2 C2          1.1752    2.0866    0.0698 C.ar      1 <0>        -0.1473
      3 C3          1.7474    1.4255   -1.0014 C.ar      1 <0>        -0.0423
      4 C4          1.7706    0.0437   -1.0304 C.ar      1 <0>        -0.0141
      5 C5          1.2185   -0.6810    0.0186 C.ar      1 <0>         0.1815
      6 C6          0.6447   -0.0133    1.0935 C.ar      1 <0>        -0.0389
      7 Cl1        -0.0467   -0.9135    2.4070 Cl        1 <0>        -0.0085
      8 N1          1.2398   -2.0820   -0.0076 N.pl3     1 <0>        -0.3518
      9 C7          0.1537   -2.9004    0.0743 C.2       1 <0>         0.4982
     10 C8          0.5961   -4.1830    0.0128 C.2       1 <0>        -0.6484
     11 C9          2.0011   -4.1489   -0.1110 C.2       1 <0>         0.2681
     12 N2          2.3807   -2.8852   -0.1288 N.2       1 <0>        -0.2063
     13 C10         2.8644   -5.2874   -0.2069 C.1       1 <0>         0.2726
     14 N3          3.5493   -6.1905   -0.2829 N.1       1 <0>        -0.3349
     15 S1         -0.4057   -5.6311    0.0764 S.o       1 <0>         1.4432
     16 O1         -1.5759   -5.2096    0.7636 O.2       1 <0>        -0.7799
     17 C11        -0.8106   -5.9613   -1.6607 C.3       1 <0>         0.1002
     18 F1          0.3694   -6.1680   -2.3834 F         1 <0>        -0.1662
     19 F2         -1.6142   -7.1035   -1.7433 F         1 <0>        -0.1725
     20 F3         -1.4991   -4.8670   -2.1952 F         1 <0>        -0.1934
     21 N4         -1.1722   -2.4947    0.1993 N.pl3     1 <0>        -0.8201
     22 Cl2         2.4882   -0.7853   -2.3764 Cl        1 <0>        -0.0015
     23 C12         1.1509    3.5932    0.0974 C.3       1 <0>         0.5156
     24 F4          2.3085    4.0668    0.7242 F         1 <0>        -0.1650
     25 F5          1.0961    4.0827   -1.2121 F         1 <0>        -0.1671
     26 F6          0.0257    4.0286    0.8055 F         1 <0>        -0.1675
     27 H1          0.1827    1.8885    1.9528 H         1 <0>         0.1695
     28 H2          2.1763    1.9894   -1.8165 H         1 <0>         0.1692
     29 H3         -1.3977   -1.5525    0.1513 H         1 <0>         0.4110
     30 H4         -1.8706   -3.1542    0.3343 H         1 <0>         0.4369
@<TRIPOS>BOND
     1    1    6 ar
     2    1    2 ar
     3    1   27 1
     4    2    3 ar
     5    2   23 1
     6    3    4 ar
     7    3   28 1
     8    4    5 ar
     9    4   22 1
    10    5    6 ar
    11    5    8 1
    12    6    7 1
    13    8   12 1
    14    8    9 1
    15    9   10 2
    16    9   21 1
    17   10   11 1
    18   10   15 1
    19   11   12 2
    20   11   13 1
    21   13   14 3
    22   15   16 2
    23   15   17 1
    24   17   18 1
    25   17   19 1
    26   17   20 1
    27   21   29 1
    28   21   30 1
    29   23   24 1
    30   23   25 1
    31   23   26 1
@<TRIPOS>MOLECULE
ZINC03872070
   29    31     0     0     0
SMALL
USER_CHARGES

@<TRIPOS>ATOM
      1 C1         -0.0167    1.3795    0.0096 C.ar      1 <0>        -0.0927
      2 C2          1.1683    2.0940    0.0021 C.ar      1 <0>        -0.1229
      3 C3          2.3774    1.4303   -0.0130 C.ar      1 <0>        -0.0794
      4 C4          2.4038    0.0341   -0.0208 C.ar      1 <0>        -0.0750
      5 C5          1.2040   -0.6806   -0.0131 C.ar      1 <0>        -0.0800
      6 C6          0.0021   -0.0041    0.0020 C.ar      1 <0>        -0.1206
      7 C7          3.6945   -0.6834   -0.0374 C.2       1 <0>         0.2076
      8 C8          3.6865   -2.0422   -0.0503 C.2       1 <0>        -0.3115
      9 C9          4.9147   -2.7475   -0.0669 C.2       1 <0>         0.4227
     10 O1          4.9453   -3.9673   -0.0791 O.2       1 <0>        -0.4538
     11 C10         6.1531   -1.9509   -0.0693 C.ar      1 <0>        -0.2663
     12 C11         7.4124   -2.5640   -0.0858 C.ar      1 <0>         0.2193
     13 C12         8.5511   -1.7802   -0.0879 C.ar      1 <0>        -0.2051
     14 C13         8.4449   -0.3935   -0.0739 C.ar      1 <0>         0.1922
     15 C14         7.2019    0.2199   -0.0571 C.ar      1 <0>        -0.1832
     16 C15         6.0486   -0.5493   -0.0551 C.ar      1 <0>         0.1831
     17 O2          4.8303    0.0319   -0.0449 O.3       1 <0>        -0.2180
     18 O3          9.5695    0.3668   -0.0761 O.3       1 <0>        -0.4872
     19 O4          7.5139   -3.9173   -0.0990 O.3       1 <0>        -0.4722
     20 H1         -0.9606    1.9042    0.0260 H         1 <0>         0.1309
     21 H2          1.1464    3.1738    0.0078 H         1 <0>         0.1326
     22 H3          3.3016    1.9892   -0.0192 H         1 <0>         0.1349
     23 H4          1.2173   -1.7605   -0.0194 H         1 <0>         0.1361
     24 H5         -0.9265   -0.5555    0.0079 H         1 <0>         0.1347
     25 H6          2.7503   -2.5805   -0.0475 H         1 <0>         0.1636
     26 H7          9.5256   -2.2457   -0.1002 H         1 <0>         0.1502
     27 H8          7.1320    1.2975   -0.0459 H         1 <0>         0.1533
     28 H9          9.8879    0.5955   -0.9601 H         1 <0>         0.4037
     29 H10         7.5357   -4.3014   -0.9862 H         1 <0>         0.4030
@<TRIPOS>BOND
     1    1    6 ar
     2    1    2 ar
     3    1   20 1
     4    2    3 ar
     5    2   21 1
     6    3    4 ar
     7    3   22 1
     8    4    5 ar
     9    4    7 1
    10    5    6 ar
    11    5   23 1
    12    6   24 1
    13    7   17 1
    14    7    8 2
    15    8    9 1
    16    8   25 1
    17    9   10 2
    18    9   11 1
    19   11   16 ar
    20   11   12 ar
    21   12   13 ar
    22   12   19 1
    23   13   14 ar
    24   13   26 1
    25   14   15 ar
    26   14   18 1
    27   15   16 ar
    28   15   27 1
    29   16   17 1
    30   18   28 1
    31   19   29 1
@<TRIPOS>MOLECULE
ZINC03872070
   28    30     0     0     0
SMALL
USER_CHARGES

@<TRIPOS>ATOM
      1 C1         -0.0167    1.3797    0.0096 C.ar      1 <0>        -0.1070
      2 C2          1.1682    2.0946    0.0022 C.ar      1 <0>        -0.1239
      3 C3          2.3774    1.4315   -0.0129 C.ar      1 <0>        -0.0844
      4 C4          2.4042    0.0344   -0.0206 C.ar      1 <0>        -0.0523
      5 C5          1.2037   -0.6807   -0.0130 C.ar      1 <0>        -0.0872
      6 C6          0.0021   -0.0041    0.0020 C.ar      1 <0>        -0.1230
      7 C7          3.6938   -0.6822   -0.0372 C.2       1 <0>         0.1725
      8 C8          3.6987   -2.0599   -0.0503 C.2       1 <0>        -0.2684
      9 C9          4.9147   -2.7500   -0.0661 C.2       1 <0>         0.3652
     10 C10         6.1116   -2.0009   -0.0682 C.2       1 <0>        -0.3412
     11 C11         7.3668   -2.6443   -0.0844 C.2       1 <0>         0.2654
     12 C12         8.5111   -1.9002   -0.0865 C.2       1 <0>        -0.3783
     13 C13         8.4435   -0.4975   -0.0722 C.2       1 <0>         0.3617
     14 O1          9.5678    0.2204   -0.0740 O.2       1 <0>        -0.6670
     15 C14         7.2040    0.1518   -0.0566 C.2       1 <0>        -0.3151
     16 C15         6.0392   -0.5896   -0.0543 C.2       1 <0>         0.2114
     17 O2          4.8365    0.0229   -0.0448 O.3       1 <0>        -0.2195
     18 O3          7.4365   -3.9993   -0.0974 O.3       1 <0>        -0.4477
     19 O4          4.9436   -4.1007   -0.0786 O.3       1 <0>        -0.5790
     20 H1         -0.9606    1.9042    0.0260 H         1 <0>         0.1247
     21 H2          1.1460    3.1743    0.0078 H         1 <0>         0.1280
     22 H3          3.3014    1.9906   -0.0191 H         1 <0>         0.1359
     23 H4          1.2169   -1.7606   -0.0192 H         1 <0>         0.1351
     24 H5         -0.9266   -0.5554    0.0079 H         1 <0>         0.1291
     25 H6          2.7663   -2.6050   -0.0479 H         1 <0>         0.1462
     26 H7          9.4725   -2.3921   -0.0990 H         1 <0>         0.1160
     27 H8          7.1585    1.2308   -0.0456 H         1 <0>         0.1202
     28 H9          8.3389   -4.3466   -0.1079 H         1 <0>         0.3827
@<TRIPOS>BOND
     1    1    6 ar
     2    1    2 ar
     3    1   20 1
     4    2    3 ar
     5    2   21 1
     6    3    4 ar
     7    3   22 1
     8    4    5 ar
     9    4    7 1
    10    5    6 ar
    11    5   23 1
    12    6   24 1
    13    7   17 1
    14    7    8 2
    15    8    9 1
    16    8   25 1
    17    9   10 2
    18    9   19 1
    19   10   16 1
    20   10   11 1
    21   11   12 2
    22   11   18 1
    23   12   13 1
    24   12   26 1
    25   13   14 2
    26   13   15 1
    27   15   16 2
    28   15   27 1
    29   16   17 1
    30   18   28 1
@<TRIPOS>MOLECULE
ZINC06507046
   30    32     0     0     0
SMALL
USER_CHARGES

@<TRIPOS>ATOM
      1 C1         -0.0187    1.5258    0.0104 C.3       1 <0>        -0.1516
      2 C2          0.0021   -0.0041    0.0020 C.3       1 <0>         0.0576
      3 O1          0.6932   -0.4774    1.1597 O.3       1 <0>        -0.3290
      4 C3          0.8010   -1.8125    1.3044 C.2       1 <0>         0.5310
      5 O2          0.3215   -2.5545    0.4707 O.2       1 <0>        -0.5021
      6 C4          1.5026   -2.3743    2.4772 C.ar      1 <0>         0.0402
      7 C5          1.6143   -3.7553    2.6160 C.ar      1 <0>        -0.0333
      8 C6          2.2792   -4.2624    3.7284 C.ar      1 <0>        -0.0831
      9 C7          2.5953   -5.6144    4.2150 C.ar      1 <0>        -0.1038
     10 C8          2.3393   -6.8954    3.7304 C.ar      1 <0>        -0.0556
     11 C9          2.7783   -7.9949    4.4350 C.ar      1 <0>        -0.1428
     12 C10         3.4736   -7.8308    5.6237 C.ar      1 <0>        -0.0754
     13 C11         3.7339   -6.5702    6.1150 C.ar      1 <0>        -0.1379
     14 C12         3.2989   -5.4466    5.4180 C.ar      1 <0>         0.1403
     15 N1          3.4169   -4.0919    5.6699 N.pl3     1 <0>        -0.5953
     16 C13         2.8128   -3.3630    4.6699 C.ar      1 <0>         0.1173
     17 C14         2.6538   -1.9943    4.4511 C.ar      1 <0>         0.0980
     18 N2          2.0253   -1.5542    3.3864 N.ar      1 <0>        -0.4039
     19 H1          1.0039    1.9031    0.0027 H         1 <0>         0.0677
     20 H2         -0.5459    1.8868   -0.8726 H         1 <0>         0.0803
     21 H3         -0.5289    1.8773    0.9072 H         1 <0>         0.0677
     22 H4         -1.0205   -0.3814    0.0098 H         1 <0>         0.0690
     23 H5          0.5123   -0.3556   -0.8948 H         1 <0>         0.0690
     24 H6          1.1933   -4.4194    1.8756 H         1 <0>         0.1539
     25 H7          1.7978   -7.0261    2.8052 H         1 <0>         0.1310
     26 H8          2.5801   -8.9882    4.0604 H         1 <0>         0.1325
     27 H9          3.8135   -8.6987    6.1693 H         1 <0>         0.1343
     28 H10         4.2762   -6.4537    7.0417 H         1 <0>         0.1294
     29 H11         3.0568   -1.2892    5.1630 H         1 <0>         0.1699
     30 H12         3.8619   -3.7092    6.4422 H         1 <0>         0.4248
@<TRIPOS>BOND
     1    1    2 1
     2    1   19 1
     3    1   20 1
     4    1   21 1
     5    2    3 1
     6    2   22 1
     7    2   23 1
     8    3    4 1
     9    4    5 2
    10    4    6 1
    11    6   18 ar
    12    6    7 ar
    13    7    8 ar
    14    7   24 1
    15    8   16 ar
    16    8    9 1
    17    9   14 ar
    18    9   10 ar
    19   10   11 ar
    20   10   25 1
    21   11   12 ar
    22   11   26 1
    23   12   13 ar
    24   12   27 1
    25   13   14 ar
    26   13   28 1
    27   14   15 1
    28   15   16 1
    29   15   30 1
    30   16   17 ar
    31   17   18 ar
    32   17   29 1
@<TRIPOS>MOLECULE
ZINC06507046
   31    33     0     0     0
SMALL
USER_CHARGES

@<TRIPOS>ATOM
      1 C1         -0.0187    1.5258    0.0104 C.3       1 <0>        -0.1574
      2 C2          0.0021   -0.0041    0.0020 C.3       1 <0>         0.0635
      3 O1          0.6709   -0.4649   -1.1737 O.3       1 <0>        -0.3539
      4 C3          0.7758   -1.7984   -1.3347 C.2       1 <0>         0.5063
      5 O2          0.3122   -2.5493   -0.5000 O.2       1 <0>        -0.4447
      6 C4          1.4548   -2.3474   -2.5266 C.ar      1 <0>         0.0584
      7 C5          1.5538   -3.7270   -2.6880 C.ar      1 <0>         0.0150
      8 C6          2.1974   -4.2220   -3.8182 C.ar      1 <0>        -0.0128
      9 C7          2.4947   -5.5688   -4.3305 C.ar      1 <0>        -0.1156
     10 C8          2.2352   -6.8550   -3.8620 C.ar      1 <0>        -0.0440
     11 C9          2.6535   -7.9469   -4.5907 C.ar      1 <0>        -0.1219
     12 C10         3.3312   -7.7700   -5.7877 C.ar      1 <0>        -0.0454
     13 C11         3.5947   -6.5040   -6.2632 C.ar      1 <0>        -0.1296
     14 C12         3.1805   -5.3879   -5.5419 C.ar      1 <0>         0.1539
     15 N1          3.3056   -4.0304   -5.7748 N.pl3     1 <0>        -0.5653
     16 C13         2.7234   -3.3124   -4.7542 C.ar      1 <0>         0.1319
     17 C14         2.5790   -1.9460   -4.5119 C.ar      1 <0>         0.1494
     18 N2          1.9602   -1.5175   -3.4368 N.ar      1 <0>        -0.3940
     19 H1          1.0039    1.9031    0.0027 H         1 <0>         0.0711
     20 H2         -0.5459    1.8868   -0.8726 H         1 <0>         0.0710
     21 H3         -0.5289    1.8773    0.9072 H         1 <0>         0.0933
     22 H4          0.5293   -0.3651    0.8851 H         1 <0>         0.0826
     23 H5         -1.0205   -0.3814    0.0098 H         1 <0>         0.0826
     24 H6          1.1398   -4.3991   -1.9509 H         1 <0>         0.1968
     25 H7          1.7080   -6.9958   -2.9300 H         1 <0>         0.1443
     26 H8          2.4532   -8.9444   -4.2283 H         1 <0>         0.1478
     27 H9          3.6554   -8.6320   -6.3518 H         1 <0>         0.1500
     28 H10         4.1232   -6.3775   -7.1965 H         1 <0>         0.1440
     29 H11         2.9763   -1.2332   -5.2193 H         1 <0>         0.2207
     30 H12         3.7422   -3.6394   -6.5476 H         1 <0>         0.4401
     31 H13         1.8718   -0.5616   -3.2980 H         1 <0>         0.4618
@<TRIPOS>BOND
     1    1    2 1
     2    1   19 1
     3    1   20 1
     4    1   21 1
     5    2    3 1
     6    2   22 1
     7    2   23 1
     8    3    4 1
     9    4    5 2
    10    4    6 1
    11    6   18 ar
    12    6    7 ar
    13    7    8 ar
    14    7   24 1
    15    8   16 ar
    16    8    9 1
    17    9   14 ar
    18    9   10 ar
    19   10   11 ar
    20   10   25 1
    21   11   12 ar
    22   11   26 1
    23   12   13 ar
    24   12   27 1
    25   13   14 ar
    26   13   28 1
    27   14   15 1
    28   15   16 1
    29   15   30 1
    30   16   17 ar
    31   17   18 ar
    32   17   29 1
    33   18   31 1
@<TRIPOS>MOLECULE
ZINC00006427
   33    35     0     0     0
SMALL
USER_CHARGES

@<TRIPOS>ATOM
      1 C1          0.5645    1.4220    0.1928 C.3       1 <0>         0.0583
      2 N1          0.3235   -0.0204    0.1049 N.am      1 <0>        -0.5555
      3 C2         -0.9927   -0.4531    0.1626 C.ar      1 <0>         0.1844
      4 C3         -1.9457    0.2992   -0.5272 C.ar      1 <0>        -0.1319
      5 C4         -3.2733   -0.0670   -0.5149 C.ar      1 <0>        -0.0651
      6 C5         -3.6777   -1.1917    0.1872 C.ar      1 <0>        -0.0514
      7 C6         -2.7519   -1.9453    0.8726 C.ar      1 <0>        -0.0516
      8 C7         -1.3954   -1.5853    0.8674 C.ar      1 <0>        -0.1200
      9 C8         -0.4607   -2.4388    1.6175 C.2       1 <0>         0.2679
     10 N2          0.7150   -2.7715    1.2168 N.2       1 <0>        -0.4888
     11 C9          1.2537   -2.3110   -0.0624 C.3       1 <0>         0.0242
     12 C10         1.3847   -0.8126   -0.0296 C.2       1 <0>         0.5094
     13 O1          2.4861   -0.3137   -0.1239 O.2       1 <0>        -0.5107
     14 C11        -0.9076   -2.9538    2.9327 C.ar      1 <0>        -0.0709
     15 C12        -0.3330   -4.1079    3.4647 C.ar      1 <0>        -0.0682
     16 C13        -0.7535   -4.5827    4.6901 C.ar      1 <0>        -0.1263
     17 C14        -1.7429   -3.9163    5.3909 C.ar      1 <0>        -0.0986
     18 C15        -2.3166   -2.7710    4.8684 C.ar      1 <0>        -0.1241
     19 C16        -1.9005   -2.2832    3.6466 C.ar      1 <0>        -0.0904
     20 Cl1        -5.3522   -1.6496    0.2025 Cl        1 <0>        -0.0531
     21 H1          1.6353    1.6160    0.1296 H         1 <0>         0.1025
     22 H2          0.0549    1.9262   -0.6283 H         1 <0>         0.0740
     23 H3          0.1827    1.7970    1.1424 H         1 <0>         0.0729
     24 H4         -1.6385    1.1774   -1.0758 H         1 <0>         0.1452
     25 H5         -4.0004    0.5233   -1.0528 H         1 <0>         0.1468
     26 H6         -3.0719   -2.8206    1.4183 H         1 <0>         0.1484
     27 H7          2.2331   -2.7595   -0.2287 H         1 <0>         0.1343
     28 H8          0.5774   -2.5976   -0.8678 H         1 <0>         0.0942
     29 H9          0.4392   -4.6292    2.9184 H         1 <0>         0.1347
     30 H10        -0.3096   -5.4765    5.1029 H         1 <0>         0.1285
     31 H11        -2.0690   -4.2920    6.3495 H         1 <0>         0.1264
     32 H12        -3.0889   -2.2553    5.4199 H         1 <0>         0.1284
     33 H13        -2.3460   -1.3865    3.2417 H         1 <0>         0.1261
@<TRIPOS>BOND
     1    1    2 1
     2    1   21 1
     3    1   22 1
     4    1   23 1
     5    2   12 am
     6    2    3 1
     7    3    8 ar
     8    3    4 ar
     9    4    5 ar
    10    4   24 1
    11    5    6 ar
    12    5   25 1
    13    6    7 ar
    14    6   20 1
    15    7    8 ar
    16    7   26 1
    17    8    9 1
    18    9   10 2
    19    9   14 1
    20   10   11 1
    21   11   12 1
    22   11   27 1
    23   11   28 1
    24   12   13 2
    25   14   19 ar
    26   14   15 ar
    27   15   16 ar
    28   15   29 1
    29   16   17 ar
    30   16   30 1
    31   17   18 ar
    32   17   31 1
    33   18   19 ar
    34   18   32 1
    35   19   33 1
@<TRIPOS>MOLECULE
ZINC01043853
   29    30     0     0     0
SMALL
USER_CHARGES
5-amino-1-[2,6-dichloro-4-(trifluoromethyl)phenyl]-3-methylsulfanyl-pyrazole-4-carbonitrile
@<TRIPOS>ATOM
      1 C1         -5.3298    0.3270   -0.2026 C.3       1 <0>        -0.1510
      2 S1         -5.1546    2.0874    0.1984 S.3       1 <0>         0.0058
      3 C2         -3.4203    2.3789    0.0893 C.2       1 <0>         0.1446
      4 C3         -2.7375    3.6536    0.3220 C.2       1 <0>        -0.2296
      5 C4         -1.3795    3.4092    0.1286 C.2       1 <0>         0.4582
      6 N1         -1.2450    2.1068   -0.2005 N.pl3     1 <0>        -0.3533
      7 N2         -2.5016    1.4958   -0.2160 N.2       1 <0>        -0.2717
      8 C5         -0.0309    1.4648   -0.4782 C.ar      1 <0>         0.1933
      9 C6          0.7962    1.9450   -1.4861 C.ar      1 <0>        -0.0430
     10 C7          1.9907    1.3059   -1.7607 C.ar      1 <0>        -0.0411
     11 C8          2.3625    0.1895   -1.0344 C.ar      1 <0>        -0.1529
     12 C9          1.5419   -0.2912   -0.0306 C.ar      1 <0>        -0.0431
     13 C10         0.3461    0.3430    0.2499 C.ar      1 <0>        -0.0173
     14 Cl1        -0.6836   -0.2617    1.5099 Cl        1 <0>        -0.0051
     15 C11         3.6654   -0.5046   -1.3372 C.3       1 <0>         0.5157
     16 F1          3.4534   -1.4931   -2.3043 F         1 <0>        -0.1663
     17 F2          4.5899    0.4283   -1.8188 F         1 <0>        -0.1683
     18 F3          4.1623   -1.0936   -0.1696 F         1 <0>        -0.1680
     19 Cl2         0.3300    3.3458   -2.3993 Cl        1 <0>        -0.0114
     20 N3         -0.3578    4.3314    0.2493 N.pl3     1 <0>        -0.8266
     21 C12        -3.3436    4.9002    0.6815 C.1       1 <0>         0.2939
     22 N4         -3.8245    5.8891    0.9666 N.1       1 <0>        -0.4267
     23 H1         -4.7674   -0.2674    0.5174 H         1 <0>         0.0899
     24 H2         -6.3826    0.0478   -0.1607 H         1 <0>         0.1142
     25 H3         -4.9447    0.1427   -1.2056 H         1 <0>         0.0904
     26 H4          2.6342    1.6786   -2.5440 H         1 <0>         0.1669
     27 H5          1.8354   -1.1634    0.5346 H         1 <0>         0.1665
     28 H6          0.5661    4.0424    0.1883 H         1 <0>         0.4086
     29 H7         -0.5644    5.2678    0.3951 H         1 <0>         0.4271
@<TRIPOS>BOND
     1    1    2 1
     2    1   23 1
     3    1   24 1
     4    1   25 1
     5    2    3 1
     6    3    7 2
     7    3    4 1
     8    4    5 2
     9    4   21 1
    10    5    6 1
    11    5   20 1
    12    6    7 1
    13    6    8 1
    14    8   13 ar
    15    8    9 ar
    16    9   10 ar
    17    9   19 1
    18   10   11 ar
    19   10   26 1
    20   11   12 ar
    21   11   15 1
    22   12   13 ar
    23   12   27 1
    24   13   14 1
    25   15   16 1
    26   15   17 1
    27   15   18 1
    28   20   28 1
    29   20   29 1
    30   21   22 3
@<TRIPOS>MOLECULE
ZINC13781494
   36    38     0     0     0
SMALL
USER_CHARGES
ethyl 8-bromo-5-methyl-6-oxo-4H-imidazo[1,5-a][1,4]benzodiazepine-3-carboxylate
@<TRIPOS>ATOM
      1 C1         -5.8495    3.4610    0.1011 C.3       1 <0>        -0.1537
      2 C2         -4.8710    2.2847    0.1016 C.3       1 <0>         0.0616
      3 O1         -3.5095    2.7877    0.0626 O.3       1 <0>        -0.3347
      4 C3         -2.5192    1.8733    0.0580 C.2       1 <0>         0.5602
      5 O2         -2.7864    0.6879    0.0858 O.2       1 <0>        -0.5072
      6 C4         -1.1144    2.3102    0.0192 C.2       1 <0>        -0.0200
      7 C5         -0.0184    1.5026    0.0103 C.2       1 <0>         0.0520
      8 N1          1.0725    2.3073    0.0042 N.pl3     1 <0>        -0.4068
      9 C6          0.6315    3.5952   -0.0357 C.2       1 <0>         0.2124
     10 N2         -0.6708    3.5953   -0.0151 N.2       1 <0>        -0.4287
     11 C7          2.4022    1.8833    0.0598 C.ar      1 <0>         0.1622
     12 C8          3.2946    2.6360    0.8182 C.ar      1 <0>        -0.1173
     13 C9          4.6033    2.2287    0.9672 C.ar      1 <0>        -0.0445
     14 C10         5.0393    1.0621    0.3589 C.ar      1 <0>        -0.0945
     15 C11         4.1740    0.3151   -0.4064 C.ar      1 <0>        -0.0179
     16 C12         2.8400    0.7219   -0.5789 C.ar      1 <0>        -0.1091
     17 C13         1.9800   -0.1009   -1.4319 C.2       1 <0>         0.5503
     18 O3          2.4804   -0.5271   -2.4547 O.2       1 <0>        -0.5247
     19 N3          0.7085   -0.4340   -1.2096 N.am      1 <0>        -0.5969
     20 C14         0.0021   -0.0041    0.0020 C.3       1 <0>         0.1626
     21 C15        -0.0006   -1.2488   -2.1993 C.3       1 <0>         0.0832
     22 Br1         6.8296    0.4954    0.5818 Br        1 <0>        -0.0192
     23 H1         -5.6676    4.0853    0.9759 H         1 <0>         0.0683
     24 H2         -5.7064    4.0522   -0.8033 H         1 <0>         0.0682
     25 H3         -6.8716    3.0834    0.1304 H         1 <0>         0.0822
     26 H4         -5.0529    1.6604   -0.7732 H         1 <0>         0.0728
     27 H5         -5.0141    1.6935    1.0061 H         1 <0>         0.0733
     28 H6          1.2592    4.4731   -0.0777 H         1 <0>         0.2270
     29 H7          2.9593    3.5461    1.2932 H         1 <0>         0.1531
     30 H8          5.2887    2.8187    1.5575 H         1 <0>         0.1553
     31 H9          4.5227   -0.5915   -0.8785 H         1 <0>         0.1554
     32 H10         0.5255   -0.3713    0.8848 H         1 <0>         0.0965
     33 H11        -1.0183   -0.3873   -0.0085 H         1 <0>         0.1474
     34 H12        -0.4841   -0.5972   -2.9271 H         1 <0>         0.0613
     35 H13         0.7092   -1.8999   -2.7096 H         1 <0>         0.0881
     36 H14        -0.7544   -1.8556   -1.6976 H         1 <0>         0.0819
@<TRIPOS>BOND
     1    1    2 1
     2    1   23 1
     3    1   24 1
     4    1   25 1
     5    2    3 1
     6    2   26 1
     7    2   27 1
     8    3    4 1
     9    4    5 2
    10    4    6 1
    11    6   10 1
    12    6    7 2
    13    7   20 1
    14    7    8 1
    15    8    9 1
    16    8   11 1
    17    9   10 2
    18    9   28 1
    19   11   16 ar
    20   11   12 ar
    21   12   13 ar
    22   12   29 1
    23   13   14 ar
    24   13   30 1
    25   14   15 ar
    26   14   22 1
    27   15   16 ar
    28   15   31 1
    29   16   17 1
    30   17   18 2
    31   17   19 am
    32   19   20 1
    33   19   21 1
    34   20   32 1
    35   20   33 1
    36   21   34 1
    37   21   35 1
    38   21   36 1
@<TRIPOS>MOLECULE
ZINC12428918
   38    39     0     0     0
SMALL
USER_CHARGES

@<TRIPOS>ATOM
      1 C1          0.9243   -0.1082    1.1034 C.ar      1 <0>        -0.0388
      2 C2          2.0615    0.6722    1.0951 C.ar      1 <0>        -0.1140
      3 C3          2.2376    1.6334    0.1138 C.ar      1 <0>         0.0170
      4 C4          1.2741    1.8167   -0.8640 C.ar      1 <0>        -0.1063
      5 C5          0.1330    1.0417   -0.8652 C.ar      1 <0>        -0.0504
      6 C6         -0.0495    0.0721    0.1209 C.ar      1 <0>        -0.1601
      7 C7         -1.2725   -0.7634    0.1245 C.2       1 <0>         0.4481
      8 N1         -2.4426   -0.2066   -0.0187 N.pl3     1 <0>        -0.5077
      9 C8         -2.5640    1.2533   -0.0194 C.3       1 <0>         0.0268
     10 C9         -3.0780    1.7216   -1.3823 C.3       1 <0>        -0.1126
     11 C10        -3.2048    3.2464   -1.3831 C.3       1 <0>        -0.1843
     12 C11        -3.7109    3.7076   -2.7256 C.2       1 <0>         0.4891
     13 O1         -3.9483    2.8924   -3.6005 O.co2     1 <0>        -0.6949
     14 O2         -3.8831    4.8960   -2.9366 O.co2     1 <0>        -0.6872
     15 C12        -1.1662   -2.2294    0.2904 C.ar      1 <0>        -0.1603
     16 C13        -1.6810   -2.8450    1.4322 C.ar      1 <0>        -0.0992
     17 C14        -1.5788   -4.2137    1.5813 C.ar      1 <0>         0.1031
     18 C15        -0.9658   -4.9789    0.6005 C.ar      1 <0>        -0.0878
     19 C16        -0.4532   -4.3794   -0.5331 C.ar      1 <0>        -0.1093
     20 C17        -0.5540   -3.0068   -0.6998 C.ar      1 <0>         0.1677
     21 O3         -0.0556   -2.4178   -1.8170 O.3       1 <0>        -0.4836
     22 F1         -2.0771   -4.8095    2.6867 F         1 <0>        -0.1203
     23 Cl1         3.6710    2.6127    0.1096 Cl        1 <0>        -0.0300
     24 H1          0.7900   -0.8606    1.8665 H         1 <0>         0.1493
     25 H2          2.8159    0.5337    1.8555 H         1 <0>         0.1549
     26 H3          1.4162    2.5679   -1.6267 H         1 <0>         0.1594
     27 H4         -0.6179    1.1857   -1.6279 H         1 <0>         0.1558
     28 H5         -3.2640    1.5601    0.7578 H         1 <0>         0.1302
     29 H6         -1.5883    1.6992    0.1737 H         1 <0>         0.1224
     30 H7         -2.3780    1.4148   -2.1596 H         1 <0>         0.0795
     31 H8         -4.0537    1.2758   -1.5755 H         1 <0>         0.0853
     32 H9         -3.9047    3.5532   -0.6059 H         1 <0>         0.0685
     33 H10        -2.2290    3.6922   -1.1900 H         1 <0>         0.0662
     34 H11        -2.1582   -2.2516    2.1980 H         1 <0>         0.1539
     35 H12        -0.8887   -6.0491    0.7240 H         1 <0>         0.1590
     36 H13         0.0228   -4.9813   -1.2930 H         1 <0>         0.1616
     37 H14         0.8688   -2.1449   -1.7387 H         1 <0>         0.4077
     38 H15        -3.2329   -0.7591   -0.1246 H         1 <0>         0.4414
@<TRIPOS>BOND
     1    1    6 ar
     2    1    2 ar
     3    1   24 1
     4    2    3 ar
     5    2   25 1
     6    3    4 ar
     7    3   23 1
     8    4    5 ar
     9    4   26 1
    10    5    6 ar
    11    5   27 1
    12    6    7 1
    13    7    8 2
    14    7   15 1
    15    8    9 1
    16    8   38 1
    17    9   10 1
    18    9   28 1
    19    9   29 1
    20   10   11 1
    21   10   30 1
    22   10   31 1
    23   11   12 1
    24   11   32 1
    25   11   33 1
    26   12   13 2
    27   12   14 1
    28   15   20 ar
    29   15   16 ar
    30   16   17 ar
    31   16   34 1
    32   17   18 ar
    33   17   22 1
    34   18   19 ar
    35   18   35 1
    36   19   20 ar
    37   19   36 1
    38   20   21 1
    39   21   37 1
@<TRIPOS>MOLECULE
ZINC00899093
   33    35     0     0     0
SMALL
USER_CHARGES
5,7-dihydroxy-8-methoxy-2-phenyl-chromen-4-one
@<TRIPOS>ATOM
      1 C1         -0.0739    6.1642   -1.2366 C.3       1 <0>         0.0297
      2 O1         -0.0598    5.5082    0.0329 O.3       1 <0>        -0.3100
      3 C2         -0.0552    4.1465    0.0250 C.ar      1 <0>         0.0349
      4 C3          1.1500    3.4556    0.0097 C.ar      1 <0>         0.1737
      5 C4          1.1690    2.0658    0.0020 C.ar      1 <0>        -0.1924
      6 C5         -0.0163    1.3537    0.0095 C.ar      1 <0>         0.2159
      7 C6         -1.2355    2.0417    0.0190 C.ar      1 <0>        -0.2533
      8 C7         -1.2553    3.4475    0.0327 C.ar      1 <0>         0.1632
      9 O2         -2.4369    4.1015    0.0471 O.3       1 <0>        -0.2079
     10 C8         -3.6137    3.4558    0.0370 C.2       1 <0>         0.2071
     11 C9         -3.7033    2.0998    0.0299 C.2       1 <0>        -0.3128
     12 C10        -2.5201    1.3215    0.0206 C.2       1 <0>         0.4246
     13 O3         -2.5633    0.1020    0.0136 O.2       1 <0>        -0.4506
     14 C11        -4.8590    4.2496    0.0473 C.ar      1 <0>        -0.0755
     15 C12        -6.0996    3.6083    0.0438 C.ar      1 <0>        -0.0794
     16 C13        -7.2588    4.3558    0.0602 C.ar      1 <0>        -0.1209
     17 C14        -7.1944    5.7380    0.0670 C.ar      1 <0>        -0.0920
     18 C15        -5.9686    6.3800    0.0643 C.ar      1 <0>        -0.1229
     19 C16        -4.8015    5.6449    0.0547 C.ar      1 <0>        -0.0781
     20 O4          0.0021   -0.0041    0.0020 O.3       1 <0>        -0.4713
     21 O5          2.3208    4.1447    0.0027 O.3       1 <0>        -0.4747
     22 H1         -0.0763    7.2440   -1.0875 H         1 <0>         0.1021
     23 H2          0.8118    5.8776   -1.8036 H         1 <0>         0.0464
     24 H3         -0.9681    5.8715   -1.7869 H         1 <0>         0.0487
     25 H4          2.1125    1.5403   -0.0095 H         1 <0>         0.1559
     26 H5         -4.6703    1.6189    0.0318 H         1 <0>         0.1649
     27 H6         -6.1513    2.5296    0.0336 H         1 <0>         0.1362
     28 H7         -8.2188    3.8612    0.0623 H         1 <0>         0.1348
     29 H8         -8.1051    6.3185    0.0749 H         1 <0>         0.1310
     30 H9         -5.9256    7.4591    0.0701 H         1 <0>         0.1327
     31 H10        -3.8454    6.1472    0.0533 H         1 <0>         0.1353
     32 H11         0.0158   -0.4021    0.8832 H         1 <0>         0.4051
     33 H12         2.6516    4.3490   -0.8827 H         1 <0>         0.3997
@<TRIPOS>BOND
     1    1    2 1
     2    1   22 1
     3    1   23 1
     4    1   24 1
     5    2    3 1
     6    3    8 ar
     7    3    4 ar
     8    4    5 ar
     9    4   21 1
    10    5    6 ar
    11    5   25 1
    12    6    7 ar
    13    6   20 1
    14    7   12 1
    15    7    8 ar
    16    8    9 1
    17    9   10 1
    18   10   11 2
    19   10   14 1
    20   11   12 1
    21   11   26 1
    22   12   13 2
    23   14   19 ar
    24   14   15 ar
    25   15   16 ar
    26   15   27 1
    27   16   17 ar
    28   16   28 1
    29   17   18 ar
    30   17   29 1
    31   18   19 ar
    32   18   30 1
    33   19   31 1
    34   20   32 1
    35   21   33 1
@<TRIPOS>MOLECULE
ZINC04375654
   36    38     0     0     0
SMALL
USER_CHARGES
4-amino-2-methyl-6-phenyl-2,5-diazabicyclo[5.4.0]undeca-5,8,10,12-tetraen-3-one
@<TRIPOS>ATOM
      1 C1         -1.5479    1.4412   -0.1691 C.3       1 <0>         0.0533
      2 N1         -0.1437    1.0299   -0.0964 N.am      1 <0>        -0.5458
      3 C2          0.8176    2.0270   -0.1542 C.ar      1 <0>         0.1451
      4 C3          0.5638    3.2048    0.5519 C.ar      1 <0>        -0.1366
      5 C4          1.4709    4.2411    0.5385 C.ar      1 <0>        -0.0504
      6 C5          2.6500    4.1233   -0.1789 C.ar      1 <0>        -0.1155
      7 C6          2.9175    2.9703   -0.8796 C.ar      1 <0>        -0.0495
      8 C7          2.0035    1.9053   -0.8754 C.ar      1 <0>        -0.1884
      9 C8          2.3556    0.7015   -1.6444 C.2       1 <0>         0.3357
     10 N2          2.1481   -0.5065   -1.2558 N.2       1 <0>        -0.5217
     11 C9          1.5153   -0.8065    0.0280 C.3       1 <0>         0.1971
     12 H1          1.4947   -1.8851    0.1836 H         1 <0>         0.2010
     13 C10         0.1091   -0.2724    0.0146 C.2       1 <0>         0.4790
     14 O1         -0.8184   -1.0482    0.1077 O.2       1 <0>        -0.4601
     15 H2          3.2223   -0.5109    1.1403 H         1 <0>         0.4485
     16 H3          2.2557    0.8372    1.0221 H         1 <0>         0.4269
     17 C11         2.9978    0.8956   -2.9653 C.ar      1 <0>        -0.1060
     18 C12         2.8146    2.0885   -3.6644 C.ar      1 <0>        -0.0749
     19 C13         3.4188    2.2651   -4.8922 C.ar      1 <0>        -0.1237
     20 C14         4.1969    1.2580   -5.4347 C.ar      1 <0>        -0.0740
     21 C15         4.3784    0.0706   -4.7482 C.ar      1 <0>        -0.1259
     22 C16         3.7833   -0.1160   -3.5174 C.ar      1 <0>        -0.0555
     23 H4         -2.1876    0.5602   -0.1171 H         1 <0>         0.1095
     24 H5         -1.7756    2.1053    0.6646 H         1 <0>         0.0864
     25 H6         -1.7252    1.9639   -1.1090 H         1 <0>         0.0848
     26 H7         -0.3532    3.3042    1.1138 H         1 <0>         0.1490
     27 H8          1.2627    5.1469    1.0885 H         1 <0>         0.1507
     28 H9          3.3597    4.9374   -0.1881 H         1 <0>         0.1505
     29 H10         3.8382    2.8839   -1.4375 H         1 <0>         0.1511
     30 H11         2.2037    2.8737   -3.2439 H         1 <0>         0.1301
     31 H12         3.2807    3.1898   -5.4328 H         1 <0>         0.1366
     32 H13         4.6641    1.3991   -6.3981 H         1 <0>         0.1357
     33 H14         4.9869   -0.7120   -5.1768 H         1 <0>         0.1367
     34 H15         3.9252   -1.0436   -2.9828 H         1 <0>         0.1371
     35 N3          2.2605   -0.1755    1.1316 N.4       1 <0>        -0.6650
     36 H16         1.8130   -0.4182    2.0232 H         1 <0>         0.4481
@<TRIPOS>BOND
     1    1    2 1
     2    1   23 1
     3    1   24 1
     4    1   25 1
     5    2   13 am
     6    2    3 1
     7    3    8 ar
     8    3    4 ar
     9    4    5 ar
    10    4   26 1
    11    5    6 ar
    12    5   27 1
    13    6    7 ar
    14    6   28 1
    15    7    8 ar
    16    7   29 1
    17    8    9 1
    18    9   10 2
    19    9   17 1
    20   10   11 1
    21   11   12 1
    22   11   13 1
    23   11   35 1
    24   13   14 2
    25   15   35 1
    26   16   35 1
    27   17   22 ar
    28   17   18 ar
    29   18   19 ar
    30   18   30 1
    31   19   20 ar
    32   19   31 1
    33   20   21 ar
    34   20   32 1
    35   21   22 ar
    36   21   33 1
    37   22   34 1
    38   35   36 1
@<TRIPOS>MOLECULE
ZINC00017712
   31    34     0     0     0
SMALL
USER_CHARGES

@<TRIPOS>ATOM
      1 C1         -0.0167    1.3786    0.0096 C.ar      1 <0>        -0.1092
      2 C2          1.1696    2.0892    0.0021 C.ar      1 <0>        -0.1001
      3 C3          2.3774    1.4193   -0.0130 C.ar      1 <0>        -0.0981
      4 C4          2.3995    0.0309   -0.0207 C.ar      1 <0>         0.1282
      5 C5          1.2065   -0.6797   -0.0132 C.ar      1 <0>        -0.1157
      6 C6          0.0021   -0.0041    0.0020 C.ar      1 <0>        -0.0981
      7 N1          3.6229   -0.6515   -0.0366 N.pl3     1 <0>        -0.2956
      8 C7          3.8643   -1.8237    0.5828 C.2       1 <0>         0.3388
      9 C8          5.1844   -2.1680    0.3306 C.ar      1 <0>        -0.2862
     10 C9          6.0269   -3.2415    0.6822 C.ar      1 <0>         0.2605
     11 N2          7.2663   -3.2976    0.2854 N.ar      1 <0>        -0.5063
     12 C10         7.8590   -2.3572   -0.4849 C.ar      1 <0>         0.1523
     13 C11         9.1999   -2.4973   -0.8668 C.ar      1 <0>        -0.0868
     14 C12         9.7937   -1.5459   -1.6444 C.ar      1 <0>        -0.0684
     15 C13         9.0871   -0.4283   -2.0700 C.ar      1 <0>        -0.0998
     16 C14         7.7663   -0.2613   -1.7113 C.ar      1 <0>        -0.0438
     17 C15         7.1423   -1.2208   -0.9184 C.ar      1 <0>        -0.0631
     18 C16         5.7364   -1.0888   -0.5088 C.ar      1 <0>         0.1487
     19 N3          4.7763   -0.2208   -0.7032 N.2       1 <0>        -0.2534
     20 Br1         9.9411    0.8710   -3.1462 Br        1 <0>        -0.0397
     21 O1          2.9785   -2.5366    1.3188 O.3       1 <0>        -0.4489
     22 H1         -0.9598    1.9047    0.0260 H         1 <0>         0.1345
     23 H2          1.1517    3.1690    0.0077 H         1 <0>         0.1376
     24 H3          3.3035    1.9748   -0.0193 H         1 <0>         0.1372
     25 H4          1.2205   -1.7596   -0.0195 H         1 <0>         0.1267
     26 H5         -0.9261   -0.5562    0.0083 H         1 <0>         0.1380
     27 H6          5.6349   -4.0382    1.2970 H         1 <0>         0.1678
     28 H7          9.7647   -3.3597   -0.5448 H         1 <0>         0.1487
     29 H8         10.8278   -1.6635   -1.9328 H         1 <0>         0.1428
     30 H9          7.2190    0.6087   -2.0431 H         1 <0>         0.1418
     31 H10         2.4689   -3.1794    0.8068 H         1 <0>         0.4098
@<TRIPOS>BOND
     1    1    6 ar
     2    1    2 ar
     3    1   22 1
     4    2    3 ar
     5    2   23 1
     6    3    4 ar
     7    3   24 1
     8    4    5 ar
     9    4    7 1
    10    5    6 ar
    11    5   25 1
    12    6   26 1
    13    7   19 1
    14    7    8 1
    15    8    9 2
    16    8   21 1
    17    9   18 ar
    18    9   10 ar
    19   10   11 ar
    20   10   27 1
    21   11   12 ar
    22   12   17 ar
    23   12   13 ar
    24   13   14 ar
    25   13   28 1
    26   14   15 ar
    27   14   29 1
    28   15   16 ar
    29   15   20 1
    30   16   17 ar
    31   16   30 1
    32   17   18 ar
    33   18   19 2
    34   21   31 1
@<TRIPOS>MOLECULE
ZINC02516023
   41    43     0     0     0
SMALL
USER_CHARGES

@<TRIPOS>ATOM
      1 C1          0.3544    1.0573    0.0432 C.3       1 <0>        -0.1356
      2 C2          0.1262   -0.4518   -0.0637 C.3       1 <0>        -0.0959
      3 C3         -1.3521   -0.7408   -0.0189 C.ar      1 <0>         0.0079
      4 C4         -1.9734   -1.0811    1.1796 C.ar      1 <0>        -0.0805
      5 C5         -1.5151   -1.2514    2.5671 C.ar      1 <0>        -0.0926
      6 C6         -0.2727   -1.1314    3.1898 C.ar      1 <0>        -0.1203
      7 C7         -0.1591   -1.3612    4.5457 C.ar      1 <0>         0.0870
      8 C8         -1.2845   -1.7130    5.2926 C.ar      1 <0>         0.1512
      9 C9         -2.5186   -1.8339    4.6833 C.ar      1 <0>        -0.1996
     10 C10        -2.6475   -1.6050    3.3168 C.ar      1 <0>         0.1475
     11 N1         -3.7381   -1.6537    2.4646 N.pl3     1 <0>        -0.5913
     12 H1         -4.6429   -1.8753    2.7352 H         1 <0>         0.4245
     13 C11        -3.3559   -1.3428    1.1785 C.ar      1 <0>         0.1199
     14 C12        -4.0521   -1.2516   -0.0271 C.ar      1 <0>         0.0920
     15 N2         -3.4310   -0.9286   -1.1371 N.ar      1 <0>        -0.4017
     16 C13        -2.1257   -0.6673   -1.1740 C.ar      1 <0>         0.0333
     17 C14        -1.4898   -0.3026   -2.4568 C.2       1 <0>         0.5268
     18 O1         -0.3222    0.0313   -2.4826 O.2       1 <0>        -0.4929
     19 O2         -2.2050   -0.3405   -3.5979 O.3       1 <0>        -0.3316
     20 C15        -1.5264    0.0248   -4.8013 C.3       1 <0>         0.0320
     21 O3         -1.1655   -1.9385    6.6281 O.3       1 <0>        -0.2971
     22 C16        -2.3554   -2.2950    7.3344 C.3       1 <0>         0.0223
     23 O4          1.0518   -1.2452    5.1553 O.3       1 <0>        -0.3021
     24 C17         2.1612   -0.8825    4.3308 C.3       1 <0>         0.0230
     25 H2          1.4237    1.2663    0.0107 H         1 <0>         0.0635
     26 H3         -0.1393    1.5592   -0.7889 H         1 <0>         0.0613
     27 H4         -0.0586    1.4215    0.9839 H         1 <0>         0.0495
     28 H5          0.5392   -0.8160   -1.0044 H         1 <0>         0.1068
     29 H6          0.6199   -0.9538    0.7684 H         1 <0>         0.0696
     30 H7          0.5983   -0.8595    2.6120 H         1 <0>         0.1452
     31 H8         -3.3843   -2.1069    5.2684 H         1 <0>         0.1431
     32 H9         -5.1137   -1.4494   -0.0472 H         1 <0>         0.1691
     33 H10        -1.1633    1.0491   -4.7170 H         1 <0>         0.0617
     34 H11        -0.6835   -0.6474   -4.9615 H         1 <0>         0.0616
     35 H12        -2.2148   -0.0485   -5.6432 H         1 <0>         0.1041
     36 H13        -3.0894   -1.4950    7.2367 H         1 <0>         0.0578
     37 H14        -2.7637   -3.2155    6.9172 H         1 <0>         0.0578
     38 H15        -2.1210   -2.4463    8.3881 H         1 <0>         0.1052
     39 H16         1.9705    0.0873    3.8711 H         1 <0>         0.0569
     40 H17         3.0632   -0.8249    4.9400 H         1 <0>         0.1040
     41 H18         2.2960   -1.6334    3.5522 H         1 <0>         0.0564
@<TRIPOS>BOND
     1    1    2 1
     2    1   25 1
     3    1   26 1
     4    1   27 1
     5    2    3 1
     6    2   28 1
     7    2   29 1
     8    3   16 ar
     9    3    4 ar
    10    4   13 ar
    11    4    5 1
    12    5   10 ar
    13    5    6 ar
    14    6    7 ar
    15    6   30 1
    16    7    8 ar
    17    7   23 1
    18    8    9 ar
    19    8   21 1
    20    9   10 ar
    21    9   31 1
    22   10   11 1
    23   11   12 1
    24   11   13 1
    25   13   14 ar
    26   14   15 ar
    27   14   32 1
    28   15   16 ar
    29   16   17 1
    30   17   18 2
    31   17   19 1
    32   19   20 1
    33   20   33 1
    34   20   34 1
    35   20   35 1
    36   21   22 1
    37   22   36 1
    38   22   37 1
    39   22   38 1
    40   23   24 1
    41   24   39 1
    42   24   40 1
    43   24   41 1
@<TRIPOS>MOLECULE
ZINC02516023
   42    44     0     0     0
SMALL
USER_CHARGES

@<TRIPOS>ATOM
      1 C1         -0.2286    1.0401    0.3120 C.3       1 <0>        -0.1436
      2 C2          0.0046   -0.4617    0.1351 C.3       1 <0>        -0.1054
      3 C3          0.7087   -0.7099   -1.1740 C.ar      1 <0>         0.0584
      4 C4         -0.0135   -1.0386   -2.3179 C.ar      1 <0>        -0.0146
      5 C5         -1.4413   -1.2281   -2.6175 C.ar      1 <0>        -0.1026
      6 C6         -2.6029   -1.1454   -1.8497 C.ar      1 <0>        -0.1227
      7 C7         -3.8303   -1.3848   -2.4333 C.ar      1 <0>         0.1126
      8 C8         -3.9095   -1.7089   -3.7887 C.ar      1 <0>         0.1856
      9 C9         -2.7635   -1.7928   -4.5559 C.ar      1 <0>        -0.2026
     10 C10        -1.5193   -1.5539   -3.9803 C.ar      1 <0>         0.1677
     11 N1         -0.2358   -1.5684   -4.5004 N.pl3     1 <0>        -0.5600
     12 H1         -0.0147   -1.7662   -5.4239 H         1 <0>         0.4396
     13 C11         0.6821   -1.2621   -3.5204 C.ar      1 <0>         0.1268
     14 C12         2.0724   -1.1459   -3.5194 C.ar      1 <0>         0.1491
     15 N2          2.7184   -0.8348   -2.4202 N.ar      1 <0>        -0.3933
     16 C13         2.0942   -0.6095   -1.2655 C.ar      1 <0>         0.0415
     17 C14         2.8817   -0.2565   -0.0664 C.2       1 <0>         0.5030
     18 O1          2.3153    0.0481    0.9642 O.2       1 <0>        -0.4388
     19 O2          4.2279   -0.2724   -0.1159 O.3       1 <0>        -0.3540
     20 C15         4.9253    0.0800    1.0806 C.3       1 <0>         0.0342
     21 O3         -5.1218   -1.9440   -4.3573 O.3       1 <0>        -0.2849
     22 C16        -5.1335   -2.2708   -5.7484 C.3       1 <0>         0.0164
     23 O4         -4.9648   -1.3052   -1.6865 O.3       1 <0>        -0.2915
     24 C17        -4.8106   -0.9694   -0.3061 C.3       1 <0>         0.0183
     25 H2          0.7298    1.5592    0.3109 H         1 <0>         0.0645
     26 H3         -0.8439    1.4113   -0.5076 H         1 <0>         0.0586
     27 H4         -0.7379    1.2196    1.2589 H         1 <0>         0.0811
     28 H5          0.6198   -0.8329    0.9547 H         1 <0>         0.1214
     29 H6         -0.9539   -0.9808    0.1363 H         1 <0>         0.0922
     30 H7         -2.5419   -0.8950   -0.8009 H         1 <0>         0.1552
     31 H8         -2.8334   -2.0445   -5.6038 H         1 <0>         0.1566
     32 H9          2.6231   -1.3142   -4.4331 H         1 <0>         0.2199
     33 H10         5.9996    0.0269    0.9041 H         1 <0>         0.1192
     34 H11         4.6549    1.0945    1.3734 H         1 <0>         0.0752
     35 H12         4.6533   -0.6127    1.8771 H         1 <0>         0.0753
     36 H13        -6.1607   -2.4336   -6.0747 H         1 <0>         0.1152
     37 H14        -4.6969   -1.4504   -6.3180 H         1 <0>         0.0645
     38 H15        -4.5518   -3.1777   -5.9134 H         1 <0>         0.0645
     39 H16        -5.7896   -0.9395    0.1722 H         1 <0>         0.1133
     40 H17        -4.1899   -1.7199    0.1833 H         1 <0>         0.0614
     41 H18        -4.3346    0.0075   -0.2208 H         1 <0>         0.0618
     42 H19         3.6851   -0.7618   -2.4509 H         1 <0>         0.4608
@<TRIPOS>BOND
     1    1    2 1
     2    1   25 1
     3    1   26 1
     4    1   27 1
     5    2    3 1
     6    2   28 1
     7    2   29 1
     8    3   16 ar
     9    3    4 ar
    10    4   13 ar
    11    4    5 1
    12    5   10 ar
    13    5    6 ar
    14    6    7 ar
    15    6   30 1
    16    7    8 ar
    17    7   23 1
    18    8    9 ar
    19    8   21 1
    20    9   10 ar
    21    9   31 1
    22   10   11 1
    23   11   12 1
    24   11   13 1
    25   13   14 ar
    26   14   15 ar
    27   14   32 1
    28   15   16 ar
    29   15   42 1
    30   16   17 1
    31   17   18 2
    32   17   19 1
    33   19   20 1
    34   20   33 1
    35   20   34 1
    36   20   35 1
    37   21   22 1
    38   22   36 1
    39   22   37 1
    40   22   38 1
    41   23   24 1
    42   24   39 1
    43   24   40 1
    44   24   41 1
@<TRIPOS>MOLECULE
ZINC06116830
   31    34     0     0     0
SMALL
USER_CHARGES

@<TRIPOS>ATOM
      1 C1         -0.0167    1.3787    0.0096 C.ar      1 <0>        -0.1327
      2 C2          1.1696    2.0894    0.0021 C.ar      1 <0>        -0.0965
      3 C3          2.3774    1.4199   -0.0130 C.ar      1 <0>        -0.1294
      4 C4          2.3997    0.0311   -0.0207 C.ar      1 <0>         0.1617
      5 C5          1.2064   -0.6798   -0.0132 C.ar      1 <0>        -0.1479
      6 C6          0.0021   -0.0041    0.0020 C.ar      1 <0>        -0.0920
      7 N1          3.6219   -0.6505   -0.0365 N.am      1 <0>        -0.4119
      8 C7          3.7466   -1.9989   -0.0504 C.2       1 <0>         0.5203
      9 O1          2.8666   -2.8222    0.0884 O.2       1 <0>        -0.4581
     10 C8          5.2111   -2.2553   -0.2756 C.3       1 <0>        -0.1767
     11 H1          5.3894   -2.6474   -1.2769 H         1 <0>         0.1739
     12 C9          5.8444   -3.1341    0.7662 C.2       1 <0>         0.2097
     13 N2          7.0512   -2.9179    1.1732 N.2       1 <0>        -0.4777
     14 C10         7.8612   -1.9112    0.7343 C.ar      1 <0>         0.1051
     15 C11         9.2421   -1.9525    0.8942 C.ar      1 <0>        -0.0788
     16 C12        10.0161   -0.8928    0.4645 C.ar      1 <0>        -0.0921
     17 C13         9.4408    0.2208   -0.1264 C.ar      1 <0>        -0.1117
     18 C14         8.0704    0.2820   -0.3105 C.ar      1 <0>        -0.0636
     19 C15         7.2859   -0.7776    0.0996 C.ar      1 <0>        -0.0651
     20 C16         5.8307   -0.8661   -0.1086 C.2       1 <0>         0.1408
     21 N3          4.8735   -0.0286   -0.0461 N.2       1 <0>        -0.1953
     22 H2         -0.9598    1.9047    0.0260 H         1 <0>         0.1280
     23 H3          1.1515    3.1693    0.0077 H         1 <0>         0.1312
     24 H4          3.3034    1.9756   -0.0193 H         1 <0>         0.1348
     25 H5          1.2204   -1.7596   -0.0191 H         1 <0>         0.1507
     26 H6         -0.9261   -0.5562    0.0079 H         1 <0>         0.1325
     27 H7          5.2824   -3.9579    1.1807 H         1 <0>         0.1840
     28 H8          9.7082   -2.8118    1.3532 H         1 <0>         0.1424
     29 H9         11.0878   -0.9324    0.5914 H         1 <0>         0.1377
     30 H10        10.0638    1.0438   -0.4439 H         1 <0>         0.1382
     31 H11         7.6196    1.1491   -0.7700 H         1 <0>         0.1383
@<TRIPOS>BOND
     1    1    6 ar
     2    1    2 ar
     3    1   22 1
     4    2    3 ar
     5    2   23 1
     6    3    4 ar
     7    3   24 1
     8    4    5 ar
     9    4    7 1
    10    5    6 ar
    11    5   25 1
    12    6   26 1
    13    7   21 1
    14    7    8 am
    15    8    9 2
    16    8   10 1
    17   10   11 1
    18   10   20 1
    19   10   12 1
    20   12   13 2
    21   12   27 1
    22   13   14 1
    23   14   19 ar
    24   14   15 ar
    25   15   16 ar
    26   15   28 1
    27   16   17 ar
    28   16   29 1
    29   17   18 ar
    30   17   30 1
    31   18   19 ar
    32   18   31 1
    33   19   20 1
    34   20   21 2
@<TRIPOS>MOLECULE
ZINC01255325
   30    32     0     0     0
SMALL
USER_CHARGES

@<TRIPOS>ATOM
      1 C1          1.7779    1.4018    1.0412 C.ar      1 <0>        -0.1145
      2 C2          1.1699    2.0868    0.0037 C.ar      1 <0>        -0.0924
      3 C3          0.5873    1.3949   -1.0421 C.ar      1 <0>        -0.1103
      4 C4          0.6091    0.0135   -1.0569 C.ar      1 <0>        -0.0118
      5 C5          1.2209   -0.6824   -0.0132 C.ar      1 <0>        -0.0516
      6 C6          1.8065    0.0227    1.0384 C.ar      1 <0>        -0.0738
      7 C7          1.2478   -2.1633   -0.0218 C.2       1 <0>         0.2726
      8 N1          2.3938   -2.7449   -0.1304 N.2       1 <0>        -0.4796
      9 C8          2.5065   -4.2032   -0.1662 C.3       1 <0>         0.0490
     10 C9          1.7863   -4.7140   -1.3824 C.2       1 <0>         0.3924
     11 N2          0.5199   -4.5923   -1.5337 N.2       1 <0>        -0.5827
     12 C10        -0.3342   -4.0316   -0.6352 C.ar      1 <0>         0.1780
     13 C11        -0.0336   -2.8751    0.0999 C.ar      1 <0>        -0.1381
     14 C12        -0.9832   -2.3592    0.9930 C.ar      1 <0>        -0.0571
     15 C13        -2.1979   -2.9858    1.1624 C.ar      1 <0>        -0.0492
     16 C14        -2.4930   -4.1382    0.4500 C.ar      1 <0>        -0.0756
     17 C15        -1.5752   -4.6577   -0.4479 C.ar      1 <0>        -0.1035
     18 Cl1        -3.3624   -2.3314    2.2712 Cl        1 <0>        -0.0596
     19 O1          2.4997   -5.3226   -2.3508 O.3       1 <0>        -0.4545
     20 Cl2        -0.1232   -0.8543   -2.3701 Cl        1 <0>        -0.0550
     21 H1          2.2351    1.9484    1.8527 H         1 <0>         0.1365
     22 H2          1.1501    3.1666    0.0111 H         1 <0>         0.1373
     23 H3          0.1140    1.9352   -1.8486 H         1 <0>         0.1394
     24 H4          2.2817   -0.5102    1.8487 H         1 <0>         0.1363
     25 H5          3.5576   -4.4873   -0.2176 H         1 <0>         0.1285
     26 H6          2.0547   -4.6268    0.7308 H         1 <0>         0.1000
     27 H7         -0.7604   -1.4627    1.5526 H         1 <0>         0.1388
     28 H8         -3.4445   -4.6293    0.5906 H         1 <0>         0.1437
     29 H9         -1.8109   -5.5552   -1.0004 H         1 <0>         0.1439
     30 H10         1.9683   -5.6237   -3.1005 H         1 <0>         0.4125
@<TRIPOS>BOND
     1    1    6 ar
     2    1    2 ar
     3    1   21 1
     4    2    3 ar
     5    2   22 1
     6    3    4 ar
     7    3   23 1
     8    4    5 ar
     9    4   20 1
    10    5    6 ar
    11    5    7 1
    12    6   24 1
    13    7   13 1
    14    7    8 2
    15    8    9 1
    16    9   10 1
    17    9   25 1
    18    9   26 1
    19   10   11 2
    20   10   19 1
    21   11   12 1
    22   12   17 ar
    23   12   13 ar
    24   13   14 ar
    25   14   15 ar
    26   14   27 1
    27   15   16 ar
    28   15   18 1
    29   16   17 ar
    30   16   28 1
    31   17   29 1
    32   19   30 1
@<TRIPOS>MOLECULE
ZINC22064260
   14    14     0     0     0
SMALL
USER_CHARGES

@<TRIPOS>ATOM
      1 C1         -0.0171    1.4078    0.0098 C.2       1 <0>        -0.2462
      2 C2          1.2556    1.8427   -0.0000 C.2       1 <0>        -0.0707
      3 O1          2.0635    0.7709   -0.0135 O.3       1 <0>        -0.1200
      4 N1          1.2514   -0.3892   -0.0120 N.2       1 <0>        -0.4098
      5 C3          0.0021   -0.0041    0.0020 C.2       1 <0>         0.3437
      6 O2         -1.0842   -0.8174    0.0080 O.3       1 <0>        -0.6956
      7 C4          1.6978    3.2834    0.0030 C.3       1 <0>         0.0917
      8 N2          1.8546    3.7445    1.3889 N.4       1 <0>        -0.6348
      9 H1         -0.8997    2.0299    0.0256 H         1 <0>         0.1394
     10 H2          2.6504    3.3722   -0.5194 H         1 <0>         0.1450
     11 H3          0.9488    3.8944   -0.5007 H         1 <0>         0.1492
     12 H4          2.1507    4.7091    1.3910 H         1 <0>         0.4342
     13 H5          0.9728    3.6623    1.8725 H         1 <0>         0.4360
     14 H6          2.5479    3.1789    1.8552 H         1 <0>         0.4380
@<TRIPOS>BOND
     1    1    5 1
     2    1    2 2
     3    1    9 1
     4    2    3 1
     5    2    7 1
     6    3    4 1
     7    4    5 2
     8    5    6 1
     9    7    8 1
    10    7   10 1
    11    7   11 1
    12    8   12 1
    13    8   13 1
    14    8   14 1
@<TRIPOS>MOLECULE
ZINC00057674
   27    29     0     0     0
SMALL
USER_CHARGES

@<TRIPOS>ATOM
      1 C1         -0.0167    1.3795    0.0096 C.ar      1 <0>        -0.0927
      2 C2          1.1683    2.0941    0.0021 C.ar      1 <0>        -0.1234
      3 C3          2.3774    1.4305   -0.0134 C.ar      1 <0>        -0.0788
      4 C4          2.4038    0.0341   -0.0211 C.ar      1 <0>        -0.0759
      5 C5          1.2040   -0.6806   -0.0130 C.ar      1 <0>        -0.0797
      6 C6          0.0021   -0.0041    0.0020 C.ar      1 <0>        -0.1211
      7 C7          3.6944   -0.6832   -0.0382 C.2       1 <0>         0.2130
      8 C8          3.6862   -2.0434   -0.0509 C.2       1 <0>        -0.3188
      9 C9          4.9130   -2.7475   -0.0679 C.2       1 <0>         0.4216
     10 O1          4.9443   -3.9668   -0.0801 O.2       1 <0>        -0.4694
     11 C10         6.1541   -1.9476   -0.0708 C.ar      1 <0>        -0.2229
     12 C11         7.4082   -2.5556   -0.0877 C.ar      1 <0>        -0.0309
     13 C12         8.5427   -1.7738   -0.0903 C.ar      1 <0>        -0.1474
     14 C13         8.4391   -0.3905   -0.0763 C.ar      1 <0>        -0.0567
     15 C14         7.2043    0.2225   -0.0592 C.ar      1 <0>        -0.1399
     16 C15         6.0479   -0.5480   -0.0567 C.ar      1 <0>         0.1453
     17 O2          4.8296    0.0320   -0.0461 O.3       1 <0>        -0.2207
     18 H1         -0.9606    1.9042    0.0260 H         1 <0>         0.1308
     19 H2          1.1464    3.1738    0.0081 H         1 <0>         0.1325
     20 H3          3.3015    1.9894   -0.0199 H         1 <0>         0.1349
     21 H4          1.2172   -1.7605   -0.0192 H         1 <0>         0.1361
     22 H5         -0.9265   -0.5555    0.0082 H         1 <0>         0.1346
     23 H6          2.7500   -2.5817   -0.0478 H         1 <0>         0.1622
     24 H7          7.4901   -3.6324   -0.0982 H         1 <0>         0.1431
     25 H8          9.5169   -2.2399   -0.1029 H         1 <0>         0.1378
     26 H9          9.3351    0.2126   -0.0785 H         1 <0>         0.1423
     27 H10         7.1359    1.3003   -0.0477 H         1 <0>         0.1443
@<TRIPOS>BOND
     1    1    6 ar
     2    1    2 ar
     3    1   18 1
     4    2    3 ar
     5    2   19 1
     6    3    4 ar
     7    3   20 1
     8    4    5 ar
     9    4    7 1
    10    5    6 ar
    11    5   21 1
    12    6   22 1
    13    7   17 1
    14    7    8 2
    15    8    9 1
    16    8   23 1
    17    9   10 2
    18    9   11 1
    19   11   16 ar
    20   11   12 ar
    21   12   13 ar
    22   12   24 1
    23   13   14 ar
    24   13   25 1
    25   14   15 ar
    26   14   26 1
    27   15   16 ar
    28   15   27 1
    29   16   17 1
@<TRIPOS>MOLECULE
ZINC00004220
   42    46     0     0     0
SMALL
USER_CHARGES
(5-cyclopropyl-1,2,4-oxadiazol-3-yl)-isopropyl-BLAHone
@<TRIPOS>ATOM
      1 C1          1.4563    1.5106    0.0573 C.3       1 <0>        -0.1720
      2 C2         -0.0127    1.0858    0.0080 C.3       1 <0>         0.1310
      3 C3         -0.6781    1.6934   -1.2285 C.3       1 <0>        -0.1722
      4 N1         -0.6984    1.5583    1.2133 N.am      1 <0>        -0.5384
      5 C4         -1.3014    0.6393    2.0718 C.ar      1 <0>         0.1697
      6 C5         -1.2368   -0.7186    1.7819 C.ar      1 <0>        -0.1435
      7 C6         -1.8261   -1.6353    2.6290 C.ar      1 <0>        -0.0739
      8 C7         -2.4786   -1.2089    3.7727 C.ar      1 <0>        -0.1216
      9 C8         -2.5440    0.1371    4.0734 C.ar      1 <0>        -0.0857
     10 C9         -1.9546    1.0674    3.2278 C.ar      1 <0>         0.0712
     11 N2         -2.0217    2.4283    3.5333 N.pl3     1 <0>        -0.3776
     12 C10        -2.5723    3.1207    4.5466 C.2       1 <0>         0.2311
     13 N3         -2.3577    4.3989    4.3733 N.2       1 <0>        -0.4412
     14 C11        -1.6598    4.5913    3.2422 C.2       1 <0>         0.1722
     15 C12        -1.4325    3.3440    2.6862 C.2       1 <0>        -0.0588
     16 C13        -0.7466    2.8793    1.4818 C.2       1 <0>         0.5822
     17 O1         -0.2235    3.6783    0.7268 O.2       1 <0>        -0.4616
     18 C14        -1.2167    5.8944    2.6921 C.2       1 <0>         0.2316
     19 N4         -1.4436    7.1134    3.2328 N.2       1 <0>        -0.4486
     20 C15        -0.8755    7.9696    2.4209 C.2       1 <0>         0.2042
     21 O2         -0.3347    7.2656    1.4214 O.3       1 <0>         0.0896
     22 N5         -0.5375    6.0817    1.5896 N.2       1 <0>        -0.3230
     23 C16        -0.8428    9.4678    2.5803 C.3       1 <0>        -0.0809
     24 C17        -0.3047   10.2913    1.4084 C.3       1 <0>        -0.1576
     25 C18         0.5290   10.1376    2.6820 C.3       1 <0>        -0.1524
     26 H1          1.5186    2.5977    0.1083 H         1 <0>         0.0825
     27 H2          1.9303    1.0778    0.9383 H         1 <0>         0.0572
     28 H3          1.9665    1.1591   -0.8395 H         1 <0>         0.0763
     29 H4         -0.0750   -0.0012   -0.0430 H         1 <0>         0.1031
     30 H5         -0.1679    1.3419   -2.1253 H         1 <0>         0.0763
     31 H6         -1.7246    1.3907   -1.2637 H         1 <0>         0.0571
     32 H7         -0.6157    2.7804   -1.1775 H         1 <0>         0.0826
     33 H8         -0.7292   -1.0563    0.8905 H         1 <0>         0.1460
     34 H9         -1.7781   -2.6893    2.3983 H         1 <0>         0.1410
     35 H10        -2.9380   -1.9309    4.4315 H         1 <0>         0.1418
     36 H11        -3.0537    0.4664    4.9669 H         1 <0>         0.1420
     37 H12        -3.1096    2.6870    5.3771 H         1 <0>         0.2279
     38 H13        -1.6567    9.8962    3.1652 H         1 <0>         0.1512
     39 H14         0.0256    9.7494    0.5222 H         1 <0>         0.1083
     40 H15        -0.7648   11.2617    1.2221 H         1 <0>         0.1147
     41 H16         0.6175   11.0070    3.3336 H         1 <0>         0.1152
     42 H17         1.4079    9.4947    2.6337 H         1 <0>         0.1031
@<TRIPOS>BOND
     1    1    2 1
     2    1   26 1
     3    1   27 1
     4    1   28 1
     5    2    3 1
     6    2    4 1
     7    2   29 1
     8    3   30 1
     9    3   31 1
    10    3   32 1
    11    4   16 am
    12    4    5 1
    13    5   10 ar
    14    5    6 ar
    15    6    7 ar
    16    6   33 1
    17    7    8 ar
    18    7   34 1
    19    8    9 ar
    20    8   35 1
    21    9   10 ar
    22    9   36 1
    23   10   11 1
    24   11   15 1
    25   11   12 1
    26   12   13 2
    27   12   37 1
    28   13   14 1
    29   14   15 2
    30   14   18 1
    31   15   16 1
    32   16   17 2
    33   18   22 2
    34   18   19 1
    35   19   20 2
    36   20   21 1
    37   20   23 1
    38   21   22 1
    39   23   25 1
    40   23   24 1
    41   23   38 1
    42   24   25 1
    43   24   39 1
    44   24   40 1
    45   25   41 1
    46   25   42 1
@<TRIPOS>MOLECULE
ZINC00004220
   43    47     0     0     0
SMALL
USER_CHARGES
(5-cyclopropyl-1,2,4-oxadiazol-3-yl)-isopropyl-BLAHone
@<TRIPOS>ATOM
      1 C1          1.4563    1.5106    0.0573 C.3       1 <0>        -0.1753
      2 C2         -0.0127    1.0858    0.0080 C.3       1 <0>         0.1269
      3 C3         -0.6781    1.6934   -1.2285 C.3       1 <0>        -0.1756
      4 N1         -0.6984    1.5583    1.2133 N.am      1 <0>        -0.5255
      5 C4         -1.3014    0.6393    2.0718 C.ar      1 <0>         0.1946
      6 C5         -1.2368   -0.7186    1.7819 C.ar      1 <0>        -0.1392
      7 C6         -1.8261   -1.6353    2.6290 C.ar      1 <0>        -0.0390
      8 C7         -2.4786   -1.2089    3.7727 C.ar      1 <0>        -0.1130
      9 C8         -2.5440    0.1371    4.0734 C.ar      1 <0>        -0.0680
     10 C9         -1.9546    1.0674    3.2278 C.ar      1 <0>         0.0265
     11 N2         -2.0217    2.4283    3.5333 N.pl3     1 <0>        -0.3189
     12 C10        -2.5723    3.1207    4.5466 C.cat     1 <0>         0.3146
     13 C11        -1.6598    4.5913    3.2422 C.2       1 <0>         0.2133
     14 C12        -1.4325    3.3440    2.6862 C.2       1 <0>         0.0125
     15 C13        -0.7466    2.8793    1.4818 C.2       1 <0>         0.5755
     16 O1         -0.2235    3.6783    0.7268 O.2       1 <0>        -0.4287
     17 C14        -1.2167    5.8944    2.6921 C.2       1 <0>         0.1786
     18 N3         -1.4436    7.1134    3.2328 N.2       1 <0>        -0.4744
     19 C15        -0.8755    7.9696    2.4209 C.2       1 <0>         0.2517
     20 O2         -0.3347    7.2656    1.4214 O.3       1 <0>         0.1156
     21 N4         -0.5375    6.0817    1.5896 N.2       1 <0>        -0.2883
     22 C16        -0.8428    9.4678    2.5803 C.3       1 <0>        -0.0999
     23 C17        -0.3047   10.2913    1.4084 C.3       1 <0>        -0.1512
     24 C18         0.5290   10.1376    2.6820 C.3       1 <0>        -0.1456
     25 H1          1.5186    2.5977    0.1083 H         1 <0>         0.0818
     26 H2          1.9303    1.0778    0.9383 H         1 <0>         0.0617
     27 H3          1.9665    1.1591   -0.8395 H         1 <0>         0.0870
     28 H4         -0.0750   -0.0012   -0.0430 H         1 <0>         0.1136
     29 H5         -0.1679    1.3419   -2.1253 H         1 <0>         0.0870
     30 H6         -1.7246    1.3907   -1.2637 H         1 <0>         0.0616
     31 H7         -0.6157    2.7804   -1.1775 H         1 <0>         0.0818
     32 H8         -0.7292   -1.0563    0.8905 H         1 <0>         0.1596
     33 H9         -1.7781   -2.6893    2.3983 H         1 <0>         0.1558
     34 H10        -2.9380   -1.9309    4.4315 H         1 <0>         0.1559
     35 H11        -3.0537    0.4664    4.9669 H         1 <0>         0.1506
     36 H12        -3.1096    2.6870    5.3771 H         1 <0>         0.2790
     37 H13        -1.6567    9.8962    3.1652 H         1 <0>         0.1586
     38 H14         0.0256    9.7494    0.5222 H         1 <0>         0.1120
     39 H15        -0.7648   11.2617    1.2221 H         1 <0>         0.1221
     40 H16         0.6175   11.0070    3.3336 H         1 <0>         0.1221
     41 H17         1.4079    9.4947    2.6337 H         1 <0>         0.1063
     42 N5         -2.3581    4.3999    4.3742 N.pl3     1 <0>        -0.4607
     43 H18        -2.6752    5.1437    5.0070 H         1 <0>         0.4968
@<TRIPOS>BOND
     1    1    2 1
     2    1   25 1
     3    1   26 1
     4    1   27 1
     5    2    3 1
     6    2    4 1
     7    2   28 1
     8    3   29 1
     9    3   30 1
    10    3   31 1
    11    4   15 am
    12    4    5 1
    13    5   10 ar
    14    5    6 ar
    15    6    7 ar
    16    6   32 1
    17    7    8 ar
    18    7   33 1
    19    8    9 ar
    20    8   34 1
    21    9   10 ar
    22    9   35 1
    23   10   11 1
    24   11   14 1
    25   11   12 1
    26   12   36 1
    27   12   42 2
    28   13   14 2
    29   13   17 1
    30   13   42 1
    31   14   15 1
    32   15   16 2
    33   17   21 2
    34   17   18 1
    35   18   19 2
    36   19   20 1
    37   19   22 1
    38   20   21 1
    39   22   24 1
    40   22   23 1
    41   22   37 1
    42   23   24 1
    43   23   38 1
    44   23   39 1
    45   24   40 1
    46   24   41 1
    47   42   43 1
@<TRIPOS>MOLECULE
ZINC03871576
   30    32     0     0     0
SMALL
USER_CHARGES

@<TRIPOS>ATOM
      1 C1         -0.0169    1.3935    0.0097 C.ar      1 <0>        -0.0604
      2 C2          1.1676    2.0963    0.0022 C.ar      1 <0>        -0.1497
      3 C3          2.3803    1.4179   -0.0135 C.ar      1 <0>         0.1360
      4 C4          2.4038    0.0284   -0.0212 C.ar      1 <0>        -0.1474
      5 C5          1.2241   -0.6823   -0.0133 C.ar      1 <0>        -0.0612
      6 C6          0.0021   -0.0041    0.0020 C.ar      1 <0>        -0.0853
      7 C7         -1.2639   -0.7610    0.0105 C.2       1 <0>         0.2092
      8 C8         -1.2134   -2.1203    0.0083 C.2       1 <0>        -0.3116
      9 C9         -2.4177   -2.8631    0.0169 C.2       1 <0>         0.4226
     10 O1         -2.4099   -4.0836    0.0156 O.2       1 <0>        -0.4538
     11 C10        -3.6809   -2.1061    0.0279 C.ar      1 <0>        -0.2659
     12 C11        -4.9199   -2.7591    0.0374 C.ar      1 <0>         0.2192
     13 C12        -6.0832   -2.0121    0.0480 C.ar      1 <0>        -0.2049
     14 C13        -6.0212   -0.6227    0.0493 C.ar      1 <0>         0.1922
     15 C14        -4.7984    0.0300    0.0400 C.ar      1 <0>        -0.1830
     16 C15        -3.6212   -0.7020    0.0293 C.ar      1 <0>         0.1830
     17 O2         -2.4220   -0.0821    0.0257 O.3       1 <0>        -0.2182
     18 O3         -7.1695    0.1013    0.0593 O.3       1 <0>        -0.4872
     19 O4         -4.9782   -4.1150    0.0356 O.3       1 <0>        -0.4722
     20 O5          3.5455    2.1145   -0.0218 O.3       1 <0>        -0.4965
     21 H1         -0.9589    1.9215    0.0260 H         1 <0>         0.1404
     22 H2          1.1538    3.1762    0.0081 H         1 <0>         0.1393
     23 H3          3.3485   -0.4949   -0.0338 H         1 <0>         0.1414
     24 H4          1.2432   -1.7622   -0.0196 H         1 <0>         0.1415
     25 H5         -0.2608   -2.6290   -0.0002 H         1 <0>         0.1637
     26 H6         -7.0423   -2.5086    0.0550 H         1 <0>         0.1502
     27 H7         -4.7627    1.1094    0.0411 H         1 <0>         0.1534
     28 H8         -7.4952    0.3100    0.9456 H         1 <0>         0.4037
     29 H9         -4.9875   -4.5094    0.9185 H         1 <0>         0.4031
     30 H10         3.8920    2.3119    0.8591 H         1 <0>         0.3984
@<TRIPOS>BOND
     1    1    6 ar
     2    1    2 ar
     3    1   21 1
     4    2    3 ar
     5    2   22 1
     6    3    4 ar
     7    3   20 1
     8    4    5 ar
     9    4   23 1
    10    5    6 ar
    11    5   24 1
    12    6    7 1
    13    7   17 1
    14    7    8 2
    15    8    9 1
    16    8   25 1
    17    9   10 2
    18    9   11 1
    19   11   16 ar
    20   11   12 ar
    21   12   13 ar
    22   12   19 1
    23   13   14 ar
    24   13   26 1
    25   14   15 ar
    26   14   18 1
    27   15   16 ar
    28   15   27 1
    29   16   17 1
    30   18   28 1
    31   19   29 1
    32   20   30 1
@<TRIPOS>MOLECULE
ZINC03871576
   29    31     0     0     0
SMALL
USER_CHARGES

@<TRIPOS>ATOM
      1 C1         -0.0169    1.3945    0.0097 C.ar      1 <0>        -0.0666
      2 C2          1.1672    2.0969    0.0022 C.ar      1 <0>        -0.1480
      3 C3          2.3804    1.4183   -0.0135 C.ar      1 <0>         0.1175
      4 C4          2.4042    0.0284   -0.0212 C.ar      1 <0>        -0.1471
      5 C5          1.2251   -0.6825   -0.0138 C.ar      1 <0>        -0.0696
      6 C6          0.0021   -0.0041    0.0020 C.ar      1 <0>        -0.0607
      7 C7         -1.2623   -0.7603    0.0105 C.2       1 <0>         0.1733
      8 C8         -1.2238   -2.1392    0.0085 C.2       1 <0>        -0.2675
      9 C9         -2.4161   -2.8666    0.0170 C.2       1 <0>         0.3649
     10 C10        -3.6370   -2.1554    0.0275 C.2       1 <0>        -0.3407
     11 C11        -4.8707   -2.8387    0.0369 C.2       1 <0>         0.2653
     12 C12        -6.0384   -2.1317    0.0475 C.2       1 <0>        -0.3780
     13 C13        -6.0158   -0.7277    0.0485 C.2       1 <0>         0.3615
     14 O1         -7.1627   -0.0461    0.0589 O.2       1 <0>        -0.6669
     15 C14        -4.7977   -0.0391    0.0393 C.2       1 <0>        -0.3147
     16 C15        -3.6098   -0.7430    0.0291 C.2       1 <0>         0.2111
     17 O2         -2.4272   -0.0920    0.0257 O.3       1 <0>        -0.2196
     18 O3         -4.8969   -4.1953    0.0351 O.3       1 <0>        -0.4477
     19 O4         -2.4024   -4.2178    0.0147 O.3       1 <0>        -0.5784
     20 O5          3.5452    2.1149   -0.0218 O.3       1 <0>        -0.4988
     21 H1         -0.9589    1.9225    0.0260 H         1 <0>         0.1416
     22 H2          1.1536    3.1768    0.0081 H         1 <0>         0.1349
     23 H3          3.3490   -0.4946   -0.0334 H         1 <0>         0.1360
     24 H4          1.2446   -1.7623   -0.0201 H         1 <0>         0.1407
     25 H5         -0.2747   -2.6546   -0.0001 H         1 <0>         0.1464
     26 H6         -6.9835   -2.6543    0.0547 H         1 <0>         0.1160
     27 H7         -4.7867    1.0408    0.0398 H         1 <0>         0.1203
     28 H8         -5.7877   -4.5715    0.0420 H         1 <0>         0.3828
     29 H9          3.8917    2.3124    0.8591 H         1 <0>         0.3921
@<TRIPOS>BOND
     1    1    6 ar
     2    1    2 ar
     3    1   21 1
     4    2    3 ar
     5    2   22 1
     6    3    4 ar
     7    3   20 1
     8    4    5 ar
     9    4   23 1
    10    5    6 ar
    11    5   24 1
    12    6    7 1
    13    7   17 1
    14    7    8 2
    15    8    9 1
    16    8   25 1
    17    9   10 2
    18    9   19 1
    19   10   16 1
    20   10   11 1
    21   11   12 2
    22   11   18 1
    23   12   13 1
    24   12   26 1
    25   13   14 2
    26   13   15 1
    27   15   16 2
    28   15   27 1
    29   16   17 1
    30   18   28 1
    31   20   29 1
@<TRIPOS>MOLECULE
ZINC01706201
   19    18     0     0     0
SMALL
USER_CHARGES
(4R)-4-aminopentanoic acid
@<TRIPOS>ATOM
      1 C1         -0.0638    0.9713    2.5033 C.3       1 <0>        -0.1808
      2 C2         -0.7288    1.5792    1.2668 C.3       1 <0>         0.0285
      3 H1         -1.7755    1.2768    1.2315 H         1 <0>         0.1358
      4 C3         -0.0127    1.0858    0.0080 C.3       1 <0>        -0.1252
      5 C4         -0.7527    1.5927   -1.2315 C.3       1 <0>        -0.1748
      6 C5         -0.0473    1.1067   -2.4714 C.2       1 <0>         0.4538
      7 O1          0.9454    0.4249   -2.3737 O.co2     1 <0>        -0.6319
      8 H2          0.9829    1.2737    2.5386 H         1 <0>         0.0799
      9 H3         -0.5739    1.3228    3.4001 H         1 <0>         0.0752
     10 H4         -0.1264   -0.1157    2.4522 H         1 <0>         0.1041
     11 H5          0.0021   -0.0041    0.0020 H         1 <0>         0.1106
     12 H6          1.0099    1.4631    0.0003 H         1 <0>         0.0872
     13 H7         -1.7753    1.2154   -1.2238 H         1 <0>         0.0778
     14 H8         -0.7675    2.6825   -1.2255 H         1 <0>         0.0582
     15 H9          0.3165    3.3498    1.3694 H         1 <0>         0.4330
     16 H10        -1.1329    3.4713    0.5630 H         1 <0>         0.4375
     17 O2         -0.5219    1.4312   -3.6843 O.co2     1 <0>        -0.7560
     18 N1         -0.6564    3.0482    1.3577 N.4       1 <0>        -0.6443
     19 H11        -1.1129    3.3556    2.2245 H         1 <0>         0.4315
@<TRIPOS>BOND
     1    1    2 1
     2    1    8 1
     3    1    9 1
     4    1   10 1
     5    2    3 1
     6    2    4 1
     7    2   18 1
     8    4    5 1
     9    4   11 1
    10    4   12 1
    11    5    6 1
    12    5   13 1
    13    5   14 1
    14    6    7 2
    15    6   17 1
    16   15   18 1
    17   16   18 1
    18   18   19 1
@<TRIPOS>MOLECULE
ZINC28770773
   17    17     0     0     0
SMALL
USER_CHARGES
5-[(1R)-1-aminoethyl]isoxazol-3-ol
@<TRIPOS>ATOM
      1 C1          1.5753   -2.5003    1.3937 C.3       1 <0>        -0.1797
      2 C2          1.6638   -1.9335   -0.0247 C.3       1 <0>         0.1569
      3 H1          2.6846   -2.0278   -0.4235 H         1 <0>         0.1443
      4 C3          1.2543   -0.4832   -0.0125 C.2       1 <0>        -0.1635
      5 C4          2.0782    0.5897   -0.0146 C.2       1 <0>        -0.2531
      6 C5          1.1943    1.7001   -0.0002 C.2       1 <0>         0.3138
      7 N1         -0.0143    1.2049    0.0087 N.2       1 <0>        -0.4713
      8 O1          0.0021   -0.0041    0.0020 O.3       1 <0>         0.0610
      9 O2          1.5365    3.0134    0.0032 O.3       1 <0>        -0.7075
     10 N2          0.7671   -2.6881   -0.9104 N.4       1 <0>        -0.6850
     11 H2          1.8742   -3.5589    1.3848 H         1 <0>         0.0808
     12 H3          0.5413   -2.4143    1.7591 H         1 <0>         0.0841
     13 H4          2.2468   -1.9352    2.0569 H         1 <0>         0.1044
     14 H5          3.1581    0.5991   -0.0249 H         1 <0>         0.1485
     15 H6          0.8307   -2.2806   -1.9301 H         1 <0>         0.4590
     16 H7         -0.2669   -2.6021   -0.5450 H         1 <0>         0.4573
     17 H8          1.0660   -3.7467   -0.9192 H         1 <0>         0.4500
@<TRIPOS>BOND
     1    1    2 1
     2    1   11 1
     3    1   12 1
     4    1   13 1
     5    2    3 1
     6    2    4 1
     7    2   10 1
     8    4    8 1
     9    4    5 2
    10    5    6 1
    11    5   14 1
    12    6    7 2
    13    6    9 1
    14    7    8 1
    15   10   15 1
    16   10   16 1
    17   10   17 1
@<TRIPOS>MOLECULE
ZINC03581353
   19    18     0     0     0
SMALL
USER_CHARGES
(4S)-4-aminopentanoic acid
@<TRIPOS>ATOM
      1 C1         -0.7527    1.5927   -1.2315 C.3       1 <0>        -0.1808
      2 C2         -0.0127    1.0858    0.0080 C.3       1 <0>         0.0283
      3 H1          0.0021   -0.0041    0.0020 H         1 <0>         0.1390
      4 C3          1.4227    1.6154   -0.0028 C.3       1 <0>        -0.1284
      5 C4          2.1988    1.0094    1.1682 C.3       1 <0>        -0.1747
      6 C5          3.6126    1.5310    1.1575 C.2       1 <0>         0.4538
      7 O1          3.9634    2.3078    0.3011 O.co2     1 <0>        -0.6317
      8 H2         -0.2425    1.2411   -2.1283 H         1 <0>         0.1040
      9 H3         -1.7753    1.2154   -1.2238 H         1 <0>         0.0754
     10 H4         -0.7675    2.6825   -1.2255 H         1 <0>         0.0796
     11 H5          1.9050    1.3387   -0.9404 H         1 <0>         0.1104
     12 H6          1.4101    2.7011    0.0927 H         1 <0>         0.0873
     13 H7          1.7165    1.2860    2.1057 H         1 <0>         0.0579
     14 H8          2.2113   -0.0764    1.0727 H         1 <0>         0.0783
     15 H9         -1.6510    1.2229    1.2472 H         1 <0>         0.4294
     16 H10        -0.1952    1.2924    2.0482 H         1 <0>         0.4374
     17 O2          4.4820    1.1326    2.0993 O.co2     1 <0>        -0.7556
     18 N1         -0.6993    1.5846    1.2126 N.4       1 <0>        -0.6446
     19 H11        -0.7316    2.6104    1.1824 H         1 <0>         0.4347
@<TRIPOS>BOND
     1    1    2 1
     2    1    8 1
     3    1    9 1
     4    1   10 1
     5    2    3 1
     6    2    4 1
     7    2   18 1
     8    4    5 1
     9    4   11 1
    10    4   12 1
    11    5    6 1
    12    5   13 1
    13    5   14 1
    14    6    7 2
    15    6   17 1
    16   15   18 1
    17   16   18 1
    18   18   19 1
@<TRIPOS>MOLECULE
ZINC29205507
   17    17     0     0     0
SMALL
USER_CHARGES
5-[(1S)-1-aminoethyl]isoxazol-3-ol
@<TRIPOS>ATOM
      1 C1          3.0703    1.6540    1.4029 C.3       1 <0>        -0.1796
      2 C2          2.5006    1.5463   -0.0131 C.3       1 <0>         0.1569
      3 H1          2.6162    0.5260   -0.4076 H         1 <0>         0.1443
      4 C3          1.0417    1.9234    0.0024 C.2       1 <0>        -0.1636
      5 C4         -0.0126    1.0758    0.0080 C.2       1 <0>        -0.2530
      6 C5         -1.1424    1.9347    0.0171 C.2       1 <0>         0.3138
      7 N1         -0.6743    3.1541    0.0247 N.2       1 <0>        -0.4713
      8 O1          0.5347    3.1647    0.0135 O.3       1 <0>         0.0611
      9 O2         -2.4477    1.5634    0.0206 O.3       1 <0>        -0.7075
     10 N2          3.2319    2.4555   -0.9056 N.4       1 <0>        -0.6850
     11 H2          4.1352    1.3787    1.3916 H         1 <0>         0.0808
     12 H3          2.5227    0.9732    2.0712 H         1 <0>         0.1043
     13 H4          2.9625    2.6875    1.7638 H         1 <0>         0.0841
     14 H5          0.0021   -0.0041    0.0020 H         1 <0>         0.1485
     15 H6          2.8223    2.3781   -1.9236 H         1 <0>         0.4591
     16 H7          4.2968    2.1802   -0.9169 H         1 <0>         0.4500
     17 H8          3.1241    3.4890   -0.5446 H         1 <0>         0.4573
@<TRIPOS>BOND
     1    1    2 1
     2    1   11 1
     3    1   12 1
     4    1   13 1
     5    2    3 1
     6    2    4 1
     7    2   10 1
     8    4    8 1
     9    4    5 2
    10    5    6 1
    11    5   14 1
    12    6    7 2
    13    6    9 1
    14    7    8 1
    15   10   15 1
    16   10   16 1
    17   10   17 1
@<TRIPOS>MOLECULE
ZINC05732241
   34    36     0     0     0
SMALL
USER_CHARGES

@<TRIPOS>ATOM
      1 C1         -0.0173    1.4248    0.0099 C.3       1 <0>         0.0336
      2 O1          0.0021   -0.0041    0.0020 O.3       1 <0>        -0.3149
      3 C2          0.6069   -0.6082   -1.0576 C.ar      1 <0>         0.0124
      4 C3         -0.1341   -0.9228   -2.1955 C.ar      1 <0>         0.1715
      5 C4          0.4680   -1.5373   -3.2817 C.ar      1 <0>        -0.1678
      6 C5          1.8192   -1.8455   -3.2449 C.ar      1 <0>         0.1778
      7 C6          2.5701   -1.5300   -2.0993 C.ar      1 <0>        -0.2525
      8 C7          1.9594   -0.9043   -1.0058 C.ar      1 <0>         0.2015
      9 O2          2.6860   -0.5945    0.0992 O.3       1 <0>        -0.4660
     10 C8          4.0037   -1.8673   -2.0840 C.2       1 <0>         0.4238
     11 O3          4.7037   -1.6168   -1.1160 O.2       1 <0>        -0.4506
     12 C9          4.5378   -2.4935   -3.2347 C.2       1 <0>        -0.3112
     13 C10         3.7251   -2.7566   -4.2935 C.2       1 <0>         0.2103
     14 O4          2.4195   -2.4447   -4.2958 O.3       1 <0>        -0.2162
     15 C11         4.3005   -3.4096   -5.4844 C.ar      1 <0>        -0.0858
     16 C12         5.6555   -3.7519   -5.5101 C.ar      1 <0>        -0.0607
     17 C13         6.1887   -4.3614   -6.6241 C.ar      1 <0>        -0.1475
     18 C14         5.3816   -4.6362   -7.7216 C.ar      1 <0>         0.1365
     19 C15         4.0340   -4.2971   -7.7005 C.ar      1 <0>        -0.1497
     20 C16         3.4912   -3.6930   -6.5882 C.ar      1 <0>        -0.0601
     21 O5          5.9113   -5.2371   -8.8177 O.3       1 <0>        -0.4967
     22 O6         -1.4586   -0.6248   -2.2398 O.3       1 <0>        -0.4753
     23 H1          1.0053    1.8021    0.0021 H         1 <0>         0.0528
     24 H2         -0.5445    1.7859   -0.8732 H         1 <0>         0.0432
     25 H3         -0.5275    1.7763    0.9067 H         1 <0>         0.1001
     26 H4         -0.1161   -1.7768   -4.1580 H         1 <0>         0.1589
     27 H5          2.7099   -1.2965    0.7638 H         1 <0>         0.4058
     28 H6          5.5836   -2.7605   -3.2725 H         1 <0>         0.1649
     29 H7          6.2834   -3.5384   -4.6577 H         1 <0>         0.1416
     30 H8          7.2356   -4.6259   -6.6449 H         1 <0>         0.1415
     31 H9          3.4105   -4.5121   -8.5557 H         1 <0>         0.1394
     32 H10         2.4428   -3.4342   -6.5707 H         1 <0>         0.1406
     33 H11         5.8712   -6.2030   -8.7947 H         1 <0>         0.3987
     34 H12        -1.6525    0.2534   -2.5951 H         1 <0>         0.3999
@<TRIPOS>BOND
     1    1    2 1
     2    1   23 1
     3    1   24 1
     4    1   25 1
     5    2    3 1
     6    3    8 ar
     7    3    4 ar
     8    4    5 ar
     9    4   22 1
    10    5    6 ar
    11    5   26 1
    12    6   14 1
    13    6    7 ar
    14    7    8 ar
    15    7   10 1
    16    8    9 1
    17    9   27 1
    18   10   11 2
    19   10   12 1
    20   12   13 2
    21   12   28 1
    22   13   14 1
    23   13   15 1
    24   15   20 ar
    25   15   16 ar
    26   16   17 ar
    27   16   29 1
    28   17   18 ar
    29   17   30 1
    30   18   19 ar
    31   18   21 1
    32   19   20 ar
    33   19   31 1
    34   20   32 1
    35   21   33 1
    36   22   34 1
@<TRIPOS>MOLECULE
ZINC05732241
   33    35     0     0     0
SMALL
USER_CHARGES

@<TRIPOS>ATOM
      1 C1          0.5533   -0.2593    1.2901 C.3       1 <0>         0.0292
      2 O1         -0.0030   -0.0039   -0.0012 O.3       1 <0>        -0.3188
      3 C2          0.6604   -0.5194   -1.0731 C.2       1 <0>        -0.1703
      4 C3          0.7300   -1.9137   -1.2526 C.2       1 <0>         0.3437
      5 O2          0.1445   -2.7267   -0.3699 O.2       1 <0>        -0.6499
      6 C4          1.4081   -2.4522   -2.3499 C.2       1 <0>        -0.3086
      7 C5          2.0157   -1.6157   -3.2662 C.2       1 <0>         0.2100
      8 O3          2.6724   -2.1278   -4.3292 O.3       1 <0>        -0.2181
      9 C6          3.2691   -1.3320   -5.2312 C.2       1 <0>         0.1747
     10 C7          3.2376    0.0420   -5.1112 C.2       1 <0>        -0.2672
     11 C8          2.5731    0.6288   -4.0320 C.2       1 <0>         0.3666
     12 C9          1.9477   -0.2159   -3.0879 C.2       1 <0>        -0.3302
     13 C10         1.2574    0.3241   -1.9829 C.2       1 <0>         0.2579
     14 O4          1.1864    1.6700   -1.8141 O.3       1 <0>        -0.4399
     15 O5          2.5298    1.9725   -3.8939 O.3       1 <0>        -0.5733
     16 C11         3.9732   -1.9395   -6.3740 C.ar      1 <0>        -0.0613
     17 C12         4.6056   -1.1270   -7.3207 C.ar      1 <0>        -0.0691
     18 C13         5.2627   -1.6992   -8.3867 C.ar      1 <0>        -0.1472
     19 C14         5.2979   -3.0821   -8.5232 C.ar      1 <0>         0.1181
     20 C15         4.6709   -3.8937   -7.5848 C.ar      1 <0>        -0.1481
     21 C16         4.0162   -3.3306   -6.5124 C.ar      1 <0>        -0.0664
     22 O6          5.9462   -3.6418   -9.5762 O.3       1 <0>        -0.4989
     23 H1          0.5085   -1.3279    1.5002 H         1 <0>         0.0579
     24 H2          1.5916    0.0718    1.3104 H         1 <0>         0.0286
     25 H3         -0.0159    0.2836    2.0448 H         1 <0>         0.0758
     26 H4          1.4575   -3.5230   -2.4812 H         1 <0>         0.1241
     27 H5          3.7255    0.6617   -5.8490 H         1 <0>         0.1477
     28 H6          0.7649    1.9410   -0.9871 H         1 <0>         0.3869
     29 H7          4.5781   -0.0524   -7.2159 H         1 <0>         0.1409
     30 H8          5.7513   -1.0726   -9.1182 H         1 <0>         0.1362
     31 H9          4.7005   -4.9676   -7.6951 H         1 <0>         0.1350
     32 H10         3.5331   -3.9620   -5.7814 H         1 <0>         0.1416
     33 H11         6.8793   -3.8317   -9.4078 H         1 <0>         0.3923
@<TRIPOS>BOND
     1    1    2 1
     2    1   23 1
     3    1   24 1
     4    1   25 1
     5    2    3 1
     6    3   13 2
     7    3    4 1
     8    4    5 2
     9    4    6 1
    10    6    7 2
    11    6   26 1
    12    7   12 1
    13    7    8 1
    14    8    9 1
    15    9   10 2
    16    9   16 1
    17   10   11 1
    18   10   27 1
    19   11   12 2
    20   11   15 1
    21   12   13 1
    22   13   14 1
    23   14   28 1
    24   16   21 ar
    25   16   17 ar
    26   17   18 ar
    27   17   29 1
    28   18   19 ar
    29   18   30 1
    30   19   20 ar
    31   19   22 1
    32   20   21 ar
    33   20   31 1
    34   21   32 1
    35   22   33 1
@<TRIPOS>MOLECULE
ZINC29547570
   27    29     0     0     0
SMALL
USER_CHARGES
6-bromo-2-(3-fluorophenyl)chromen-4-one
@<TRIPOS>ATOM
      1 C1         -0.0126    1.0758    0.0080 C.ar      1 <0>        -0.0911
      2 C2          1.1738    1.7799    0.0004 C.ar      1 <0>        -0.0891
      3 C3          1.1545    3.1763    0.0076 C.ar      1 <0>        -0.0443
      4 C4         -0.0677    3.8517    0.0225 C.ar      1 <0>        -0.1183
      5 C5         -1.2486    3.1349    0.0299 C.ar      1 <0>         0.1026
      6 C6         -1.2207    1.7491    0.0173 C.ar      1 <0>        -0.1270
      7 F1         -2.4325    3.7857    0.0442 F         1 <0>        -0.1301
      8 C7          2.4212    3.9353    0.0001 C.2       1 <0>         0.2082
      9 C8          2.3688    5.2946    0.0074 C.2       1 <0>        -0.3049
     10 C9          3.5720    6.0384    0.0004 C.2       1 <0>         0.4234
     11 O1          3.5637    7.2582    0.0070 O.2       1 <0>        -0.4582
     12 C10         4.8385    5.2795   -0.0148 C.ar      1 <0>        -0.2180
     13 C11         6.0722    5.9280   -0.0221 C.ar      1 <0>         0.0006
     14 C12         7.2321    5.1830   -0.0358 C.ar      1 <0>        -0.1237
     15 C13         7.1729    3.7962   -0.0427 C.ar      1 <0>        -0.0287
     16 C14         5.9584    3.1442   -0.0356 C.ar      1 <0>        -0.1308
     17 C15         4.7778    3.8771   -0.0213 C.ar      1 <0>         0.1626
     18 O2          3.5790    3.2576   -0.0082 O.3       1 <0>        -0.2158
     19 Br1         8.9106    6.0539   -0.0458 Br        1 <0>        -0.0287
     20 H1          0.0021   -0.0041    0.0020 H         1 <0>         0.1448
     21 H2          2.1160    1.2521   -0.0107 H         1 <0>         0.1434
     22 H3         -0.0896    4.9315    0.0285 H         1 <0>         0.1493
     23 H4         -2.1464    1.1927    0.0187 H         1 <0>         0.1449
     24 H5          1.4156    5.8022    0.0189 H         1 <0>         0.1660
     25 H6          6.1192    7.0070   -0.0166 H         1 <0>         0.1540
     26 H7          8.0877    3.2222   -0.0542 H         1 <0>         0.1533
     27 H8          5.9244    2.0647   -0.0415 H         1 <0>         0.1557
@<TRIPOS>BOND
     1    1    6 ar
     2    1    2 ar
     3    1   20 1
     4    2    3 ar
     5    2   21 1
     6    3    4 ar
     7    3    8 1
     8    4    5 ar
     9    4   22 1
    10    5    6 ar
    11    5    7 1
    12    6   23 1
    13    8   18 1
    14    8    9 2
    15    9   10 1
    16    9   24 1
    17   10   11 2
    18   10   12 1
    19   12   17 ar
    20   12   13 ar
    21   13   14 ar
    22   13   25 1
    23   14   15 ar
    24   14   19 1
    25   15   16 ar
    26   15   26 1
    27   16   17 ar
    28   16   27 1
    29   17   18 1
@<TRIPOS>MOLECULE
ZINC29555908
   27    29     0     0     0
SMALL
USER_CHARGES
2-(3-chlorophenyl)-6-fluoro-chromen-4-one
@<TRIPOS>ATOM
      1 C1         -0.0126    1.0758    0.0080 C.ar      1 <0>        -0.1078
      2 C2          1.1737    1.7801    0.0004 C.ar      1 <0>        -0.0742
      3 C3          1.1537    3.1764    0.0076 C.ar      1 <0>        -0.0608
      4 C4         -0.0692    3.8510    0.0225 C.ar      1 <0>        -0.0734
      5 C5         -1.2488    3.1341    0.0299 C.ar      1 <0>        -0.0381
      6 C6         -1.2208    1.7494    0.0173 C.ar      1 <0>        -0.0834
      7 Cl1        -2.7703    3.9698    0.0478 Cl        1 <0>        -0.0524
      8 C7          2.4198    3.9363    0.0001 C.2       1 <0>         0.2119
      9 C8          2.3665    5.2956    0.0075 C.2       1 <0>        -0.3096
     10 C9          3.5692    6.0401    0.0004 C.2       1 <0>         0.4231
     11 O1          3.5600    7.2599    0.0071 O.2       1 <0>        -0.4587
     12 C10         4.8362    5.2821   -0.0147 C.ar      1 <0>        -0.1947
     13 C11         6.0694    5.9319   -0.0220 C.ar      1 <0>        -0.0661
     14 C12         7.2309    5.1872   -0.0357 C.ar      1 <0>         0.0765
     15 C13         7.1719    3.7991   -0.0427 C.ar      1 <0>        -0.0896
     16 C14         5.9574    3.1472   -0.0361 C.ar      1 <0>        -0.1070
     17 C15         4.7766    3.8797   -0.0213 C.ar      1 <0>         0.1372
     18 O2          3.5780    3.2593   -0.0082 O.3       1 <0>        -0.2159
     19 F1          8.4297    5.8100   -0.0429 F         1 <0>        -0.1287
     20 H1          0.0021   -0.0041    0.0020 H         1 <0>         0.1440
     21 H2          2.1161    1.2525   -0.0107 H         1 <0>         0.1430
     22 H3         -0.0918    4.9307    0.0285 H         1 <0>         0.1470
     23 H4         -2.1464    1.1929    0.0191 H         1 <0>         0.1426
     24 H5          1.4130    5.8025    0.0189 H         1 <0>         0.1654
     25 H6          6.1154    7.0109   -0.0166 H         1 <0>         0.1567
     26 H7          8.0867    3.2252   -0.0538 H         1 <0>         0.1564
     27 H8          5.9235    2.0678   -0.0423 H         1 <0>         0.1567
@<TRIPOS>BOND
     1    1    6 ar
     2    1    2 ar
     3    1   20 1
     4    2    3 ar
     5    2   21 1
     6    3    4 ar
     7    3    8 1
     8    4    5 ar
     9    4   22 1
    10    5    6 ar
    11    5    7 1
    12    6   23 1
    13    8   18 1
    14    8    9 2
    15    9   10 1
    16    9   24 1
    17   10   11 2
    18   10   12 1
    19   12   17 ar
    20   12   13 ar
    21   13   14 ar
    22   13   25 1
    23   14   15 ar
    24   14   19 1
    25   15   16 ar
    26   15   26 1
    27   16   17 ar
    28   16   27 1
    29   17   18 1
@<TRIPOS>MOLECULE
ZINC00042165
   31    33     0     0     0
SMALL
USER_CHARGES
6-chloro-2-(4-methoxyphenyl)-chromen-4-one
@<TRIPOS>ATOM
      1 C1          7.3626   -3.8818   -0.0875 C.3       1 <0>         0.0224
      2 O1          7.3718   -2.4528   -0.0803 O.3       1 <0>        -0.3104
      3 C2          6.1663   -1.8288   -0.0663 C.ar      1 <0>         0.1593
      4 C3          6.1049   -0.4404   -0.0586 C.ar      1 <0>        -0.1566
      5 C4          4.8841    0.1968   -0.0435 C.ar      1 <0>        -0.0350
      6 C5          3.7056   -0.5550   -0.0363 C.ar      1 <0>        -0.1191
      7 C6          3.7721   -1.9513   -0.0387 C.ar      1 <0>        -0.0333
      8 C7          4.9972   -2.5802   -0.0591 C.ar      1 <0>        -0.2127
      9 C8          2.3960    0.1229   -0.0202 C.2       1 <0>         0.2239
     10 C9          1.2657   -0.6365   -0.0134 C.2       1 <0>        -0.3244
     11 C10         0.0021   -0.0041    0.0020 C.2       1 <0>         0.4241
     12 O2         -1.0315   -0.6523    0.0080 O.2       1 <0>        -0.4658
     13 C11        -0.0180    1.4725    0.0101 C.ar      1 <0>        -0.2109
     14 C12        -1.2183    2.1805    0.0311 C.ar      1 <0>        -0.0212
     15 C13        -1.1949    3.5593    0.0321 C.ar      1 <0>        -0.0665
     16 C14         0.0160    4.2383    0.0247 C.ar      1 <0>        -0.0485
     17 C15         1.2092    3.5479    0.0096 C.ar      1 <0>        -0.1252
     18 C16         1.2065    2.1584    0.0021 C.ar      1 <0>         0.1516
     19 O3          2.3640    1.4645   -0.0131 O.3       1 <0>        -0.2180
     20 Cl1        -2.6852    4.4494    0.0506 Cl        1 <0>        -0.0515
     21 H1          8.3878   -4.2517   -0.0986 H         1 <0>         0.1056
     22 H2          6.8544   -4.2464    0.8053 H         1 <0>         0.0605
     23 H3          6.8385   -4.2373   -0.9746 H         1 <0>         0.0605
     24 H4          7.0159    0.1397   -0.0642 H         1 <0>         0.1419
     25 H5          4.8373    1.2758   -0.0369 H         1 <0>         0.1433
     26 H6          2.8641   -2.5360   -0.0286 H         1 <0>         0.1401
     27 H7          5.0495   -3.6589   -0.0651 H         1 <0>         0.1405
     28 H8          1.3345   -1.7143   -0.0195 H         1 <0>         0.1632
     29 H9         -2.1605    1.6529    0.0411 H         1 <0>         0.1537
     30 H10         0.0233    5.3183    0.0304 H         1 <0>         0.1531
     31 H11         2.1452    4.0866    0.0039 H         1 <0>         0.1552
@<TRIPOS>BOND
     1    1    2 1
     2    1   21 1
     3    1   22 1
     4    1   23 1
     5    2    3 1
     6    3    8 ar
     7    3    4 ar
     8    4    5 ar
     9    4   24 1
    10    5    6 ar
    11    5   25 1
    12    6    7 ar
    13    6    9 1
    14    7    8 ar
    15    7   26 1
    16    8   27 1
    17    9   19 1
    18    9   10 2
    19   10   11 1
    20   10   28 1
    21   11   12 2
    22   11   13 1
    23   13   18 ar
    24   13   14 ar
    25   14   15 ar
    26   14   29 1
    27   15   16 ar
    28   15   20 1
    29   16   17 ar
    30   16   30 1
    31   17   18 ar
    32   17   31 1
    33   18   19 1
@<TRIPOS>MOLECULE
ZINC29205511
   17    16     0     0     0
SMALL
USER_CHARGES
(E,4S)-4-aminopent-2-enoic acid
@<TRIPOS>ATOM
      1 C1         -2.6675    5.0921    1.2240 C.3       1 <0>        -0.1763
      2 C2         -2.6319    4.1275    0.0370 C.3       1 <0>         0.0805
      3 H1         -2.7631    4.6669   -0.9127 H         1 <0>         0.1379
      4 C3         -1.3167    3.3918    0.0267 C.2       1 <0>        -0.1942
      5 C4         -1.2987    2.0612    0.0194 C.2       1 <0>        -0.1467
      6 C5         -0.0162    1.3438    0.0094 C.2       1 <0>         0.4657
      7 O1          1.0279    1.9657    0.0028 O.co2     1 <0>        -0.6168
      8 O2          0.0021   -0.0041    0.0020 O.co2     1 <0>        -0.7430
      9 N1         -3.7323    3.1618    0.1576 N.4       1 <0>        -0.6887
     10 H2         -3.6275    5.6290    1.2314 H         1 <0>         0.0769
     11 H3         -1.8436    5.8153    1.1336 H         1 <0>         0.1044
     12 H4         -2.5570    4.5255    2.1603 H         1 <0>         0.0811
     13 H5         -0.3716    3.9547    0.0252 H         1 <0>         0.1597
     14 H6         -2.2438    1.4983    0.0209 H         1 <0>         0.0982
     15 H7         -3.7067    2.4683   -0.6958 H         1 <0>         0.4583
     16 H8         -4.6923    3.6988    0.1650 H         1 <0>         0.4488
     17 H9         -3.6219    2.5952    1.0940 H         1 <0>         0.4542
@<TRIPOS>BOND
     1    1    2 1
     2    1   10 1
     3    1   11 1
     4    1   12 1
     5    2    3 1
     6    2    4 1
     7    2    9 1
     8    4    5 2
     9    4   13 1
    10    5    6 1
    11    5   14 1
    12    6    7 2
    13    6    8 1
    14    9   15 1
    15    9   16 1
    16    9   17 1
@<TRIPOS>MOLECULE
ZINC13119575
   38    39     0     0     0
SMALL
USER_CHARGES

@<TRIPOS>ATOM
      1 C1         -0.0173    1.4248    0.0099 C.3       1 <0>         0.0211
      2 O1          0.0021   -0.0041    0.0020 O.3       1 <0>        -0.3091
      3 C2         -1.1999   -0.6373    0.0101 C.ar      1 <0>         0.1673
      4 C3         -2.3736    0.1044    0.0195 C.ar      1 <0>        -0.2122
      5 C4         -3.5951   -0.5353    0.0277 C.ar      1 <0>        -0.0219
      6 C5         -3.6508   -1.9284    0.0261 C.ar      1 <0>        -0.1158
      7 C6         -2.4705   -2.6703    0.0162 C.ar      1 <0>        -0.0414
      8 C7         -1.2521   -2.0247    0.0031 C.ar      1 <0>        -0.1531
      9 C8         -4.9627   -2.6195    0.0354 C.ar      1 <0>         0.1698
     10 C9         -5.0194   -4.0177    0.0397 C.ar      1 <0>        -0.0236
     11 C10        -6.2661   -4.6162    0.0488 C.ar      1 <0>        -0.1326
     12 C11        -7.3905   -3.7887    0.0533 C.ar      1 <0>         0.4141
     13 N1         -7.2418   -2.4721    0.0487 N.ar      1 <0>        -0.2237
     14 N2         -6.0857   -1.9144    0.0453 N.ar      1 <0>        -0.2096
     15 C12        -8.4367   -1.6246    0.0530 C.3       1 <0>         0.0689
     16 C13        -8.8446   -1.3255    1.4970 C.3       1 <0>        -0.1114
     17 C14       -10.0926   -0.4403    1.5015 C.3       1 <0>        -0.1835
     18 C15       -10.4943   -0.1457    2.9237 C.2       1 <0>         0.4896
     19 O2         -9.8429   -0.6014    3.8481 O.co2     1 <0>        -0.6954
     20 O3        -11.4708    0.5484    3.1501 O.co2     1 <0>        -0.6877
     21 N3         -8.6644   -4.3453    0.0620 N.pl3     1 <0>        -0.8043
     22 H1          1.0053    1.8021    0.0021 H         1 <0>         0.1077
     23 H2         -0.5445    1.7859   -0.8732 H         1 <0>         0.0617
     24 H3         -0.5275    1.7763    0.9067 H         1 <0>         0.0628
     25 H4         -2.3298    1.1835    0.0207 H         1 <0>         0.1415
     26 H5         -4.5077    0.0421    0.0357 H         1 <0>         0.1416
     27 H6         -2.5104   -3.7496    0.0153 H         1 <0>         0.1398
     28 H7         -0.3375   -2.5989   -0.0083 H         1 <0>         0.1452
     29 H8         -4.1171   -4.6113    0.0355 H         1 <0>         0.1877
     30 H9         -6.3669   -5.6915    0.0521 H         1 <0>         0.1940
     31 H10        -8.2211   -0.6899   -0.4647 H         1 <0>         0.1354
     32 H11        -9.2508   -2.1418   -0.4548 H         1 <0>         0.1155
     33 H12        -9.0602   -2.2601    2.0147 H         1 <0>         0.0745
     34 H13        -8.0305   -0.8083    2.0048 H         1 <0>         0.0866
     35 H14        -9.8770    0.4943    0.9838 H         1 <0>         0.0703
     36 H15       -10.9067   -0.9576    0.9937 H         1 <0>         0.0659
     37 H16        -8.7725   -5.3093    0.0650 H         1 <0>         0.4374
     38 H17        -9.4452   -3.7697    0.0651 H         1 <0>         0.4271
@<TRIPOS>BOND
     1    1    2 1
     2    1   22 1
     3    1   23 1
     4    1   24 1
     5    2    3 1
     6    3    8 ar
     7    3    4 ar
     8    4    5 ar
     9    4   25 1
    10    5    6 ar
    11    5   26 1
    12    6    7 ar
    13    6    9 1
    14    7    8 ar
    15    7   27 1
    16    8   28 1
    17    9   14 ar
    18    9   10 ar
    19   10   11 ar
    20   10   29 1
    21   11   12 ar
    22   11   30 1
    23   12   13 ar
    24   12   21 1
    25   13   14 ar
    26   13   15 1
    27   15   16 1
    28   15   31 1
    29   15   32 1
    30   16   17 1
    31   16   33 1
    32   16   34 1
    33   17   18 1
    34   17   35 1
    35   17   36 1
    36   18   19 2
    37   18   20 1
    38   21   37 1
    39   21   38 1
@<TRIPOS>MOLECULE
ZINC02602006
   29    32     0     0     0
SMALL
USER_CHARGES

@<TRIPOS>ATOM
      1 C1         -0.0167    1.3790    0.0096 C.ar      1 <0>        -0.1143
      2 C2          1.1687    2.0918    0.0021 C.ar      1 <0>        -0.1254
      3 C3          2.3774    1.4257   -0.0134 C.ar      1 <0>        -0.0863
      4 C4          2.4021    0.0327   -0.0211 C.ar      1 <0>         0.0028
      5 C5          1.2051   -0.6804   -0.0130 C.ar      1 <0>        -0.0794
      6 C6          0.0021   -0.0041    0.0020 C.ar      1 <0>        -0.1276
      7 C7          3.6988   -0.6891   -0.0383 C.2       1 <0>         0.2496
      8 N1          3.8445   -2.0182   -0.0522 N.2       1 <0>        -0.5379
      9 C8          5.1235   -2.3227   -0.0660 C.2       1 <0>         0.3317
     10 C9          5.8793   -3.5805   -0.0845 C.ar      1 <0>        -0.1633
     11 C10         5.2479   -4.8223   -0.0916 C.ar      1 <0>        -0.0298
     12 C11         6.0073   -5.9715   -0.1095 C.ar      1 <0>        -0.1946
     13 C12         7.3943   -5.9009   -0.1201 C.ar      1 <0>        -0.0686
     14 C13         8.0381   -4.6847   -0.1134 C.ar      1 <0>        -0.1518
     15 C14         7.2905   -3.5042   -0.0958 C.ar      1 <0>         0.2208
     16 N2          7.8889   -2.2882   -0.0887 N.2       1 <0>        -0.5963
     17 C15         7.2017   -1.1787   -0.0719 C.2       1 <0>         0.6162
     18 N3          5.8358   -1.1528   -0.0609 N.pl3     1 <0>        -0.3463
     19 N4          4.8877   -0.1209   -0.0479 N.2       1 <0>        -0.2856
     20 O1          7.8702   -0.0045   -0.0654 O.3       1 <0>        -0.6417
     21 H1         -0.9602    1.9042    0.0260 H         1 <0>         0.1213
     22 H2          1.1483    3.1716    0.0081 H         1 <0>         0.1251
     23 H3          3.3023    1.9833   -0.0199 H         1 <0>         0.1324
     24 H4          1.2187   -1.7603   -0.0189 H         1 <0>         0.1350
     25 H5         -0.9264   -0.5558    0.0079 H         1 <0>         0.1248
     26 H6          4.1697   -4.8837   -0.0827 H         1 <0>         0.1241
     27 H7          5.5200   -6.9354   -0.1149 H         1 <0>         0.1175
     28 H8          7.9747   -6.8116   -0.1333 H         1 <0>         0.1191
     29 H9          9.1172   -4.6426   -0.1214 H         1 <0>         0.1283
@<TRIPOS>BOND
     1    1    6 ar
     2    1    2 ar
     3    1   21 1
     4    2    3 ar
     5    2   22 1
     6    3    4 ar
     7    3   23 1
     8    4    5 ar
     9    4    7 1
    10    5    6 ar
    11    5   24 1
    12    6   25 1
    13    7   19 2
    14    7    8 1
    15    8    9 2
    16    9   18 1
    17    9   10 1
    18   10   15 ar
    19   10   11 ar
    20   11   12 ar
    21   11   26 1
    22   12   13 ar
    23   12   27 1
    24   13   14 ar
    25   13   28 1
    26   14   15 ar
    27   14   29 1
    28   15   16 1
    29   16   17 2
    30   17   18 1
    31   17   20 1
    32   18   19 1
@<TRIPOS>MOLECULE
ZINC00597316
   46    49     0     0     0
SMALL
USER_CHARGES

@<TRIPOS>ATOM
      1 C1          1.2693    1.8121    0.7206 C.3       1 <0>        -0.1901
      2 C2          0.2752    1.1992   -0.2678 C.3       1 <0>         0.1142
      3 C3         -0.3731   -0.0360    0.3607 C.3       1 <0>        -0.1871
      4 C4         -0.8068    2.2267   -0.6061 C.3       1 <0>        -0.1412
      5 O1          0.9627    0.8207   -1.4620 O.3       1 <0>        -0.3343
      6 C5          1.9537   -0.0844   -1.3369 C.2       1 <0>         0.5708
      7 O2          2.2264   -0.5397   -0.2434 O.2       1 <0>        -0.4845
      8 C6          2.7055   -0.5213   -2.5242 C.2       1 <0>        -0.0039
      9 C7          3.9674   -0.1442   -2.8627 C.2       1 <0>         0.0298
     10 N1          4.2877   -0.7865   -4.0166 N.pl3     1 <0>        -0.4072
     11 C8          3.2035   -1.5319   -4.3762 C.2       1 <0>         0.2158
     12 N2          2.2691   -1.3814   -3.4827 N.2       1 <0>        -0.4367
     13 C9          5.5005   -0.7194   -4.7041 C.ar      1 <0>         0.1581
     14 C10         5.9641   -1.8903   -5.3016 C.ar      1 <0>        -0.1151
     15 C11         7.1607   -1.9031   -5.9859 C.ar      1 <0>        -0.0650
     16 C12         7.9158   -0.7467   -6.0848 C.ar      1 <0>        -0.0893
     17 C13         7.4717    0.4200   -5.5054 C.ar      1 <0>        -0.0349
     18 C14         6.2502    0.4517   -4.8093 C.ar      1 <0>        -0.0976
     19 C15         5.8259    1.7381   -4.2444 C.2       1 <0>         0.5602
     20 O3          6.0299    2.7380   -4.9054 O.2       1 <0>        -0.4974
     21 N3          5.2313    1.8917   -3.0570 N.am      1 <0>        -0.6009
     22 C16         4.8701    0.8085   -2.1268 C.3       1 <0>         0.1955
     23 H1          5.7651    0.2914   -1.7810 H         1 <0>         0.1061
     24 C17         4.1148    1.4491   -0.9472 C.3       1 <0>        -0.1323
     25 C18         4.6501    2.9063   -0.9555 C.3       1 <0>        -0.1288
     26 C19         4.7979    3.1753   -2.4728 C.3       1 <0>         0.1082
     27 Br1         8.5121    1.9927   -5.6465 Br        1 <0>         0.0022
     28 H2          2.0401    1.0800    0.9616 H         1 <0>         0.0854
     29 H3          1.7312    2.6920    0.2729 H         1 <0>         0.0635
     30 H4          0.7449    2.1007    1.6315 H         1 <0>         0.0756
     31 H5         -0.8976    0.2527    1.2715 H         1 <0>         0.0739
     32 H6         -1.0814   -0.4726   -0.3435 H         1 <0>         0.0639
     33 H7          0.3977   -0.7680    0.6017 H         1 <0>         0.0838
     34 H8         -0.3449    3.1066   -1.0539 H         1 <0>         0.0672
     35 H9         -1.5150    1.7901   -1.3103 H         1 <0>         0.0684
     36 H10        -1.3312    2.5154    0.3047 H         1 <0>         0.0815
     37 H11         3.1333   -2.1509   -5.2585 H         1 <0>         0.2263
     38 H12         5.3806   -2.7960   -5.2275 H         1 <0>         0.1491
     39 H13         7.5093   -2.8161   -6.4457 H         1 <0>         0.1544
     40 H14         8.8553   -0.7604   -6.6172 H         1 <0>         0.1525
     41 H15         3.0389    1.4312   -1.1211 H         1 <0>         0.0861
     42 H16         4.3649    0.9503   -0.0109 H         1 <0>         0.1046
     43 H17         3.9296    3.5897   -0.5060 H         1 <0>         0.0963
     44 H18         5.6145    2.9710   -0.4516 H         1 <0>         0.0871
     45 H19         5.5510    3.9435   -2.6485 H         1 <0>         0.0904
     46 H20         3.8412    3.4795   -2.8974 H         1 <0>         0.0755
@<TRIPOS>BOND
     1    1    2 1
     2    1   28 1
     3    1   29 1
     4    1   30 1
     5    2    3 1
     6    2    4 1
     7    2    5 1
     8    3   31 1
     9    3   32 1
    10    3   33 1
    11    4   34 1
    12    4   35 1
    13    4   36 1
    14    5    6 1
    15    6    7 2
    16    6    8 1
    17    8   12 1
    18    8    9 2
    19    9   22 1
    20    9   10 1
    21   10   11 1
    22   10   13 1
    23   11   12 2
    24   11   37 1
    25   13   18 ar
    26   13   14 ar
    27   14   15 ar
    28   14   38 1
    29   15   16 ar
    30   15   39 1
    31   16   17 ar
    32   16   40 1
    33   17   18 ar
    34   17   27 1
    35   18   19 1
    36   19   20 2
    37   19   21 am
    38   21   26 1
    39   21   22 1
    40   22   23 1
    41   22   24 1
    42   24   25 1
    43   24   41 1
    44   24   42 1
    45   25   26 1
    46   25   43 1
    47   25   44 1
    48   26   45 1
    49   26   46 1
@<TRIPOS>MOLECULE
ZINC00001464
   36    38     0     0     0
SMALL
USER_CHARGES

@<TRIPOS>ATOM
      1 C1         -0.0187    1.5258    0.0104 C.3       1 <0>        -0.1527
      2 C2          0.0021   -0.0041    0.0020 C.3       1 <0>         0.0595
      3 O1         -1.3386   -0.4987    0.0122 O.3       1 <0>        -0.3295
      4 C3         -1.4970   -1.8373    0.0065 C.2       1 <0>         0.5595
      5 O2         -0.5232   -2.5645   -0.0067 O.2       1 <0>        -0.5059
      6 C4         -2.8491   -2.4182    0.0163 C.2       1 <0>        -0.0204
      7 C5         -3.1574   -3.7441    0.0176 C.2       1 <0>         0.0514
      8 N1         -4.5094   -3.8420    0.0002 N.pl3     1 <0>        -0.4034
      9 C6         -5.0118   -2.5765    0.0278 C.2       1 <0>         0.2113
     10 N2         -4.0219   -1.7299    0.0316 N.2       1 <0>        -0.4291
     11 C7         -5.2437   -5.0283   -0.0696 C.ar      1 <0>         0.1361
     12 C8         -6.4178   -5.0243   -0.8179 C.ar      1 <0>        -0.0943
     13 C9         -7.1677   -6.1733   -0.9504 C.ar      1 <0>        -0.1054
     14 C10        -6.7527   -7.3466   -0.3378 C.ar      1 <0>         0.1093
     15 C11        -5.6005   -7.3636    0.4163 C.ar      1 <0>        -0.0832
     16 C12        -4.8343   -6.1965    0.5748 C.ar      1 <0>        -0.0860
     17 C13        -3.6619   -6.2637    1.4502 C.2       1 <0>         0.5507
     18 O3         -3.7840   -6.9146    2.4698 O.2       1 <0>        -0.5260
     19 N3         -2.4758   -5.6895    1.2509 N.am      1 <0>        -0.5964
     20 C14        -2.1949   -4.9033    0.0447 C.3       1 <0>         0.1632
     21 C15        -1.4269   -5.8469    2.2614 C.3       1 <0>         0.0754
     22 F1         -7.4809   -8.4755   -0.4809 F         1 <0>        -0.1229
     23 H1          1.0039    1.9031    0.0027 H         1 <0>         0.0814
     24 H2         -0.5459    1.8868   -0.8726 H         1 <0>         0.0681
     25 H3         -0.5289    1.8773    0.9072 H         1 <0>         0.0679
     26 H4          0.5123   -0.3556   -0.8948 H         1 <0>         0.0706
     27 H5          0.5293   -0.3651    0.8851 H         1 <0>         0.0701
     28 H6         -6.0600   -2.3172    0.0476 H         1 <0>         0.2269
     29 H7         -6.7439   -4.1135   -1.2980 H         1 <0>         0.1544
     30 H8         -8.0784   -6.1600   -1.5308 H         1 <0>         0.1586
     31 H9         -5.2835   -8.2812    0.8896 H         1 <0>         0.1586
     32 H10        -2.3373   -5.5225   -0.8409 H         1 <0>         0.0971
     33 H11        -1.1705   -4.5322    0.0760 H         1 <0>         0.1471
     34 H12        -1.8034   -6.4548    3.0841 H         1 <0>         0.0976
     35 H13        -0.5619   -6.3366    1.8141 H         1 <0>         0.0726
     36 H14        -1.1351   -4.8666    2.6380 H         1 <0>         0.0680
@<TRIPOS>BOND
     1    1    2 1
     2    1   23 1
     3    1   24 1
     4    1   25 1
     5    2    3 1
     6    2   26 1
     7    2   27 1
     8    3    4 1
     9    4    5 2
    10    4    6 1
    11    6   10 1
    12    6    7 2
    13    7   20 1
    14    7    8 1
    15    8    9 1
    16    8   11 1
    17    9   10 2
    18    9   28 1
    19   11   16 ar
    20   11   12 ar
    21   12   13 ar
    22   12   29 1
    23   13   14 ar
    24   13   30 1
    25   14   15 ar
    26   14   22 1
    27   15   16 ar
    28   15   31 1
    29   16   17 1
    30   17   18 2
    31   17   19 am
    32   19   20 1
    33   19   21 1
    34   20   32 1
    35   20   33 1
    36   21   34 1
    37   21   35 1
    38   21   36 1
@<TRIPOS>MOLECULE
ZINC03813003
   32    34     0     0     0
SMALL
USER_CHARGES
6-(2-chlorophenyl)-9-nitro-2,5-diazabicyclo[5.4.0]undeca-5,7,9,11-tetraen-3-one
@<TRIPOS>ATOM
      1 C1         -0.9263    2.6093    1.0664 C.ar      1 <0>        -0.1113
      2 C2         -1.2194    1.7464    0.0248 C.ar      1 <0>        -0.0882
      3 C3         -0.3364    1.6002   -1.0293 C.ar      1 <0>        -0.1087
      4 C4          0.8504    2.3075   -1.0426 C.ar      1 <0>        -0.0117
      5 C5          1.1536    3.1748    0.0081 C.ar      1 <0>        -0.0589
      6 C6          0.2552    3.3212    1.0652 C.ar      1 <0>        -0.0703
      7 C7          2.4236    3.9367    0.0005 C.2       1 <0>         0.2679
      8 N1          2.3488    5.2171   -0.0965 N.2       1 <0>        -0.4640
      9 C8          3.5433    6.0613   -0.1155 C.3       1 <0>         0.0173
     10 C9          4.3425    5.7386   -1.3485 C.2       1 <0>         0.5139
     11 O1          4.5038    6.5976   -2.1894 O.2       1 <0>        -0.4972
     12 N2          4.8775    4.5351   -1.5405 N.am      1 <0>        -0.6621
     13 C10         4.8170    3.4830   -0.6398 C.ar      1 <0>         0.2310
     14 C11         3.6768    3.1720    0.0986 C.ar      1 <0>        -0.1270
     15 C12         3.7066    2.0828    0.9824 C.ar      1 <0>         0.0090
     16 C13         4.8482    1.3279    1.1230 C.ar      1 <0>        -0.0573
     17 C14         5.9805    1.6403    0.3896 C.ar      1 <0>        -0.0148
     18 C15         5.9663    2.7060   -0.4835 C.ar      1 <0>        -0.1418
     19 N3          4.8662    0.1814    2.0592 N.pl3     1 <0>         0.0285
     20 O2          3.8706   -0.0934    2.7047 O.2       1 <0>        -0.1516
     21 O3          5.8767   -0.4871    2.1840 O.3       1 <0>        -0.1507
     22 Cl1         1.9618    2.1175   -2.3626 Cl        1 <0>        -0.0619
     23 H1         -1.6223    2.7222    1.8844 H         1 <0>         0.1389
     24 H2         -2.1437    1.1878    0.0333 H         1 <0>         0.1393
     25 H3         -0.5727    0.9284   -1.8412 H         1 <0>         0.1406
     26 H4          0.4843    3.9905    1.8812 H         1 <0>         0.1385
     27 H5          4.1458    5.8660    0.7715 H         1 <0>         0.1004
     28 H6          3.2510    7.1112   -0.1344 H         1 <0>         0.1410
     29 H7          5.3466    4.3823   -2.3756 H         1 <0>         0.4193
     30 H8          2.8264    1.8351    1.5571 H         1 <0>         0.1644
     31 H9          6.8762    1.0474    0.5020 H         1 <0>         0.1668
     32 H10         6.8534    2.9432   -1.0520 H         1 <0>         0.1605
@<TRIPOS>BOND
     1    1    6 ar
     2    1    2 ar
     3    1   23 1
     4    2    3 ar
     5    2   24 1
     6    3    4 ar
     7    3   25 1
     8    4    5 ar
     9    4   22 1
    10    5    6 ar
    11    5    7 1
    12    6   26 1
    13    7   14 1
    14    7    8 2
    15    8    9 1
    16    9   10 1
    17    9   27 1
    18    9   28 1
    19   10   11 2
    20   10   12 am
    21   12   13 1
    22   12   29 1
    23   13   18 ar
    24   13   14 ar
    25   14   15 ar
    26   15   16 ar
    27   15   30 1
    28   16   17 ar
    29   16   19 1
    30   17   18 ar
    31   17   31 1
    32   18   32 1
    33   19   20 2
    34   19   21 1
@<TRIPOS>MOLECULE
ZINC13741325
   31    34     0     0     0
SMALL
USER_CHARGES

@<TRIPOS>ATOM
      1 C1         -0.0167    1.3786    0.0096 C.ar      1 <0>        -0.1094
      2 C2          1.1696    2.0892    0.0021 C.ar      1 <0>        -0.1002
      3 C3          2.3774    1.4193   -0.0130 C.ar      1 <0>        -0.0983
      4 C4          2.3995    0.0309   -0.0206 C.ar      1 <0>         0.1285
      5 C5          1.2065   -0.6797   -0.0130 C.ar      1 <0>        -0.1158
      6 C6          0.0021   -0.0041    0.0020 C.ar      1 <0>        -0.0981
      7 N1          3.6229   -0.6515   -0.0364 N.pl3     1 <0>        -0.2958
      8 C7          3.8643   -1.8237    0.5830 C.2       1 <0>         0.3373
      9 C8          5.1841   -2.1684    0.3302 C.ar      1 <0>        -0.2843
     10 C9          6.0265   -3.2422    0.6816 C.ar      1 <0>         0.2567
     11 N2          7.2657   -3.2987    0.2841 N.ar      1 <0>        -0.5040
     12 C10         7.8582   -2.3586   -0.4866 C.ar      1 <0>         0.1413
     13 C11         9.1989   -2.4992   -0.8692 C.ar      1 <0>        -0.0800
     14 C12         9.7929   -1.5480   -1.6469 C.ar      1 <0>        -0.0860
     15 C13         9.0865   -0.4298   -2.0720 C.ar      1 <0>        -0.0421
     16 C14         7.7657   -0.2623   -1.7125 C.ar      1 <0>        -0.0663
     17 C15         7.1417   -1.2220   -0.9199 C.ar      1 <0>        -0.0556
     18 C16         5.7361   -1.0895   -0.5096 C.ar      1 <0>         0.1473
     19 N3          4.7763   -0.2208   -0.7030 N.2       1 <0>        -0.2531
     20 Cl1         9.8706    0.7629   -3.0601 Cl        1 <0>        -0.0596
     21 O1          2.9786   -2.5362    1.3197 O.3       1 <0>        -0.4489
     22 H1         -0.9598    1.9047    0.0260 H         1 <0>         0.1345
     23 H2          1.1517    3.1690    0.0077 H         1 <0>         0.1375
     24 H3          3.3035    1.9748   -0.0192 H         1 <0>         0.1372
     25 H4          1.2205   -1.7596   -0.0189 H         1 <0>         0.1267
     26 H5         -0.9261   -0.5562    0.0082 H         1 <0>         0.1380
     27 H6          5.6346   -4.0387    1.2967 H         1 <0>         0.1674
     28 H7          9.7635   -3.3620   -0.5476 H         1 <0>         0.1493
     29 H8         10.8268   -1.6661   -1.9357 H         1 <0>         0.1438
     30 H9          7.2188    0.6081   -2.0436 H         1 <0>         0.1425
     31 H10         2.4686   -3.1789    0.8079 H         1 <0>         0.4095
@<TRIPOS>BOND
     1    1    6 ar
     2    1    2 ar
     3    1   22 1
     4    2    3 ar
     5    2   23 1
     6    3    4 ar
     7    3   24 1
     8    4    5 ar
     9    4    7 1
    10    5    6 ar
    11    5   25 1
    12    6   26 1
    13    7   19 1
    14    7    8 1
    15    8    9 2
    16    8   21 1
    17    9   18 ar
    18    9   10 ar
    19   10   11 ar
    20   10   27 1
    21   11   12 ar
    22   12   17 ar
    23   12   13 ar
    24   13   14 ar
    25   13   28 1
    26   14   15 ar
    27   14   29 1
    28   15   16 ar
    29   15   20 1
    30   16   17 ar
    31   16   30 1
    32   17   18 ar
    33   18   19 2
    34   21   31 1
@<TRIPOS>MOLECULE
ZINC13741323
   35    38     0     0     0
SMALL
USER_CHARGES

@<TRIPOS>ATOM
      1 C1         -0.0173    1.4248    0.0099 C.3       1 <0>         0.0247
      2 O1          0.0021   -0.0041    0.0020 O.3       1 <0>        -0.3123
      3 C2          0.6057   -0.6070   -1.0556 C.ar      1 <0>         0.1533
      4 C3          1.1726    0.1718   -2.0621 C.ar      1 <0>        -0.2076
      5 C4          1.7837   -0.4177   -3.1330 C.ar      1 <0>        -0.0342
      6 C5          1.8423   -1.8062   -3.2225 C.ar      1 <0>        -0.1025
      7 C6          1.2725   -2.6096   -2.2106 C.ar      1 <0>         0.1763
      8 C7          0.6560   -1.9847   -1.1191 C.ar      1 <0>        -0.1348
      9 N1          1.3218   -3.9588   -2.2860 N.ar      1 <0>        -0.5070
     10 C8          1.8795   -4.6155   -3.2632 C.ar      1 <0>         0.2598
     11 C9          2.4914   -3.9531   -4.3459 C.ar      1 <0>        -0.2908
     12 C10         2.4902   -2.4787   -4.3583 C.ar      1 <0>         0.1564
     13 N2          3.1067   -2.1011   -5.4494 N.2       1 <0>        -0.2629
     14 N3          3.5173   -3.2334   -6.1631 N.pl3     1 <0>        -0.2977
     15 C11         3.1500   -4.3482   -5.5015 C.2       1 <0>         0.3367
     16 O2          3.3802   -5.6239   -5.8945 O.3       1 <0>        -0.4519
     17 C12         4.2080   -3.2107   -7.3817 C.ar      1 <0>         0.1236
     18 C13         5.1580   -4.1842   -7.6612 C.ar      1 <0>        -0.1135
     19 C14         5.8369   -4.1593   -8.8637 C.ar      1 <0>        -0.1011
     20 C15         5.5715   -3.1664   -9.7888 C.ar      1 <0>        -0.1096
     21 C16         4.6264   -2.1952   -9.5132 C.ar      1 <0>        -0.1038
     22 C17         3.9400   -2.2179   -8.3150 C.ar      1 <0>        -0.0990
     23 H1          1.0053    1.8021    0.0021 H         1 <0>         0.0583
     24 H2         -0.5445    1.7859   -0.8732 H         1 <0>         0.0583
     25 H3         -0.5275    1.7763    0.9067 H         1 <0>         0.1035
     26 H4          1.1285    1.2489   -1.9957 H         1 <0>         0.1369
     27 H5          2.2206    0.1929   -3.9094 H         1 <0>         0.1347
     28 H6          0.2177   -2.5795   -0.3313 H         1 <0>         0.1471
     29 H7          1.8731   -5.6952   -3.2427 H         1 <0>         0.1659
     30 H8          2.6790   -5.9985   -6.4450 H         1 <0>         0.4113
     31 H9          5.3659   -4.9597   -6.9390 H         1 <0>         0.1397
     32 H10         6.5761   -4.9160   -9.0815 H         1 <0>         0.1370
     33 H11         6.1037   -3.1491  -10.7284 H         1 <0>         0.1332
     34 H12         4.4216   -1.4208  -10.2376 H         1 <0>         0.1361
     35 H13         3.1988   -1.4618   -8.1022 H         1 <0>         0.1360
@<TRIPOS>BOND
     1    1    2 1
     2    1   23 1
     3    1   24 1
     4    1   25 1
     5    2    3 1
     6    3    8 ar
     7    3    4 ar
     8    4    5 ar
     9    4   26 1
    10    5    6 ar
    11    5   27 1
    12    6   12 ar
    13    6    7 ar
    14    7    8 ar
    15    7    9 ar
    16    8   28 1
    17    9   10 ar
    18   10   11 ar
    19   10   29 1
    20   11   15 2
    21   11   12 ar
    22   12   13 2
    23   13   14 1
    24   14   15 1
    25   14   17 1
    26   15   16 1
    27   16   30 1
    28   17   22 ar
    29   17   18 ar
    30   18   19 ar
    31   18   31 1
    32   19   20 ar
    33   19   32 1
    34   20   21 ar
    35   20   33 1
    36   21   22 ar
    37   21   34 1
    38   22   35 1
@<TRIPOS>MOLECULE
ZINC02584032
   44    47     0     0     0
SMALL
USER_CHARGES

@<TRIPOS>ATOM
      1 C1         -2.3642   -0.0672    0.6505 C.3       1 <0>        -0.1531
      2 C2         -1.0204   -0.6984    0.2810 C.3       1 <0>         0.0580
      3 O1         -0.3992   -1.2193    1.4578 O.3       1 <0>        -0.3422
      4 C3          0.8011   -1.8132    1.3045 C.2       1 <0>         0.5681
      5 O2          1.3063   -1.8867    0.2014 O.2       1 <0>        -0.4894
      6 C4          1.4998   -2.3727    2.4726 C.2       1 <0>        -0.0061
      7 C5          1.6066   -3.6902    2.7931 C.2       1 <0>         0.0288
      8 N1          2.3407   -3.7727    3.9331 N.pl3     1 <0>        -0.3993
      9 C6          2.6537   -2.4981    4.3034 C.2       1 <0>         0.2127
     10 N2          2.1632   -1.6687    3.4281 N.2       1 <0>        -0.4394
     11 C7          2.7258   -4.9380    4.6006 C.ar      1 <0>         0.1084
     12 C8          3.9958   -4.9562    5.1757 C.ar      1 <0>        -0.0818
     13 C9          4.4509   -6.0743    5.8389 C.ar      1 <0>        -0.1619
     14 C10         3.6425   -7.2002    5.9386 C.ar      1 <0>         0.1365
     15 C11         2.3816   -7.1961    5.3786 C.ar      1 <0>        -0.0836
     16 C12         1.9035   -6.0590    4.7061 C.ar      1 <0>        -0.0750
     17 C13         0.5402   -6.1172    4.1635 C.2       1 <0>         0.5713
     18 O3         -0.3085   -6.6743    4.8325 O.2       1 <0>        -0.5206
     19 N3          0.1631   -5.6028    2.9888 N.am      1 <0>        -0.6022
     20 C14         1.0285   -4.8654    2.0524 C.3       1 <0>         0.1967
     21 H1          1.8261   -5.5109    1.6847 H         1 <0>         0.1081
     22 C15         0.1393   -4.3757    0.8940 C.3       1 <0>        -0.1296
     23 C16        -1.0287   -5.3983    0.9099 C.3       1 <0>        -0.1285
     24 C17        -1.2005   -5.6515    2.4275 C.3       1 <0>         0.1065
     25 O4          4.0944   -8.3060    6.5876 O.3       1 <0>        -0.3069
     26 C18         5.4095   -8.2404    7.1427 C.3       1 <0>         0.0222
     27 H2         -2.2021    0.7409    1.3638 H         1 <0>         0.0685
     28 H3         -2.8380    0.3302   -0.2472 H         1 <0>         0.0827
     29 H4         -3.0098   -0.8228    1.0980 H         1 <0>         0.0673
     30 H5         -1.1824   -1.5065   -0.4323 H         1 <0>         0.0713
     31 H6         -0.3747    0.0572   -0.1665 H         1 <0>         0.0723
     32 H7          3.2213   -2.2215    5.1796 H         1 <0>         0.2247
     33 H8          4.6290   -4.0845    5.1006 H         1 <0>         0.1463
     34 H9          5.4362   -6.0761    6.2812 H         1 <0>         0.1494
     35 H10         1.7571   -8.0737    5.4583 H         1 <0>         0.1541
     36 H11        -0.2267   -3.3673    1.0868 H         1 <0>         0.0813
     37 H12         0.6784   -4.4187   -0.0524 H         1 <0>         0.1051
     38 H13        -1.9326   -4.9655    0.4813 H         1 <0>         0.0967
     39 H14        -0.7520   -6.3154    0.3897 H         1 <0>         0.0872
     40 H15        -1.6445   -6.6321    2.5989 H         1 <0>         0.0902
     41 H16        -1.8200   -4.8728    2.8725 H         1 <0>         0.0762
     42 H17         5.6454   -9.1860    7.6310 H         1 <0>         0.1077
     43 H18         6.1307   -8.0525    6.3472 H         1 <0>         0.0606
     44 H19         5.4557   -7.4328    7.8732 H         1 <0>         0.0611
@<TRIPOS>BOND
     1    1    2 1
     2    1   27 1
     3    1   28 1
     4    1   29 1
     5    2    3 1
     6    2   30 1
     7    2   31 1
     8    3    4 1
     9    4    5 2
    10    4    6 1
    11    6   10 1
    12    6    7 2
    13    7   20 1
    14    7    8 1
    15    8    9 1
    16    8   11 1
    17    9   10 2
    18    9   32 1
    19   11   16 ar
    20   11   12 ar
    21   12   13 ar
    22   12   33 1
    23   13   14 ar
    24   13   34 1
    25   14   15 ar
    26   14   25 1
    27   15   16 ar
    28   15   35 1
    29   16   17 1
    30   17   18 2
    31   17   19 am
    32   19   24 1
    33   19   20 1
    34   20   21 1
    35   20   22 1
    36   22   23 1
    37   22   36 1
    38   22   37 1
    39   23   24 1
    40   23   38 1
    41   23   39 1
    42   24   40 1
    43   24   41 1
    44   25   26 1
    45   26   42 1
    46   26   43 1
    47   26   44 1
@<TRIPOS>MOLECULE
ZINC00058081
   27    29     0     0     0
SMALL
USER_CHARGES
6-bromo-2-phenyl-chromen-4-one
@<TRIPOS>ATOM
      1 C1          6.1671   -1.8284   -0.0657 C.ar      1 <0>        -0.0913
      2 C2          6.1070   -0.4460   -0.0582 C.ar      1 <0>        -0.1231
      3 C3          4.8854    0.1943   -0.0435 C.ar      1 <0>        -0.0782
      4 C4          3.7074   -0.5560   -0.0363 C.ar      1 <0>        -0.0771
      5 C5          3.7756   -1.9509   -0.0386 C.ar      1 <0>        -0.0788
      6 C6          5.0040   -2.5781   -0.0591 C.ar      1 <0>        -0.1208
      7 C7          2.3960    0.1225   -0.0202 C.2       1 <0>         0.2131
      8 C8          1.2672   -0.6367   -0.0135 C.2       1 <0>        -0.3142
      9 C9          0.0021   -0.0041    0.0020 C.2       1 <0>         0.4236
     10 O1         -1.0312   -0.6524    0.0080 O.2       1 <0>        -0.4623
     11 C10        -0.0179    1.4723    0.0101 C.ar      1 <0>        -0.2183
     12 C11        -1.2182    2.1807    0.0311 C.ar      1 <0>         0.0003
     13 C12        -1.1943    3.5592    0.0321 C.ar      1 <0>        -0.1243
     14 C13         0.0165    4.2379    0.0247 C.ar      1 <0>        -0.0293
     15 C14         1.2096    3.5476    0.0096 C.ar      1 <0>        -0.1318
     16 C15         1.2069    2.1580    0.0021 C.ar      1 <0>         0.1624
     17 O2          2.3639    1.4638   -0.0122 O.3       1 <0>        -0.2174
     18 Br1        -2.8175    4.5291    0.0522 Br        1 <0>        -0.0297
     19 H1          7.1263   -2.3247   -0.0771 H         1 <0>         0.1312
     20 H2          7.0187    0.1329   -0.0641 H         1 <0>         0.1329
     21 H3          4.8399    1.2734   -0.0380 H         1 <0>         0.1352
     22 H4          2.8687   -2.5372   -0.0290 H         1 <0>         0.1364
     23 H5          5.0582   -3.6567   -0.0650 H         1 <0>         0.1351
     24 H6          1.3365   -1.7144   -0.0196 H         1 <0>         0.1653
     25 H7         -2.1606    1.6533    0.0411 H         1 <0>         0.1536
     26 H8          0.0239    5.3179    0.0304 H         1 <0>         0.1527
     27 H9          2.1457    4.0863    0.0039 H         1 <0>         0.1550
@<TRIPOS>BOND
     1    1    6 ar
     2    1    2 ar
     3    1   19 1
     4    2    3 ar
     5    2   20 1
     6    3    4 ar
     7    3   21 1
     8    4    5 ar
     9    4    7 1
    10    5    6 ar
    11    5   22 1
    12    6   23 1
    13    7   17 1
    14    7    8 2
    15    8    9 1
    16    8   24 1
    17    9   10 2
    18    9   11 1
    19   11   16 ar
    20   11   12 ar
    21   12   13 ar
    22   12   25 1
    23   13   14 ar
    24   13   18 1
    25   14   15 ar
    26   14   26 1
    27   15   16 ar
    28   15   27 1
    29   16   17 1
@<TRIPOS>MOLECULE
ZINC00135412
   27    29     0     0     0
SMALL
USER_CHARGES
2-(4-fluorophenyl)chromen-4-one
@<TRIPOS>ATOM
      1 C1         -1.2273    1.7458    0.0174 C.ar      1 <0>        -0.1467
      2 C2         -0.0126    1.0758    0.0080 C.ar      1 <0>        -0.0563
      3 C3          1.1760    1.7743    0.0004 C.ar      1 <0>        -0.1395
      4 C4          1.1637    3.1638    0.0075 C.ar      1 <0>         0.1453
      5 C5         -0.0659    3.8405    0.0224 C.ar      1 <0>        -0.2226
      6 C6         -1.2610    3.1232    0.0304 C.ar      1 <0>        -0.0309
      7 C7         -0.0566    5.3171    0.0302 C.2       1 <0>         0.4215
      8 O1         -1.0946    5.9578    0.0436 O.2       1 <0>        -0.4677
      9 C8          1.2033    5.9588    0.0221 C.2       1 <0>        -0.3157
     10 C9          2.3382    5.2078    0.0077 C.2       1 <0>         0.2130
     11 O2          2.3158    3.8662    0.0007 O.3       1 <0>        -0.2208
     12 C10         3.6438    5.8956   -0.0011 C.ar      1 <0>        -0.0861
     13 C11         3.7011    7.2916    0.0001 C.ar      1 <0>        -0.0497
     14 C12         4.9235    7.9285   -0.0023 C.ar      1 <0>        -0.1546
     15 C13         6.0947    7.1866   -0.0179 C.ar      1 <0>         0.1272
     16 C14         6.0440    5.8010   -0.0245 C.ar      1 <0>        -0.1570
     17 C15         4.8274    5.1532   -0.0164 C.ar      1 <0>        -0.0485
     18 F1          7.2900    7.8162   -0.0264 F         1 <0>        -0.1302
     19 H1         -2.1505    1.1854    0.0187 H         1 <0>         0.1380
     20 H2          0.0021   -0.0041    0.0020 H         1 <0>         0.1426
     21 H3          2.1157    1.2420   -0.0115 H         1 <0>         0.1446
     22 H4         -2.2072    3.6437    0.0415 H         1 <0>         0.1433
     23 H5          1.2645    7.0371    0.0270 H         1 <0>         0.1628
     24 H6          2.7894    7.8705    0.0070 H         1 <0>         0.1472
     25 H7          4.9690    9.0075    0.0035 H         1 <0>         0.1484
     26 H8          6.9595    5.2282   -0.0363 H         1 <0>         0.1463
     27 H9          4.7891    4.0739   -0.0222 H         1 <0>         0.1462
@<TRIPOS>BOND
     1    1    6 ar
     2    1    2 ar
     3    1   19 1
     4    2    3 ar
     5    2   20 1
     6    3    4 ar
     7    3   21 1
     8    4   11 1
     9    4    5 ar
    10    5    6 ar
    11    5    7 1
    12    6   22 1
    13    7    8 2
    14    7    9 1
    15    9   10 2
    16    9   23 1
    17   10   11 1
    18   10   12 1
    19   12   17 ar
    20   12   13 ar
    21   13   14 ar
    22   13   24 1
    23   14   15 ar
    24   14   25 1
    25   15   16 ar
    26   15   18 1
    27   16   17 ar
    28   16   26 1
    29   17   27 1
@<TRIPOS>MOLECULE
ZINC00266028
   27    29     0     0     0
SMALL
USER_CHARGES
2-(3-fluorophenyl)chromen-4-one
@<TRIPOS>ATOM
      1 C1         -5.9892    7.4288    0.0989 C.ar      1 <0>        -0.1465
      2 C2         -4.7561    8.0645    0.0914 C.ar      1 <0>        -0.0557
      3 C3         -3.5876    7.3330    0.0767 C.ar      1 <0>        -0.1393
      4 C4         -3.6391    5.9443    0.0697 C.ar      1 <0>         0.1455
      5 C5         -4.8874    5.3024    0.0778 C.ar      1 <0>        -0.2230
      6 C6         -6.0618    6.0530    0.0922 C.ar      1 <0>        -0.0306
      7 C7         -4.9195    3.8262    0.0701 C.2       1 <0>         0.4215
      8 O1         -5.9749    3.2147    0.0761 O.2       1 <0>        -0.4659
      9 C8         -3.6774    3.1494    0.0486 C.2       1 <0>        -0.3086
     10 C9         -2.5226    3.8682    0.0474 C.2       1 <0>         0.2081
     11 O2         -2.5073    5.2098    0.0549 O.3       1 <0>        -0.2205
     12 C10        -1.2359    3.1439    0.0312 C.ar      1 <0>        -0.0431
     13 C11        -1.2173    1.7472    0.0173 C.ar      1 <0>        -0.0916
     14 C12        -0.0126    1.0758    0.0080 C.ar      1 <0>        -0.0889
     15 C13         1.1772    1.7820    0.0004 C.ar      1 <0>        -0.1288
     16 C14         1.1675    3.1676    0.0084 C.ar      1 <0>         0.0996
     17 C15        -0.0327    3.8522    0.0240 C.ar      1 <0>        -0.1170
     18 F1          2.3333    3.8503    0.0014 F         1 <0>        -0.1321
     19 H1         -6.8962    8.0151    0.1097 H         1 <0>         0.1383
     20 H2         -4.7110    9.1435    0.0968 H         1 <0>         0.1428
     21 H3         -2.6333    7.8386    0.0710 H         1 <0>         0.1448
     22 H4         -7.0223    5.5593    0.0976 H         1 <0>         0.1436
     23 H5         -3.6462    2.0699    0.0378 H         1 <0>         0.1644
     24 H6         -2.1448    1.1939    0.0184 H         1 <0>         0.1441
     25 H7          0.0021   -0.0041    0.0020 H         1 <0>         0.1464
     26 H8          2.1176    1.2509   -0.0114 H         1 <0>         0.1445
     27 H9         -0.0401    4.9321    0.0302 H         1 <0>         0.1480
@<TRIPOS>BOND
     1    1    6 ar
     2    1    2 ar
     3    1   19 1
     4    2    3 ar
     5    2   20 1
     6    3    4 ar
     7    3   21 1
     8    4   11 1
     9    4    5 ar
    10    5    6 ar
    11    5    7 1
    12    6   22 1
    13    7    8 2
    14    7    9 1
    15    9   10 2
    16    9   23 1
    17   10   11 1
    18   10   12 1
    19   12   17 ar
    20   12   13 ar
    21   13   14 ar
    22   13   24 1
    23   14   15 ar
    24   14   25 1
    25   15   16 ar
    26   15   26 1
    27   16   17 ar
    28   16   18 1
    29   17   27 1
@<TRIPOS>MOLECULE
ZINC00506748
   27    29     0     0     0
SMALL
USER_CHARGES
2-(3-bromophenyl)-6-chloro-chromen-4-one
@<TRIPOS>ATOM
      1 C1         -0.0126    1.0758    0.0080 C.ar      1 <0>        -0.1140
      2 C2          1.1737    1.7801    0.0004 C.ar      1 <0>        -0.0638
      3 C3          1.1534    3.1764    0.0081 C.ar      1 <0>        -0.0670
      4 C4         -0.0696    3.8508    0.0234 C.ar      1 <0>        -0.0532
      5 C5         -1.2488    3.1339    0.0308 C.ar      1 <0>        -0.0949
      6 C6         -1.2208    1.7494    0.0174 C.ar      1 <0>        -0.0642
      7 Br1        -2.9062    4.0441    0.0509 Br        1 <0>        -0.0314
      8 C7          2.4194    3.9365    0.0006 C.2       1 <0>         0.2106
      9 C8          2.3659    5.2957    0.0084 C.2       1 <0>        -0.3085
     10 C9          3.5686    6.0406    0.0019 C.2       1 <0>         0.4237
     11 O1          3.5592    7.2603    0.0089 O.2       1 <0>        -0.4587
     12 C10         4.8357    5.2827   -0.0133 C.ar      1 <0>        -0.2110
     13 C11         6.0688    5.9323   -0.0201 C.ar      1 <0>        -0.0204
     14 C12         7.2296    5.1882   -0.0339 C.ar      1 <0>        -0.0657
     15 C13         7.1713    3.8011   -0.0414 C.ar      1 <0>        -0.0473
     16 C14         5.9573    3.1482   -0.0347 C.ar      1 <0>        -0.1244
     17 C15         4.7761    3.8802   -0.0204 C.ar      1 <0>         0.1518
     18 O2          3.5778    3.2597   -0.0081 O.3       1 <0>        -0.2167
     19 Cl1         8.7699    5.9889   -0.0425 Cl        1 <0>        -0.0499
     20 H1          0.0021   -0.0041    0.0020 H         1 <0>         0.1439
     21 H2          2.1161    1.2527   -0.0111 H         1 <0>         0.1432
     22 H3         -0.0924    4.9305    0.0298 H         1 <0>         0.1463
     23 H4         -2.1465    1.1930    0.0187 H         1 <0>         0.1421
     24 H5          1.4123    5.8025    0.0198 H         1 <0>         0.1652
     25 H6          6.1149    7.0113   -0.0143 H         1 <0>         0.1545
     26 H7          8.0865    3.2277   -0.0529 H         1 <0>         0.1539
     27 H8          5.9240    2.0688   -0.0410 H         1 <0>         0.1557
@<TRIPOS>BOND
     1    1    6 ar
     2    1    2 ar
     3    1   20 1
     4    2    3 ar
     5    2   21 1
     6    3    4 ar
     7    3    8 1
     8    4    5 ar
     9    4   22 1
    10    5    6 ar
    11    5    7 1
    12    6   23 1
    13    8   18 1
    14    8    9 2
    15    9   10 1
    16    9   24 1
    17   10   11 2
    18   10   12 1
    19   12   17 ar
    20   12   13 ar
    21   13   14 ar
    22   13   25 1
    23   14   15 ar
    24   14   19 1
    25   15   16 ar
    26   15   26 1
    27   16   17 ar
    28   16   27 1
    29   17   18 1
@<TRIPOS>MOLECULE
ZINC00506642
   27    29     0     0     0
SMALL
USER_CHARGES
6-chloro-2-(4-fluorophenyl)-chromen-4-one
@<TRIPOS>ATOM
      1 C1          3.7739   -1.9511   -0.0396 C.ar      1 <0>        -0.0487
      2 C2          5.0007   -2.5791   -0.0595 C.ar      1 <0>        -0.1546
      3 C3          6.1666   -1.8287   -0.0667 C.ar      1 <0>         0.1287
      4 C4          6.1059   -0.4435   -0.0591 C.ar      1 <0>        -0.1570
      5 C5          4.8847    0.1954   -0.0440 C.ar      1 <0>        -0.0477
      6 C6          3.7065   -0.5555   -0.0368 C.ar      1 <0>        -0.0875
      7 C7          2.3960    0.1227   -0.0202 C.2       1 <0>         0.2139
      8 C8          1.2664   -0.6366   -0.0135 C.2       1 <0>        -0.3125
      9 C9          0.0021   -0.0041    0.0020 C.2       1 <0>         0.4235
     10 O1         -1.0313   -0.6524    0.0080 O.2       1 <0>        -0.4610
     11 C10        -0.0179    1.4724    0.0101 C.ar      1 <0>        -0.2111
     12 C11        -1.2182    2.1806    0.0311 C.ar      1 <0>        -0.0207
     13 C12        -1.1946    3.5593    0.0321 C.ar      1 <0>        -0.0658
     14 C13         0.0164    4.2382    0.0247 C.ar      1 <0>        -0.0476
     15 C14         1.2094    3.5478    0.0096 C.ar      1 <0>        -0.1247
     16 C15         1.2067    2.1582    0.0021 C.ar      1 <0>         0.1517
     17 O2          2.3640    1.4641   -0.0127 O.3       1 <0>        -0.2176
     18 Cl1        -2.6848    4.4496    0.0506 Cl        1 <0>        -0.0502
     19 F1          7.3664   -2.4496   -0.0815 F         1 <0>        -0.1297
     20 H1          2.8665   -2.5366   -0.0295 H         1 <0>         0.1476
     21 H2          5.0540   -3.6578   -0.0658 H         1 <0>         0.1488
     22 H3          7.0173    0.1360   -0.0647 H         1 <0>         0.1467
     23 H4          4.8386    1.2744   -0.0375 H         1 <0>         0.1465
     24 H5          1.3355   -1.7143   -0.0195 H         1 <0>         0.1656
     25 H6         -2.1606    1.6530    0.0415 H         1 <0>         0.1544
     26 H7          0.0238    5.3182    0.0304 H         1 <0>         0.1537
     27 H8          2.1455    4.0864    0.0039 H         1 <0>         0.1556
@<TRIPOS>BOND
     1    1    6 ar
     2    1    2 ar
     3    1   20 1
     4    2    3 ar
     5    2   21 1
     6    3    4 ar
     7    3   19 1
     8    4    5 ar
     9    4   22 1
    10    5    6 ar
    11    5   23 1
    12    6    7 1
    13    7   17 1
    14    7    8 2
    15    8    9 1
    16    8   24 1
    17    9   10 2
    18    9   11 1
    19   11   16 ar
    20   11   12 ar
    21   12   13 ar
    22   12   25 1
    23   13   14 ar
    24   13   18 1
    25   14   15 ar
    26   14   26 1
    27   15   16 ar
    28   15   27 1
    29   16   17 1
@<TRIPOS>MOLECULE
ZINC00521402
   27    29     0     0     0
SMALL
USER_CHARGES
6-fluoro-2-(4-fluorophenyl)-chromen-4-one
@<TRIPOS>ATOM
      1 C1          3.7738   -1.9512   -0.0396 C.ar      1 <0>        -0.0487
      2 C2          5.0006   -2.5792   -0.0600 C.ar      1 <0>        -0.1547
      3 C3          6.1665   -1.8288   -0.0666 C.ar      1 <0>         0.1287
      4 C4          6.1059   -0.4437   -0.0591 C.ar      1 <0>        -0.1571
      5 C5          4.8847    0.1953   -0.0440 C.ar      1 <0>        -0.0476
      6 C6          3.7064   -0.5556   -0.0368 C.ar      1 <0>        -0.0877
      7 C7          2.3959    0.1227   -0.0201 C.2       1 <0>         0.2154
      8 C8          1.2663   -0.6366   -0.0134 C.2       1 <0>        -0.3141
      9 C9          0.0021   -0.0041    0.0020 C.2       1 <0>         0.4230
     10 O1         -1.0313   -0.6524    0.0080 O.2       1 <0>        -0.4608
     11 C10        -0.0179    1.4724    0.0101 C.ar      1 <0>        -0.1948
     12 C11        -1.2185    2.1802    0.0311 C.ar      1 <0>        -0.0664
     13 C12        -1.1951    3.5599    0.0326 C.ar      1 <0>         0.0762
     14 C13         0.0169    4.2388    0.0247 C.ar      1 <0>        -0.0899
     15 C14         1.2096    3.5478    0.0096 C.ar      1 <0>        -0.1073
     16 C15         1.2066    2.1583    0.0021 C.ar      1 <0>         0.1370
     17 O2          2.3640    1.4640   -0.0126 O.3       1 <0>        -0.2170
     18 F1         -2.3548    4.2528    0.0474 F         1 <0>        -0.1289
     19 F2          7.3663   -2.4498   -0.0810 F         1 <0>        -0.1298
     20 H1          2.8663   -2.5367   -0.0295 H         1 <0>         0.1476
     21 H2          5.0538   -3.6579   -0.0666 H         1 <0>         0.1487
     22 H3          7.0173    0.1357   -0.0647 H         1 <0>         0.1467
     23 H4          4.8386    1.2743   -0.0374 H         1 <0>         0.1467
     24 H5          1.3353   -1.7144   -0.0195 H         1 <0>         0.1655
     25 H6         -2.1607    1.6524    0.0415 H         1 <0>         0.1565
     26 H7          0.0248    5.3188    0.0300 H         1 <0>         0.1562
     27 H8          2.1459    4.0861    0.0039 H         1 <0>         0.1565
@<TRIPOS>BOND
     1    1    6 ar
     2    1    2 ar
     3    1   20 1
     4    2    3 ar
     5    2   21 1
     6    3    4 ar
     7    3   19 1
     8    4    5 ar
     9    4   22 1
    10    5    6 ar
    11    5   23 1
    12    6    7 1
    13    7   17 1
    14    7    8 2
    15    8    9 1
    16    8   24 1
    17    9   10 2
    18    9   11 1
    19   11   16 ar
    20   11   12 ar
    21   12   13 ar
    22   12   25 1
    23   13   14 ar
    24   13   18 1
    25   14   15 ar
    26   14   26 1
    27   15   16 ar
    28   15   27 1
    29   16   17 1
@<TRIPOS>MOLECULE
ZINC02243272
   27    29     0     0     0
SMALL
USER_CHARGES
2-(3-bromophenyl)-6-fluoro-chromen-4-one
@<TRIPOS>ATOM
      1 C1         -0.0126    1.0758    0.0080 C.ar      1 <0>        -0.1142
      2 C2          1.1737    1.7801    0.0004 C.ar      1 <0>        -0.0636
      3 C3          1.1534    3.1764    0.0081 C.ar      1 <0>        -0.0671
      4 C4         -0.0696    3.8508    0.0234 C.ar      1 <0>        -0.0532
      5 C5         -1.2488    3.1339    0.0308 C.ar      1 <0>        -0.0950
      6 C6         -1.2208    1.7494    0.0174 C.ar      1 <0>        -0.0642
      7 Br1        -2.9062    4.0441    0.0515 Br        1 <0>        -0.0315
      8 C7          2.4194    3.9365    0.0006 C.2       1 <0>         0.2122
      9 C8          2.3660    5.2958    0.0084 C.2       1 <0>        -0.3101
     10 C9          3.5685    6.0406    0.0019 C.2       1 <0>         0.4232
     11 O1          3.5591    7.2604    0.0089 O.2       1 <0>        -0.4585
     12 C10         4.8357    5.2828   -0.0133 C.ar      1 <0>        -0.1946
     13 C11         6.0687    5.9327   -0.0201 C.ar      1 <0>        -0.0661
     14 C12         7.2303    5.1882   -0.0339 C.ar      1 <0>         0.0765
     15 C13         7.1716    3.8002   -0.0414 C.ar      1 <0>        -0.0896
     16 C14         5.9572    3.1481   -0.0352 C.ar      1 <0>        -0.1071
     17 C15         4.7763    3.8804   -0.0204 C.ar      1 <0>         0.1371
     18 O2          3.5778    3.2598   -0.0081 O.3       1 <0>        -0.2162
     19 F1          8.4291    5.8112   -0.0406 F         1 <0>        -0.1288
     20 H1          0.0021   -0.0041    0.0020 H         1 <0>         0.1439
     21 H2          2.1161    1.2527   -0.0111 H         1 <0>         0.1434
     22 H3         -0.0923    4.9305    0.0298 H         1 <0>         0.1464
     23 H4         -2.1465    1.1930    0.0184 H         1 <0>         0.1421
     24 H5          1.4123    5.8026    0.0198 H         1 <0>         0.1652
     25 H6          6.1145    7.0118   -0.0143 H         1 <0>         0.1567
     26 H7          8.0865    3.2264   -0.0525 H         1 <0>         0.1565
     27 H8          5.9235    2.0686   -0.0414 H         1 <0>         0.1567
@<TRIPOS>BOND
     1    1    6 ar
     2    1    2 ar
     3    1   20 1
     4    2    3 ar
     5    2   21 1
     6    3    4 ar
     7    3    8 1
     8    4    5 ar
     9    4   22 1
    10    5    6 ar
    11    5    7 1
    12    6   23 1
    13    8   18 1
    14    8    9 2
    15    9   10 1
    16    9   24 1
    17   10   11 2
    18   10   12 1
    19   12   17 ar
    20   12   13 ar
    21   13   14 ar
    22   13   25 1
    23   14   15 ar
    24   14   19 1
    25   15   16 ar
    26   15   26 1
    27   16   17 ar
    28   16   27 1
    29   17   18 1
@<TRIPOS>MOLECULE
ZINC00265291
   27    29     0     0     0
SMALL
USER_CHARGES
2-(3-bromophenyl)chromen-4-one
@<TRIPOS>ATOM
      1 C1         -5.9846    7.4329    0.0939 C.ar      1 <0>        -0.1465
      2 C2         -4.7509    8.0675    0.0864 C.ar      1 <0>        -0.0558
      3 C3         -3.5831    7.3351    0.0727 C.ar      1 <0>        -0.1391
      4 C4         -3.6357    5.9465    0.0663 C.ar      1 <0>         0.1455
      5 C5         -4.8845    5.3056    0.0738 C.ar      1 <0>        -0.2228
      6 C6         -6.0583    6.0571    0.0872 C.ar      1 <0>        -0.0307
      7 C7         -4.9178    3.8294    0.0667 C.2       1 <0>         0.4217
      8 O1         -5.9738    3.2188    0.0723 O.2       1 <0>        -0.4666
      9 C8         -3.6763    3.1516    0.0466 C.2       1 <0>        -0.3117
     10 C9         -2.5209    3.8694    0.0454 C.2       1 <0>         0.2104
     11 O2         -2.5045    5.2111    0.0524 O.3       1 <0>        -0.2206
     12 C10        -1.2348    3.1441    0.0298 C.ar      1 <0>        -0.0662
     13 C11        -1.2172    1.7474    0.0173 C.ar      1 <0>        -0.0660
     14 C12        -0.0126    1.0758    0.0080 C.ar      1 <0>        -0.1118
     15 C13         1.1773    1.7822    0.0004 C.ar      1 <0>        -0.0657
     16 C14         1.1678    3.1666    0.0079 C.ar      1 <0>        -0.0966
     17 C15        -0.0308    3.8513    0.0226 C.ar      1 <0>        -0.0521
     18 Br1         2.7999    4.1215   -0.0013 Br        1 <0>        -0.0350
     19 H1         -6.8911    8.0199    0.1046 H         1 <0>         0.1382
     20 H2         -4.7050    9.1466    0.0910 H         1 <0>         0.1428
     21 H3         -2.6284    7.8400    0.0674 H         1 <0>         0.1449
     22 H4         -7.0193    5.5643    0.0926 H         1 <0>         0.1435
     23 H5         -3.6460    2.0721    0.0361 H         1 <0>         0.1634
     24 H6         -2.1449    1.1945    0.0190 H         1 <0>         0.1439
     25 H7          0.0021   -0.0041    0.0020 H         1 <0>         0.1456
     26 H8          2.1177    1.2512   -0.0111 H         1 <0>         0.1418
     27 H9         -0.0373    4.9313    0.0281 H         1 <0>         0.1455
@<TRIPOS>BOND
     1    1    6 ar
     2    1    2 ar
     3    1   19 1
     4    2    3 ar
     5    2   20 1
     6    3    4 ar
     7    3   21 1
     8    4   11 1
     9    4    5 ar
    10    5    6 ar
    11    5    7 1
    12    6   22 1
    13    7    8 2
    14    7    9 1
    15    9   10 2
    16    9   23 1
    17   10   11 1
    18   10   12 1
    19   12   17 ar
    20   12   13 ar
    21   13   14 ar
    22   13   24 1
    23   14   15 ar
    24   14   25 1
    25   15   16 ar
    26   15   26 1
    27   16   17 ar
    28   16   18 1
    29   17   27 1
@<TRIPOS>MOLECULE
ZINC00033447
   27    29     0     0     0
SMALL
USER_CHARGES
6-chloro-2-(3-fluorophenyl)-chromen-4-one
@<TRIPOS>ATOM
      1 C1         -0.0126    1.0758    0.0080 C.ar      1 <0>        -0.0912
      2 C2          1.1738    1.7799    0.0004 C.ar      1 <0>        -0.0890
      3 C3          1.1545    3.1763    0.0076 C.ar      1 <0>        -0.0442
      4 C4         -0.0677    3.8517    0.0225 C.ar      1 <0>        -0.1183
      5 C5         -1.2486    3.1349    0.0299 C.ar      1 <0>         0.1025
      6 C6         -1.2207    1.7491    0.0173 C.ar      1 <0>        -0.1272
      7 F1         -2.4325    3.7857    0.0442 F         1 <0>        -0.1302
      8 C7          2.4212    3.9353    0.0001 C.2       1 <0>         0.2090
      9 C8          2.3688    5.2946    0.0074 C.2       1 <0>        -0.3061
     10 C9          3.5720    6.0384    0.0004 C.2       1 <0>         0.4233
     11 O1          3.5636    7.2582    0.0070 O.2       1 <0>        -0.4586
     12 C10         4.8385    5.2795   -0.0148 C.ar      1 <0>        -0.2112
     13 C11         6.0722    5.9281   -0.0221 C.ar      1 <0>        -0.0204
     14 C12         7.2323    5.1830   -0.0358 C.ar      1 <0>        -0.0657
     15 C13         7.1730    3.7960   -0.0423 C.ar      1 <0>        -0.0472
     16 C14         5.9584    3.1441   -0.0352 C.ar      1 <0>        -0.1242
     17 C15         4.7778    3.8771   -0.0213 C.ar      1 <0>         0.1519
     18 O2          3.5790    3.2576   -0.0082 O.3       1 <0>        -0.2158
     19 Cl1         8.7733    5.9825   -0.0455 Cl        1 <0>        -0.0499
     20 H1          0.0021   -0.0041    0.0020 H         1 <0>         0.1447
     21 H2          2.1160    1.2521   -0.0107 H         1 <0>         0.1434
     22 H3         -0.0896    4.9315    0.0285 H         1 <0>         0.1493
     23 H4         -2.1464    1.1927    0.0187 H         1 <0>         0.1448
     24 H5          1.4156    5.8022    0.0189 H         1 <0>         0.1657
     25 H6          6.1191    7.0071   -0.0166 H         1 <0>         0.1545
     26 H7          8.0877    3.2218   -0.0534 H         1 <0>         0.1540
     27 H8          5.9242    2.0647   -0.0407 H         1 <0>         0.1559
@<TRIPOS>BOND
     1    1    6 ar
     2    1    2 ar
     3    1   20 1
     4    2    3 ar
     5    2   21 1
     6    3    4 ar
     7    3    8 1
     8    4    5 ar
     9    4   22 1
    10    5    6 ar
    11    5    7 1
    12    6   23 1
    13    8   18 1
    14    8    9 2
    15    9   10 1
    16    9   24 1
    17   10   11 2
    18   10   12 1
    19   12   17 ar
    20   12   13 ar
    21   13   14 ar
    22   13   25 1
    23   14   15 ar
    24   14   19 1
    25   15   16 ar
    26   15   26 1
    27   16   17 ar
    28   16   27 1
    29   17   18 1
@<TRIPOS>MOLECULE
ZINC29549174
   29    31     0     0     0
SMALL
USER_CHARGES
6-fluoro-2-(3-nitrophenyl)chromen-4-one
@<TRIPOS>ATOM
      1 C1         -1.2218    1.7480    0.0174 C.ar      1 <0>        -0.1118
      2 C2         -1.2479    3.1272    0.0308 C.ar      1 <0>        -0.0332
      3 C3         -0.0501    3.8450    0.0227 C.ar      1 <0>        -0.0660
      4 C4          1.1671    3.1599    0.0074 C.ar      1 <0>        -0.0196
      5 C5          1.1783    1.7808    0.0004 C.ar      1 <0>        -0.0447
      6 C6         -0.0126    1.0758    0.0080 C.ar      1 <0>        -0.0328
      7 N1          2.4672    1.0530   -0.0158 N.pl3     1 <0>         0.0244
      8 O1          2.4787   -0.1649   -0.0225 O.2       1 <0>        -0.1480
      9 O2          3.5161    1.6721   -0.0225 O.3       1 <0>        -0.1499
     10 C7         -0.0701    5.3215    0.0309 C.2       1 <0>         0.2067
     11 C8         -1.2718    5.9590    0.0457 C.2       1 <0>        -0.3000
     12 C9         -1.3104    7.3730    0.0537 C.2       1 <0>         0.4234
     13 O3         -2.3694    7.9784    0.0675 O.2       1 <0>        -0.4547
     14 C10        -0.0180    8.0870    0.0452 C.ar      1 <0>        -0.1950
     15 C11         0.0406    9.4796    0.0527 C.ar      1 <0>        -0.0663
     16 C12         1.2684   10.1091    0.0448 C.ar      1 <0>         0.0790
     17 C13         2.4384    9.3601    0.0295 C.ar      1 <0>        -0.0880
     18 C14         2.3910    7.9825    0.0221 C.ar      1 <0>        -0.1051
     19 C15         1.1641    7.3302    0.0299 C.ar      1 <0>         0.1365
     20 O4          1.0975    5.9822    0.0287 O.3       1 <0>        -0.2168
     21 F1          1.3330   11.4585    0.0514 F         1 <0>        -0.1276
     22 H1         -2.1475    1.1916    0.0184 H         1 <0>         0.1618
     23 H2         -2.1925    3.6506    0.0426 H         1 <0>         0.1574
     24 H3          2.0971    3.7088    0.0015 H         1 <0>         0.1660
     25 H4          0.0021   -0.0041    0.0020 H         1 <0>         0.1630
     26 H5         -2.1895    5.3897    0.0518 H         1 <0>         0.1674
     27 H6         -0.8689   10.0620    0.0649 H         1 <0>         0.1575
     28 H7          3.3946    9.8622    0.0231 H         1 <0>         0.1579
     29 H8          3.3070    7.4105    0.0099 H         1 <0>         0.1586
@<TRIPOS>BOND
     1    1    6 ar
     2    1    2 ar
     3    1   22 1
     4    2    3 ar
     5    2   23 1
     6    3    4 ar
     7    3   10 1
     8    4    5 ar
     9    4   24 1
    10    5    6 ar
    11    5    7 1
    12    6   25 1
    13    7    8 2
    14    7    9 1
    15   10   20 1
    16   10   11 2
    17   11   12 1
    18   11   26 1
    19   12   13 2
    20   12   14 1
    21   14   19 ar
    22   14   15 ar
    23   15   16 ar
    24   15   27 1
    25   16   17 ar
    26   16   21 1
    27   17   18 ar
    28   17   28 1
    29   18   19 ar
    30   18   29 1
    31   19   20 1
@<TRIPOS>MOLECULE
ZINC29549422
   27    29     0     0     0
SMALL
USER_CHARGES
6-fluoro-2-(3-fluorophenyl)chromen-4-one
@<TRIPOS>ATOM
      1 C1         -0.0126    1.0758    0.0080 C.ar      1 <0>        -0.0913
      2 C2          1.1738    1.7799    0.0004 C.ar      1 <0>        -0.0889
      3 C3          1.1545    3.1763    0.0076 C.ar      1 <0>        -0.0444
      4 C4         -0.0677    3.8517    0.0225 C.ar      1 <0>        -0.1183
      5 C5         -1.2486    3.1349    0.0299 C.ar      1 <0>         0.1024
      6 C6         -1.2207    1.7491    0.0173 C.ar      1 <0>        -0.1272
      7 F1         -2.4325    3.7857    0.0442 F         1 <0>        -0.1302
      8 C7          2.4212    3.9353    0.0001 C.2       1 <0>         0.2104
      9 C8          2.3688    5.2946    0.0074 C.2       1 <0>        -0.3077
     10 C9          3.5720    6.0384    0.0009 C.2       1 <0>         0.4229
     11 O1          3.5635    7.2582    0.0075 O.2       1 <0>        -0.4584
     12 C10         4.8385    5.2796   -0.0138 C.ar      1 <0>        -0.1948
     13 C11         6.0721    5.9286   -0.0206 C.ar      1 <0>        -0.0661
     14 C12         7.2331    5.1831   -0.0339 C.ar      1 <0>         0.0765
     15 C13         7.1732    3.7951   -0.0409 C.ar      1 <0>        -0.0895
     16 C14         5.9583    3.1440   -0.0343 C.ar      1 <0>        -0.1069
     17 C15         4.7780    3.8773   -0.0204 C.ar      1 <0>         0.1373
     18 O2          3.5790    3.2576   -0.0082 O.3       1 <0>        -0.2153
     19 F2          8.4324    5.8051   -0.0406 F         1 <0>        -0.1287
     20 H1          0.0021   -0.0041    0.0020 H         1 <0>         0.1447
     21 H2          2.1160    1.2521   -0.0107 H         1 <0>         0.1436
     22 H3         -0.0896    4.9315    0.0285 H         1 <0>         0.1494
     23 H4         -2.1464    1.1927    0.0187 H         1 <0>         0.1447
     24 H5          1.4156    5.8022    0.0185 H         1 <0>         0.1657
     25 H6          6.1188    7.0075   -0.0152 H         1 <0>         0.1567
     26 H7          8.0876    3.2205   -0.0520 H         1 <0>         0.1565
     27 H8          5.9237    2.0646   -0.0402 H         1 <0>         0.1569
@<TRIPOS>BOND
     1    1    6 ar
     2    1    2 ar
     3    1   20 1
     4    2    3 ar
     5    2   21 1
     6    3    4 ar
     7    3    8 1
     8    4    5 ar
     9    4   22 1
    10    5    6 ar
    11    5    7 1
    12    6   23 1
    13    8   18 1
    14    8    9 2
    15    9   10 1
    16    9   24 1
    17   10   11 2
    18   10   12 1
    19   12   17 ar
    20   12   13 ar
    21   13   14 ar
    22   13   25 1
    23   14   15 ar
    24   14   19 1
    25   15   16 ar
    26   15   26 1
    27   16   17 ar
    28   16   27 1
    29   17   18 1
@<TRIPOS>MOLECULE
ZINC00521850
   27    29     0     0     0
SMALL
USER_CHARGES
6-bromo-2-(2-fluorophenyl)-chromen-4-one
@<TRIPOS>ATOM
      1 C1         -0.6186    7.7453   -0.8736 C.ar      1 <0>        -0.1296
      2 C2          0.1894    8.3983    0.0417 C.ar      1 <0>        -0.0638
      3 C3          0.9397    7.6763    0.9511 C.ar      1 <0>        -0.1555
      4 C4          0.8874    6.2946    0.9523 C.ar      1 <0>         0.1380
      5 C5          0.0724    5.6294    0.0301 C.ar      1 <0>        -0.1099
      6 C6         -0.6780    6.3681   -0.8883 C.ar      1 <0>        -0.0510
      7 C7          0.0103    4.1552    0.0233 C.2       1 <0>         0.2069
      8 C8         -1.2096    3.5517    0.0312 C.2       1 <0>        -0.2974
      9 C9         -1.2885    2.1401    0.0197 C.2       1 <0>         0.4239
     10 O1         -2.3643    1.5650    0.0220 O.2       1 <0>        -0.4592
     11 C10        -0.0168    1.3896    0.0097 C.ar      1 <0>        -0.2193
     12 C11         0.0021   -0.0041    0.0020 C.ar      1 <0>         0.0007
     13 C12         1.2104   -0.6679   -0.0131 C.ar      1 <0>        -0.1243
     14 C13         2.4007    0.0461   -0.0201 C.ar      1 <0>        -0.0285
     15 C14         2.3940    1.4246   -0.0122 C.ar      1 <0>        -0.1307
     16 C15         1.1865    2.1122    0.0021 C.ar      1 <0>         0.1627
     17 O2          1.1587    3.4613    0.0091 O.3       1 <0>        -0.2123
     18 Br1         1.2461   -2.5585   -0.0236 Br        1 <0>        -0.0294
     19 F1          1.6211    5.5893    1.8408 F         1 <0>        -0.1249
     20 H1         -1.2014    8.3167   -1.5809 H         1 <0>         0.1425
     21 H2          0.2339    9.4773    0.0451 H         1 <0>         0.1424
     22 H3          1.5682    8.1925    1.6617 H         1 <0>         0.1462
     23 H4         -1.3059    5.8612   -1.6061 H         1 <0>         0.1444
     24 H5         -2.1108    4.1467    0.0424 H         1 <0>         0.1659
     25 H6         -0.9237   -0.5603    0.0075 H         1 <0>         0.1539
     26 H7          3.3417   -0.4838   -0.0316 H         1 <0>         0.1530
     27 H8          3.3263    1.9697   -0.0171 H         1 <0>         0.1551
@<TRIPOS>BOND
     1    1    6 ar
     2    1    2 ar
     3    1   20 1
     4    2    3 ar
     5    2   21 1
     6    3    4 ar
     7    3   22 1
     8    4    5 ar
     9    4   19 1
    10    5    6 ar
    11    5    7 1
    12    6   23 1
    13    7   17 1
    14    7    8 2
    15    8    9 1
    16    8   24 1
    17    9   10 2
    18    9   11 1
    19   11   16 ar
    20   11   12 ar
    21   12   13 ar
    22   12   25 1
    23   13   14 ar
    24   13   18 1
    25   14   15 ar
    26   14   26 1
    27   15   16 ar
    28   15   27 1
    29   16   17 1
@<TRIPOS>MOLECULE
ZINC00521892
   27    29     0     0     0
SMALL
USER_CHARGES
6-chloro-2-(2-fluorophenyl)-chromen-4-one
@<TRIPOS>ATOM
      1 C1         -0.6200    7.7450   -0.8752 C.ar      1 <0>        -0.1297
      2 C2          0.1881    8.3983    0.0398 C.ar      1 <0>        -0.0640
      3 C3          0.9387    7.6767    0.9492 C.ar      1 <0>        -0.1555
      4 C4          0.8868    6.2951    0.9506 C.ar      1 <0>         0.1380
      5 C5          0.0721    5.6294    0.0285 C.ar      1 <0>        -0.1098
      6 C6         -0.6781    6.3677   -0.8904 C.ar      1 <0>        -0.0511
      7 C7          0.0102    4.1553    0.0222 C.2       1 <0>         0.2077
      8 C8         -1.2097    3.5516    0.0301 C.2       1 <0>        -0.2987
      9 C9         -1.2885    2.1401    0.0197 C.2       1 <0>         0.4239
     10 O1         -2.3643    1.5649    0.0220 O.2       1 <0>        -0.4596
     11 C10        -0.0168    1.3896    0.0097 C.ar      1 <0>        -0.2124
     12 C11         0.0021   -0.0041    0.0020 C.ar      1 <0>        -0.0204
     13 C12         1.2106   -0.6679   -0.0131 C.ar      1 <0>        -0.0662
     14 C13         2.4010    0.0463   -0.0206 C.ar      1 <0>        -0.0469
     15 C14         2.3940    1.4248   -0.0131 C.ar      1 <0>        -0.1241
     16 C15         1.1864    2.1122    0.0021 C.ar      1 <0>         0.1519
     17 O2          1.1586    3.4615    0.0086 O.3       1 <0>        -0.2122
     18 Cl1         1.2436   -2.4036   -0.0221 Cl        1 <0>        -0.0506
     19 F1          1.6208    5.5902    1.8392 F         1 <0>        -0.1250
     20 H1         -1.2029    8.3161   -1.5826 H         1 <0>         0.1424
     21 H2          0.2326    9.4774    0.0428 H         1 <0>         0.1423
     22 H3          1.5670    8.1932    1.6598 H         1 <0>         0.1462
     23 H4         -1.3058    5.8605   -1.6081 H         1 <0>         0.1444
     24 H5         -2.1110    4.1466    0.0408 H         1 <0>         0.1657
     25 H6         -0.9237   -0.5603    0.0075 H         1 <0>         0.1545
     26 H7          3.3422   -0.4834   -0.0320 H         1 <0>         0.1538
     27 H8          3.3262    1.9701   -0.0187 H         1 <0>         0.1554
@<TRIPOS>BOND
     1    1    6 ar
     2    1    2 ar
     3    1   20 1
     4    2    3 ar
     5    2   21 1
     6    3    4 ar
     7    3   22 1
     8    4    5 ar
     9    4   19 1
    10    5    6 ar
    11    5    7 1
    12    6   23 1
    13    7   17 1
    14    7    8 2
    15    8    9 1
    16    8   24 1
    17    9   10 2
    18    9   11 1
    19   11   16 ar
    20   11   12 ar
    21   12   13 ar
    22   12   25 1
    23   13   14 ar
    24   13   18 1
    25   14   15 ar
    26   14   26 1
    27   15   16 ar
    28   15   27 1
    29   16   17 1
@<TRIPOS>MOLECULE
ZINC06583548
   27    29     0     0     0
SMALL
USER_CHARGES
2-(3-chlorophenyl)chromen-4-one
@<TRIPOS>ATOM
      1 C1         -5.9855    7.4321    0.0939 C.ar      1 <0>        -0.1466
      2 C2         -4.7520    8.0669    0.0860 C.ar      1 <0>        -0.0558
      3 C3         -3.5840    7.3347    0.0724 C.ar      1 <0>        -0.1392
      4 C4         -3.6364    5.9460    0.0663 C.ar      1 <0>         0.1456
      5 C5         -4.8851    5.3049    0.0743 C.ar      1 <0>        -0.2229
      6 C6         -6.0590    6.0563    0.0881 C.ar      1 <0>        -0.0307
      7 C7         -4.9182    3.8288    0.0677 C.2       1 <0>         0.4217
      8 O1         -5.9740    3.2180    0.0741 O.2       1 <0>        -0.4665
      9 C8         -3.6765    3.1511    0.0475 C.2       1 <0>        -0.3111
     10 C9         -2.5212    3.8692    0.0459 C.2       1 <0>         0.2100
     11 O2         -2.5051    5.2108    0.0525 O.3       1 <0>        -0.2205
     12 C10        -1.2350    3.1440    0.0303 C.ar      1 <0>        -0.0597
     13 C11        -1.2172    1.7473    0.0173 C.ar      1 <0>        -0.0767
     14 C12        -0.0126    1.0758    0.0080 C.ar      1 <0>        -0.1054
     15 C13         1.1773    1.7822    0.0004 C.ar      1 <0>        -0.0851
     16 C14         1.1677    3.1668    0.0075 C.ar      1 <0>        -0.0397
     17 C15        -0.0312    3.8515    0.0226 C.ar      1 <0>        -0.0723
     18 Cl1         2.6660    4.0436   -0.0021 Cl        1 <0>        -0.0558
     19 H1         -6.8921    8.0189    0.1043 H         1 <0>         0.1382
     20 H2         -4.7062    9.1459    0.0903 H         1 <0>         0.1428
     21 H3         -2.6294    7.8397    0.0667 H         1 <0>         0.1448
     22 H4         -7.0199    5.5633    0.0939 H         1 <0>         0.1435
     23 H5         -3.6461    2.0716    0.0378 H         1 <0>         0.1636
     24 H6         -2.1449    1.1944    0.0187 H         1 <0>         0.1436
     25 H7          0.0021   -0.0041    0.0020 H         1 <0>         0.1457
     26 H8          2.1177    1.2512   -0.0107 H         1 <0>         0.1424
     27 H9         -0.0379    4.9314    0.0281 H         1 <0>         0.1461
@<TRIPOS>BOND
     1    1    6 ar
     2    1    2 ar
     3    1   19 1
     4    2    3 ar
     5    2   20 1
     6    3    4 ar
     7    3   21 1
     8    4   11 1
     9    4    5 ar
    10    5    6 ar
    11    5    7 1
    12    6   22 1
    13    7    8 2
    14    7    9 1
    15    9   10 2
    16    9   23 1
    17   10   11 1
    18   10   12 1
    19   12   17 ar
    20   12   13 ar
    21   13   14 ar
    22   13   24 1
    23   14   15 ar
    24   14   25 1
    25   15   16 ar
    26   15   26 1
    27   16   17 ar
    28   16   18 1
    29   17   27 1
@<TRIPOS>MOLECULE
ZINC29559153
   28    30     0     0     0
SMALL
USER_CHARGES
6-bromo-2-(3-hydroxyphenyl)chromen-4-one
@<TRIPOS>ATOM
      1 C1         -1.2207    1.7481    0.0173 C.ar      1 <0>        -0.0785
      2 C2         -1.2476    3.1276    0.0298 C.ar      1 <0>        -0.1229
      3 C3         -0.0515    3.8485    0.0223 C.ar      1 <0>        -0.0328
      4 C4          1.1674    3.1680    0.0075 C.ar      1 <0>        -0.1248
      5 C5          1.1821    1.7838    0.0004 C.ar      1 <0>         0.1559
      6 C6         -0.0126    1.0758    0.0080 C.ar      1 <0>        -0.1884
      7 O1          2.3665    1.1173   -0.0145 O.3       1 <0>        -0.5070
      8 C7         -0.0760    5.3250    0.0305 C.2       1 <0>         0.2112
      9 C8         -1.2794    5.9589    0.0449 C.2       1 <0>        -0.3076
     10 C9         -1.3224    7.3728    0.0529 C.2       1 <0>         0.4238
     11 O2         -2.3831    7.9751    0.0663 O.2       1 <0>        -0.4610
     12 C10        -0.0321    8.0906    0.0450 C.ar      1 <0>        -0.2187
     13 C11         0.0228    9.4833    0.0524 C.ar      1 <0>         0.0005
     14 C12         1.2478   10.1158    0.0451 C.ar      1 <0>        -0.1245
     15 C13         2.4194    9.3714    0.0303 C.ar      1 <0>        -0.0290
     16 C14         2.3771    7.9936    0.0223 C.ar      1 <0>        -0.1316
     17 C15         1.1523    7.3372    0.0300 C.ar      1 <0>         0.1630
     18 O3          1.0898    5.9893    0.0288 O.3       1 <0>        -0.2163
     19 Br1         1.3323   12.0048    0.0545 Br        1 <0>        -0.0298
     20 H1         -2.1463    1.1916    0.0191 H         1 <0>         0.1372
     21 H2         -2.1930    3.6495    0.0413 H         1 <0>         0.1379
     22 H3          2.0958    3.7197    0.0019 H         1 <0>         0.1408
     23 H4          0.0021   -0.0041    0.0020 H         1 <0>         0.1347
     24 H5          2.3786    0.0174   -0.0201 H         1 <0>         0.4392
     25 H6         -2.1955    5.3868    0.0506 H         1 <0>         0.1671
     26 H7         -0.8883   10.0632    0.0643 H         1 <0>         0.1537
     27 H8          3.3738    9.8770    0.0246 H         1 <0>         0.1528
     28 H9          3.2951    7.4248    0.0101 H         1 <0>         0.1553
@<TRIPOS>BOND
     1    1    6 ar
     2    1    2 ar
     3    1   20 1
     4    2    3 ar
     5    2   21 1
     6    3    4 ar
     7    3    8 1
     8    4    5 ar
     9    4   22 1
    10    5    6 ar
    11    5    7 1
    12    6   23 1
    13    7   24 1
    14    8   18 1
    15    8    9 2
    16    9   10 1
    17    9   25 1
    18   10   11 2
    19   10   12 1
    20   12   17 ar
    21   12   13 ar
    22   13   14 ar
    23   13   26 1
    24   14   15 ar
    25   14   19 1
    26   15   16 ar
    27   15   27 1
    28   16   17 ar
    29   16   28 1
    30   17   18 1
