@<TRIPOS>MOLECULE
ZINC06507046
   30    32     0     0     0
SMALL
USER_CHARGES

@<TRIPOS>ATOM
      1 C1         -0.0187    1.5258    0.0104 C.3       1 <0>        -0.1516
      2 C2          0.0021   -0.0041    0.0020 C.3       1 <0>         0.0576
      3 O1          0.6932   -0.4774    1.1597 O.3       1 <0>        -0.3290
      4 C3          0.8010   -1.8125    1.3044 C.2       1 <0>         0.5310
      5 O2          0.3215   -2.5545    0.4707 O.2       1 <0>        -0.5021
      6 C4          1.5026   -2.3743    2.4772 C.ar      1 <0>         0.0402
      7 C5          1.6143   -3.7553    2.6160 C.ar      1 <0>        -0.0333
      8 C6          2.2792   -4.2624    3.7284 C.ar      1 <0>        -0.0831
      9 C7          2.5953   -5.6144    4.2150 C.ar      1 <0>        -0.1038
     10 C8          2.3393   -6.8954    3.7304 C.ar      1 <0>        -0.0556
     11 C9          2.7783   -7.9949    4.4350 C.ar      1 <0>        -0.1428
     12 C10         3.4736   -7.8308    5.6237 C.ar      1 <0>        -0.0754
     13 C11         3.7339   -6.5702    6.1150 C.ar      1 <0>        -0.1379
     14 C12         3.2989   -5.4466    5.4180 C.ar      1 <0>         0.1403
     15 N1          3.4169   -4.0919    5.6699 N.pl3     1 <0>        -0.5953
     16 C13         2.8128   -3.3630    4.6699 C.ar      1 <0>         0.1173
     17 C14         2.6538   -1.9943    4.4511 C.ar      1 <0>         0.0980
     18 N2          2.0253   -1.5542    3.3864 N.ar      1 <0>        -0.4039
     19 H1          1.0039    1.9031    0.0027 H         1 <0>         0.0677
     20 H2         -0.5459    1.8868   -0.8726 H         1 <0>         0.0803
     21 H3         -0.5289    1.8773    0.9072 H         1 <0>         0.0677
     22 H4         -1.0205   -0.3814    0.0098 H         1 <0>         0.0690
     23 H5          0.5123   -0.3556   -0.8948 H         1 <0>         0.0690
     24 H6          1.1933   -4.4194    1.8756 H         1 <0>         0.1539
     25 H7          1.7978   -7.0261    2.8052 H         1 <0>         0.1310
     26 H8          2.5801   -8.9882    4.0604 H         1 <0>         0.1325
     27 H9          3.8135   -8.6987    6.1693 H         1 <0>         0.1343
     28 H10         4.2762   -6.4537    7.0417 H         1 <0>         0.1294
     29 H11         3.0568   -1.2892    5.1630 H         1 <0>         0.1699
     30 H12         3.8619   -3.7092    6.4422 H         1 <0>         0.4248
@<TRIPOS>BOND
     1    1    2 1
     2    1   19 1
     3    1   20 1
     4    1   21 1
     5    2    3 1
     6    2   22 1
     7    2   23 1
     8    3    4 1
     9    4    5 2
    10    4    6 1
    11    6   18 ar
    12    6    7 ar
    13    7    8 ar
    14    7   24 1
    15    8   16 ar
    16    8    9 1
    17    9   14 ar
    18    9   10 ar
    19   10   11 ar
    20   10   25 1
    21   11   12 ar
    22   11   26 1
    23   12   13 ar
    24   12   27 1
    25   13   14 ar
    26   13   28 1
    27   14   15 1
    28   15   16 1
    29   15   30 1
    30   16   17 ar
    31   17   18 ar
    32   17   29 1
@<TRIPOS>MOLECULE
ZINC06507046
   31    33     0     0     0
SMALL
USER_CHARGES

@<TRIPOS>ATOM
      1 C1         -0.0187    1.5258    0.0104 C.3       1 <0>        -0.1574
      2 C2          0.0021   -0.0041    0.0020 C.3       1 <0>         0.0635
      3 O1          0.6709   -0.4649   -1.1737 O.3       1 <0>        -0.3539
      4 C3          0.7758   -1.7984   -1.3347 C.2       1 <0>         0.5063
      5 O2          0.3122   -2.5493   -0.5000 O.2       1 <0>        -0.4447
      6 C4          1.4548   -2.3474   -2.5266 C.ar      1 <0>         0.0584
      7 C5          1.5538   -3.7270   -2.6880 C.ar      1 <0>         0.0150
      8 C6          2.1974   -4.2220   -3.8182 C.ar      1 <0>        -0.0128
      9 C7          2.4947   -5.5688   -4.3305 C.ar      1 <0>        -0.1156
     10 C8          2.2352   -6.8550   -3.8620 C.ar      1 <0>        -0.0440
     11 C9          2.6535   -7.9469   -4.5907 C.ar      1 <0>        -0.1219
     12 C10         3.3312   -7.7700   -5.7877 C.ar      1 <0>        -0.0454
     13 C11         3.5947   -6.5040   -6.2632 C.ar      1 <0>        -0.1296
     14 C12         3.1805   -5.3879   -5.5419 C.ar      1 <0>         0.1539
     15 N1          3.3056   -4.0304   -5.7748 N.pl3     1 <0>        -0.5653
     16 C13         2.7234   -3.3124   -4.7542 C.ar      1 <0>         0.1319
     17 C14         2.5790   -1.9460   -4.5119 C.ar      1 <0>         0.1494
     18 N2          1.9602   -1.5175   -3.4368 N.ar      1 <0>        -0.3940
     19 H1          1.0039    1.9031    0.0027 H         1 <0>         0.0711
     20 H2         -0.5459    1.8868   -0.8726 H         1 <0>         0.0710
     21 H3         -0.5289    1.8773    0.9072 H         1 <0>         0.0933
     22 H4          0.5293   -0.3651    0.8851 H         1 <0>         0.0826
     23 H5         -1.0205   -0.3814    0.0098 H         1 <0>         0.0826
     24 H6          1.1398   -4.3991   -1.9509 H         1 <0>         0.1968
     25 H7          1.7080   -6.9958   -2.9300 H         1 <0>         0.1443
     26 H8          2.4532   -8.9444   -4.2283 H         1 <0>         0.1478
     27 H9          3.6554   -8.6320   -6.3518 H         1 <0>         0.1500
     28 H10         4.1232   -6.3775   -7.1965 H         1 <0>         0.1440
     29 H11         2.9763   -1.2332   -5.2193 H         1 <0>         0.2207
     30 H12         3.7422   -3.6394   -6.5476 H         1 <0>         0.4401
     31 H13         1.8718   -0.5616   -3.2980 H         1 <0>         0.4618
@<TRIPOS>BOND
     1    1    2 1
     2    1   19 1
     3    1   20 1
     4    1   21 1
     5    2    3 1
     6    2   22 1
     7    2   23 1
     8    3    4 1
     9    4    5 2
    10    4    6 1
    11    6   18 ar
    12    6    7 ar
    13    7    8 ar
    14    7   24 1
    15    8   16 ar
    16    8    9 1
    17    9   14 ar
    18    9   10 ar
    19   10   11 ar
    20   10   25 1
    21   11   12 ar
    22   11   26 1
    23   12   13 ar
    24   12   27 1
    25   13   14 ar
    26   13   28 1
    27   14   15 1
    28   15   16 1
    29   15   30 1
    30   16   17 ar
    31   17   18 ar
    32   17   29 1
    33   18   31 1
@<TRIPOS>MOLECULE
ZINC00006427
   33    35     0     0     0
SMALL
USER_CHARGES

@<TRIPOS>ATOM
      1 C1          0.5645    1.4220    0.1928 C.3       1 <0>         0.0583
      2 N1          0.3235   -0.0204    0.1049 N.am      1 <0>        -0.5555
      3 C2         -0.9927   -0.4531    0.1626 C.ar      1 <0>         0.1844
      4 C3         -1.9457    0.2992   -0.5272 C.ar      1 <0>        -0.1319
      5 C4         -3.2733   -0.0670   -0.5149 C.ar      1 <0>        -0.0651
      6 C5         -3.6777   -1.1917    0.1872 C.ar      1 <0>        -0.0514
      7 C6         -2.7519   -1.9453    0.8726 C.ar      1 <0>        -0.0516
      8 C7         -1.3954   -1.5853    0.8674 C.ar      1 <0>        -0.1200
      9 C8         -0.4607   -2.4388    1.6175 C.2       1 <0>         0.2679
     10 N2          0.7150   -2.7715    1.2168 N.2       1 <0>        -0.4888
     11 C9          1.2537   -2.3110   -0.0624 C.3       1 <0>         0.0242
     12 C10         1.3847   -0.8126   -0.0296 C.2       1 <0>         0.5094
     13 O1          2.4861   -0.3137   -0.1239 O.2       1 <0>        -0.5107
     14 C11        -0.9076   -2.9538    2.9327 C.ar      1 <0>        -0.0709
     15 C12        -0.3330   -4.1079    3.4647 C.ar      1 <0>        -0.0682
     16 C13        -0.7535   -4.5827    4.6901 C.ar      1 <0>        -0.1263
     17 C14        -1.7429   -3.9163    5.3909 C.ar      1 <0>        -0.0986
     18 C15        -2.3166   -2.7710    4.8684 C.ar      1 <0>        -0.1241
     19 C16        -1.9005   -2.2832    3.6466 C.ar      1 <0>        -0.0904
     20 Cl1        -5.3522   -1.6496    0.2025 Cl        1 <0>        -0.0531
     21 H1          1.6353    1.6160    0.1296 H         1 <0>         0.1025
     22 H2          0.0549    1.9262   -0.6283 H         1 <0>         0.0740
     23 H3          0.1827    1.7970    1.1424 H         1 <0>         0.0729
     24 H4         -1.6385    1.1774   -1.0758 H         1 <0>         0.1452
     25 H5         -4.0004    0.5233   -1.0528 H         1 <0>         0.1468
     26 H6         -3.0719   -2.8206    1.4183 H         1 <0>         0.1484
     27 H7          2.2331   -2.7595   -0.2287 H         1 <0>         0.1343
     28 H8          0.5774   -2.5976   -0.8678 H         1 <0>         0.0942
     29 H9          0.4392   -4.6292    2.9184 H         1 <0>         0.1347
     30 H10        -0.3096   -5.4765    5.1029 H         1 <0>         0.1285
     31 H11        -2.0690   -4.2920    6.3495 H         1 <0>         0.1264
     32 H12        -3.0889   -2.2553    5.4199 H         1 <0>         0.1284
     33 H13        -2.3460   -1.3865    3.2417 H         1 <0>         0.1261
@<TRIPOS>BOND
     1    1    2 1
     2    1   21 1
     3    1   22 1
     4    1   23 1
     5    2   12 am
     6    2    3 1
     7    3    8 ar
     8    3    4 ar
     9    4    5 ar
    10    4   24 1
    11    5    6 ar
    12    5   25 1
    13    6    7 ar
    14    6   20 1
    15    7    8 ar
    16    7   26 1
    17    8    9 1
    18    9   10 2
    19    9   14 1
    20   10   11 1
    21   11   12 1
    22   11   27 1
    23   11   28 1
    24   12   13 2
    25   14   19 ar
    26   14   15 ar
    27   15   16 ar
    28   15   29 1
    29   16   17 ar
    30   16   30 1
    31   17   18 ar
    32   17   31 1
    33   18   19 ar
    34   18   32 1
    35   19   33 1
@<TRIPOS>MOLECULE
ZINC02568376
   29    31     0     0     0
SMALL
USER_CHARGES

@<TRIPOS>ATOM
      1 C1         -0.0184    1.5028    0.0103 C.3       1 <0>        -0.0680
      2 C2          0.0021   -0.0041    0.0020 C.2       1 <0>         0.2116
      3 N1          0.0082   -0.7712   -1.0596 N.2       1 <0>        -0.2559
      4 N2          0.0264   -2.0109   -0.7129 N.2       1 <0>        -0.2444
      5 C3          0.0329   -2.0951    0.6074 C.2       1 <0>         0.1283
      6 N3          0.0233   -0.8071    1.0882 N.pl3     1 <0>        -0.2969
      7 N4          0.0332   -0.5736    2.4648 N.2       1 <0>        -0.2511
      8 C4          0.0550   -1.5791    3.3114 C.2       1 <0>         0.2153
      9 C5          0.0688   -2.9122    2.8491 C.2       1 <0>        -0.1624
     10 C6          0.0512   -3.1712    1.5149 C.2       1 <0>         0.0100
     11 C7          0.0657   -1.3091    4.7702 C.ar      1 <0>        -0.0577
     12 C8          0.0946   -2.3669    5.6772 C.ar      1 <0>        -0.0512
     13 C9          0.1049   -2.1099    7.0329 C.ar      1 <0>        -0.1182
     14 C10         0.0861   -0.8051    7.4924 C.ar      1 <0>        -0.0466
     15 C11         0.0575    0.2485    6.5969 C.ar      1 <0>        -0.1854
     16 C12         0.0527    0.0032    5.2385 C.ar      1 <0>        -0.0242
     17 C13         0.0372    1.6671    7.1050 C.3       1 <0>         0.5096
     18 F1          0.0523    1.6616    8.5039 F         1 <0>        -0.1740
     19 F2          1.1623    2.3490    6.6292 F         1 <0>        -0.1732
     20 F3         -1.1218    2.3076    6.6537 F         1 <0>        -0.1732
     21 H1          1.0042    1.8801    0.0026 H         1 <0>         0.0920
     22 H2         -0.5455    1.8639   -0.8728 H         1 <0>         0.1014
     23 H3         -0.5286    1.8543    0.9071 H         1 <0>         0.0862
     24 H4          0.0870   -3.7281    3.5565 H         1 <0>         0.1658
     25 H5          0.0633   -4.1895    1.1554 H         1 <0>         0.1743
     26 H6          0.1085   -3.3859    5.3196 H         1 <0>         0.1453
     27 H7          0.1273   -2.9288    7.7366 H         1 <0>         0.1484
     28 H8          0.0936   -0.6085    8.5543 H         1 <0>         0.1475
     29 H9          0.0344    0.8267    4.5400 H         1 <0>         0.1467
@<TRIPOS>BOND
     1    1    2 1
     2    1   21 1
     3    1   22 1
     4    1   23 1
     5    2    6 1
     6    2    3 2
     7    3    4 1
     8    4    5 2
     9    5   10 1
    10    5    6 1
    11    6    7 1
    12    7    8 2
    13    8    9 1
    14    8   11 1
    15    9   10 2
    16    9   24 1
    17   10   25 1
    18   11   16 ar
    19   11   12 ar
    20   12   13 ar
    21   12   26 1
    22   13   14 ar
    23   13   27 1
    24   14   15 ar
    25   14   28 1
    26   15   16 ar
    27   15   17 1
    28   16   29 1
    29   17   18 1
    30   17   19 1
    31   17   20 1
@<TRIPOS>MOLECULE
ZINC04081043
   57    60     0     0     0
SMALL
USER_CHARGES

@<TRIPOS>ATOM
      1 C1          0.4305    0.7603    1.2524 C.3       1 <0>        -0.2078
      2 C2          0.0078   -0.0015    0.0228 C.2       1 <0>         0.3650
      3 O1          0.7078    0.0040   -0.9612 O.2       1 <0>        -0.4549
      4 C3         -1.2884   -0.7702    0.0211 C.3       1 <0>        -0.1328
      5 H1         -2.0398   -0.2439    0.6097 H         1 <0>         0.0964
      6 C4         -1.7897   -0.9743   -1.4305 C.3       1 <0>        -0.1183
      7 C5         -1.9272   -2.5079   -1.6347 C.3       1 <0>        -0.1149
      8 C6         -2.1072   -3.0295   -0.2052 C.3       1 <0>        -0.0793
      9 H2         -3.1163   -2.8214    0.1505 H         1 <0>         0.0755
     10 C7         -1.0709   -2.1744    0.5756 C.3       1 <0>        -0.0481
     11 C8         -1.3419   -2.3680    2.0548 C.3       1 <0>        -0.1049
     12 C9         -1.0702   -3.8465    2.3805 C.3       1 <0>        -0.1183
     13 C10        -1.9287   -4.7704    1.5236 C.3       1 <0>        -0.0686
     14 H3         -2.9773   -4.6095    1.7739 H         1 <0>         0.0643
     15 C11        -1.7608   -4.4900    0.0161 C.3       1 <0>        -0.0751
     16 H4         -0.7249   -4.6704   -0.2710 H         1 <0>         0.0813
     17 C12        -2.7044   -5.3875   -0.7856 C.3       1 <0>        -0.1105
     18 C13        -2.3711   -6.8547   -0.5068 C.3       1 <0>        -0.1180
     19 C14        -2.5419   -7.1428    0.9861 C.3       1 <0>        -0.0667
     20 H5         -3.5728   -6.9432    1.2785 H         1 <0>         0.0777
     21 C15        -1.5715   -6.2298    1.8074 C.3       1 <0>        -0.0444
     22 C16        -1.7484   -6.5168    3.2999 C.3       1 <0>        -0.1052
     23 C17        -1.3974   -7.9783    3.5846 C.3       1 <0>        -0.1524
     24 C18        -2.3218   -8.8919    2.7772 C.3       1 <0>         0.1043
     25 H6         -2.0717   -9.9332    2.9803 H         1 <0>         0.0509
     26 C19        -2.2082   -8.6094    1.2649 C.3       1 <0>        -0.1077
     27 O2         -3.6792   -8.6463    3.1503 O.3       1 <0>        -0.5640
     28 C20        -0.1178   -6.4871    1.4054 C.3       1 <0>        -0.1503
     29 C21         0.3454   -2.6483    0.2431 C.3       1 <0>        -0.1561
     30 H7          1.3866    1.2494    1.0660 H         1 <0>         0.0806
     31 H8         -0.3219    1.5122    1.4904 H         1 <0>         0.0915
     32 H9          0.5324    0.0704    2.0901 H         1 <0>         0.0917
     33 H10        -2.7575   -0.4909   -1.5635 H         1 <0>         0.0668
     34 H11        -1.0668   -0.5662   -2.1368 H         1 <0>         0.0782
     35 H12        -2.8019   -2.7391   -2.2426 H         1 <0>         0.0666
     36 H13        -1.0238   -2.9196   -2.0846 H         1 <0>         0.0687
     37 H14        -0.6781   -1.7314    2.6398 H         1 <0>         0.0628
     38 H15        -2.3810   -2.1244    2.2763 H         1 <0>         0.0664
     39 H16        -0.0182   -4.0648    2.1968 H         1 <0>         0.0686
     40 H17        -1.2924   -4.0268    3.4323 H         1 <0>         0.0640
     41 H18        -3.7345   -5.1866   -0.4913 H         1 <0>         0.0604
     42 H19        -2.5838   -5.1833   -1.8495 H         1 <0>         0.0619
     43 H20        -3.0423   -7.4948   -1.0793 H         1 <0>         0.0598
     44 H21        -1.3405   -7.0550   -0.7997 H         1 <0>         0.0626
     45 H22        -1.0896   -5.8664    3.8754 H         1 <0>         0.0624
     46 H23        -2.7835   -6.3295    3.5856 H         1 <0>         0.0668
     47 H24        -0.3622   -8.1655    3.2996 H         1 <0>         0.0731
     48 H25        -1.5239   -8.1818    4.6480 H         1 <0>         0.0627
     49 H26        -2.8777   -9.2498    0.6907 H         1 <0>         0.0697
     50 H27        -1.1768   -8.8089    0.9743 H         1 <0>         0.0700
     51 H28        -3.8652   -8.8069    4.0856 H         1 <0>         0.3719
     52 H29         0.5391   -5.8341    1.9800 H         1 <0>         0.0555
     53 H30         0.1365   -7.5275    1.6078 H         1 <0>         0.0560
     54 H31         0.0066   -6.2829    0.3420 H         1 <0>         0.0597
     55 H32         1.0693   -2.0312    0.7753 H         1 <0>         0.0491
     56 H33         0.4613   -3.6885    0.5474 H         1 <0>         0.0718
     57 H34         0.5145   -2.5627   -0.8303 H         1 <0>         0.0632
@<TRIPOS>BOND
     1    1    2 1
     2    1   30 1
     3    1   31 1
     4    1   32 1
     5    2    3 2
     6    2    4 1
     7    4    5 1
     8    4   10 1
     9    4    6 1
    10    6    7 1
    11    6   33 1
    12    6   34 1
    13    7    8 1
    14    7   35 1
    15    7   36 1
    16    8    9 1
    17    8   15 1
    18    8   10 1
    19   10   11 1
    20   10   29 1
    21   11   12 1
    22   11   37 1
    23   11   38 1
    24   12   13 1
    25   12   39 1
    26   12   40 1
    27   13   14 1
    28   13   21 1
    29   13   15 1
    30   15   16 1
    31   15   17 1
    32   17   18 1
    33   17   41 1
    34   17   42 1
    35   18   19 1
    36   18   43 1
    37   18   44 1
    38   19   20 1
    39   19   26 1
    40   19   21 1
    41   21   22 1
    42   21   28 1
    43   22   23 1
    44   22   45 1
    45   22   46 1
    46   23   24 1
    47   23   47 1
    48   23   48 1
    49   24   25 1
    50   24   26 1
    51   24   27 1
    52   26   49 1
    53   26   50 1
    54   27   51 1
    55   28   52 1
    56   28   53 1
    57   28   54 1
    58   29   55 1
    59   29   56 1
    60   29   57 1
@<TRIPOS>MOLECULE
ZINC03800039
   57    60     0     0     0
SMALL
USER_CHARGES
1-(3-hydroxy-10,13-dimethyl-2,3,4,5,6,7,8,9,11,12,14,15,16,17-tetradecahydro-1H-cyclopenta[a]phenanthren-17-yl)ethanone
@<TRIPOS>ATOM
      1 C1          1.8452    1.0926   -6.8681 C.3       1 <0>        -0.1979
      2 C2          2.9588    1.0521   -5.8536 C.2       1 <0>         0.3625
      3 O1          3.7958    1.9225   -5.8405 O.2       1 <0>        -0.4547
      4 C3          3.0280   -0.0747   -4.8553 C.3       1 <0>        -0.1247
      5 H1          2.7125   -0.9207   -5.2852 H         1 <0>         0.0884
      6 C4          4.4752   -0.2352   -4.3263 C.3       1 <0>        -0.1195
      7 C5          4.3974   -0.0780   -2.7831 C.3       1 <0>        -0.1138
      8 C6          2.9457   -0.4509   -2.4729 C.3       1 <0>        -0.0783
      9 H2          2.8010   -1.5300   -2.5261 H         1 <0>         0.0765
     10 C7          2.1846    0.2541   -3.6279 C.3       1 <0>        -0.0491
     11 C8          0.7618   -0.2690   -3.6229 C.3       1 <0>        -0.1052
     12 C9          0.1167    0.1737   -2.2987 C.3       1 <0>        -0.1197
     13 C10         0.9088   -0.3327   -1.0984 C.3       1 <0>        -0.0720
     14 H3          0.8553   -1.4213   -1.0879 H         1 <0>         0.0741
     15 C11         2.3843    0.0936   -1.1729 C.3       1 <0>        -0.0757
     16 H4          2.4555    1.1810   -1.1511 H         1 <0>         0.0836
     17 C12         3.1366   -0.4973    0.0205 C.3       1 <0>        -0.1162
     18 C13         2.5231    0.0276    1.3202 C.3       1 <0>        -0.1155
     19 C14         1.0506   -0.3812    1.3933 C.3       1 <0>        -0.0715
     20 H5          0.6139   -0.0035    2.3178 H         1 <0>         0.0698
     21 C15         0.2979    0.2050    0.1965 C.3       1 <0>        -0.0481
     22 C16        -1.1757   -0.1996    0.2743 C.3       1 <0>        -0.1089
     23 C17        -1.2838   -1.7279    0.2433 C.3       1 <0>        -0.1530
     24 C18        -0.5301   -2.3162    1.4377 C.3       1 <0>         0.1048
     25 H6         -0.9657   -1.9396    2.3632 H         1 <0>         0.0511
     26 C19         0.9423   -1.9073    1.3638 C.3       1 <0>        -0.1102
     27 O2         -0.6306   -3.7413    1.4093 O.3       1 <0>        -0.5695
     28 C20         0.4107    1.7306    0.2195 C.3       1 <0>        -0.1493
     29 C21         2.1804    1.7660   -3.3934 C.3       1 <0>        -0.1562
     30 H7          1.2467    0.3022   -6.7378 H         1 <0>         0.0723
     31 H8          1.2697    2.0093   -6.7395 H         1 <0>         0.0906
     32 H9          2.2677    1.0668   -7.8726 H         1 <0>         0.0914
     33 H10         4.8600   -1.2222   -4.5829 H         1 <0>         0.0671
     34 H11         5.1161    0.5383   -4.7494 H         1 <0>         0.0792
     35 H12         5.0863   -0.7640   -2.2903 H         1 <0>         0.0669
     36 H13         4.6042    0.9511   -2.4894 H         1 <0>         0.0695
     37 H14         0.7664   -1.3571   -3.6876 H         1 <0>         0.0659
     38 H15         0.2092    0.1510   -4.4633 H         1 <0>         0.0636
     39 H16        -0.8986   -0.2194   -2.2476 H         1 <0>         0.0637
     40 H17         0.0794    1.2626   -2.2677 H         1 <0>         0.0689
     41 H18         4.1855   -0.2050   -0.0302 H         1 <0>         0.0622
     42 H19         3.0607   -1.5843   -0.0041 H         1 <0>         0.0640
     43 H20         2.5997    1.1147    1.3448 H         1 <0>         0.0669
     44 H21         3.0594   -0.3932    2.1707 H         1 <0>         0.0617
     45 H22        -1.6083    0.1795    1.2002 H         1 <0>         0.0621
     46 H23        -1.7131    0.2195   -0.5764 H         1 <0>         0.0690
     47 H24        -0.8490   -2.1053   -0.6823 H         1 <0>         0.0743
     48 H25        -2.3329   -2.0185    0.2968 H         1 <0>         0.0611
     49 H26         1.3781   -2.2845    0.4387 H         1 <0>         0.0770
     50 H27         1.4787   -2.3260    2.2153 H         1 <0>         0.0662
     51 H28        -1.5380   -4.0726    1.4529 H         1 <0>         0.3770
     52 H29         1.4606    2.0182    0.1644 H         1 <0>         0.0629
     53 H30        -0.1255    2.1475   -0.6330 H         1 <0>         0.0569
     54 H31        -0.0227    2.1131    1.1436 H         1 <0>         0.0530
     55 H32         1.6739    1.9865   -2.4538 H         1 <0>         0.0724
     56 H33         3.2070    2.1293   -3.3468 H         1 <0>         0.0637
     57 H34         1.6572    2.2592   -4.2126 H         1 <0>         0.0490
@<TRIPOS>BOND
     1    1    2 1
     2    1   30 1
     3    1   31 1
     4    1   32 1
     5    2    3 2
     6    2    4 1
     7    4    5 1
     8    4   10 1
     9    4    6 1
    10    6    7 1
    11    6   33 1
    12    6   34 1
    13    7    8 1
    14    7   35 1
    15    7   36 1
    16    8    9 1
    17    8   15 1
    18    8   10 1
    19   10   11 1
    20   10   29 1
    21   11   12 1
    22   11   37 1
    23   11   38 1
    24   12   13 1
    25   12   39 1
    26   12   40 1
    27   13   14 1
    28   13   21 1
    29   13   15 1
    30   15   16 1
    31   15   17 1
    32   17   18 1
    33   17   41 1
    34   17   42 1
    35   18   19 1
    36   18   43 1
    37   18   44 1
    38   19   20 1
    39   19   26 1
    40   19   21 1
    41   21   22 1
    42   21   28 1
    43   22   23 1
    44   22   45 1
    45   22   46 1
    46   23   24 1
    47   23   47 1
    48   23   48 1
    49   24   25 1
    50   24   26 1
    51   24   27 1
    52   26   49 1
    53   26   50 1
    54   27   51 1
    55   28   52 1
    56   28   53 1
    57   28   54 1
    58   29   55 1
    59   29   56 1
    60   29   57 1
@<TRIPOS>MOLECULE
ZINC00025301
   27    29     0     0     0
SMALL
USER_CHARGES

@<TRIPOS>ATOM
      1 C1         -0.0173    1.4248    0.0099 C.3       1 <0>         0.0312
      2 O1          0.0021   -0.0041    0.0020 O.3       1 <0>        -0.3302
      3 C2          0.6204   -0.6130    1.0325 C.2       1 <0>         0.5293
      4 O2          1.1292    0.0507    1.9135 O.2       1 <0>        -0.5011
      5 C3          0.6797   -2.0882    1.0910 C.ar      1 <0>         0.0397
      6 C4          1.3159   -2.7095    2.1626 C.ar      1 <0>        -0.0329
      7 C5          1.3598   -4.1000    2.1971 C.ar      1 <0>        -0.0832
      8 C6          1.9195   -5.0927    3.1278 C.ar      1 <0>        -0.1038
      9 C7          2.6185   -4.9977    4.3293 C.ar      1 <0>        -0.0556
     10 C8          3.0181   -6.1435    4.9819 C.ar      1 <0>        -0.1427
     11 C9          2.7270   -7.3895    4.4472 C.ar      1 <0>        -0.0753
     12 C10         2.0365   -7.4987    3.2600 C.ar      1 <0>        -0.1378
     13 C11         1.6241   -6.3532    2.5853 C.ar      1 <0>         0.1402
     14 N1          0.9310   -6.1684    1.4028 N.pl3     1 <0>        -0.5952
     15 H1          0.6094   -6.8838    0.8322 H         1 <0>         0.4248
     16 C12         0.7612   -4.8255    1.1505 C.ar      1 <0>         0.1174
     17 C13         0.1456   -4.1204    0.1158 C.ar      1 <0>         0.0983
     18 N2          0.1196   -2.8083    0.1213 N.ar      1 <0>        -0.4043
     19 H2          1.0053    1.8021    0.0021 H         1 <0>         0.0622
     20 H3         -0.5445    1.7859   -0.8732 H         1 <0>         0.1054
     21 H4         -0.5275    1.7763    0.9067 H         1 <0>         0.0622
     22 H5          1.7663   -2.1243    2.9506 H         1 <0>         0.1540
     23 H6          2.8469   -4.0286    4.7478 H         1 <0>         0.1310
     24 H7          3.5603   -6.0709    5.9131 H         1 <0>         0.1325
     25 H8          3.0446   -8.2820    4.9658 H         1 <0>         0.1343
     26 H9          1.8151   -8.4740    2.8524 H         1 <0>         0.1294
     27 H10        -0.3191   -4.6604   -0.6960 H         1 <0>         0.1702
@<TRIPOS>BOND
     1    1    2 1
     2    1   19 1
     3    1   20 1
     4    1   21 1
     5    2    3 1
     6    3    4 2
     7    3    5 1
     8    5   18 ar
     9    5    6 ar
    10    6    7 ar
    11    6   22 1
    12    7   16 ar
    13    7    8 1
    14    8   13 ar
    15    8    9 ar
    16    9   10 ar
    17    9   23 1
    18   10   11 ar
    19   10   24 1
    20   11   12 ar
    21   11   25 1
    22   12   13 ar
    23   12   26 1
    24   13   14 1
    25   14   15 1
    26   14   16 1
    27   16   17 ar
    28   17   18 ar
    29   17   27 1
@<TRIPOS>MOLECULE
ZINC00025301
   28    30     0     0     0
SMALL
USER_CHARGES

@<TRIPOS>ATOM
      1 C1         -0.0173    1.4248    0.0099 C.3       1 <0>         0.0337
      2 O1          0.0021   -0.0041    0.0020 O.3       1 <0>        -0.3534
      3 C2          0.6204   -0.6130    1.0325 C.2       1 <0>         0.5041
      4 O2          1.1292    0.0507    1.9135 O.2       1 <0>        -0.4436
      5 C3          0.6797   -2.0882    1.0910 C.ar      1 <0>         0.0580
      6 C4          1.3159   -2.7095    2.1626 C.ar      1 <0>         0.0154
      7 C5          1.3598   -4.1000    2.1971 C.ar      1 <0>        -0.0130
      8 C6          1.9195   -5.0927    3.1278 C.ar      1 <0>        -0.1156
      9 C7          2.6185   -4.9977    4.3293 C.ar      1 <0>        -0.0440
     10 C8          3.0181   -6.1435    4.9819 C.ar      1 <0>        -0.1218
     11 C9          2.7270   -7.3895    4.4472 C.ar      1 <0>        -0.0454
     12 C10         2.0365   -7.4987    3.2600 C.ar      1 <0>        -0.1295
     13 C11         1.6241   -6.3532    2.5853 C.ar      1 <0>         0.1537
     14 N1          0.9310   -6.1684    1.4028 N.pl3     1 <0>        -0.5651
     15 H1          0.6094   -6.8838    0.8322 H         1 <0>         0.4401
     16 C12         0.7612   -4.8255    1.1505 C.ar      1 <0>         0.1320
     17 C13         0.1456   -4.1204    0.1158 C.ar      1 <0>         0.1499
     18 N2          0.1196   -2.8083    0.1213 N.ar      1 <0>        -0.3940
     19 H2          1.0053    1.8021    0.0021 H         1 <0>         0.0760
     20 H3         -0.5445    1.7859   -0.8732 H         1 <0>         0.1206
     21 H4         -0.5275    1.7763    0.9067 H         1 <0>         0.0760
     22 H5          1.7663   -2.1243    2.9506 H         1 <0>         0.1968
     23 H6          2.8469   -4.0286    4.7478 H         1 <0>         0.1444
     24 H7          3.5603   -6.0709    5.9131 H         1 <0>         0.1479
     25 H8          3.0446   -8.2820    4.9658 H         1 <0>         0.1500
     26 H9          1.8151   -8.4740    2.8524 H         1 <0>         0.1441
     27 H10        -0.3191   -4.6604   -0.6960 H         1 <0>         0.2209
     28 H11        -0.3196   -2.3463   -0.6098 H         1 <0>         0.4620
@<TRIPOS>BOND
     1    1    2 1
     2    1   19 1
     3    1   20 1
     4    1   21 1
     5    2    3 1
     6    3    4 2
     7    3    5 1
     8    5   18 ar
     9    5    6 ar
    10    6    7 ar
    11    6   22 1
    12    7   16 ar
    13    7    8 1
    14    8   13 ar
    15    8    9 ar
    16    9   10 ar
    17    9   23 1
    18   10   11 ar
    19   10   24 1
    20   11   12 ar
    21   11   25 1
    22   12   13 ar
    23   12   26 1
    24   13   14 1
    25   14   15 1
    26   14   16 1
    27   16   17 ar
    28   17   18 ar
    29   17   27 1
    30   18   28 1
@<TRIPOS>MOLECULE
ZINC00004220
   42    46     0     0     0
SMALL
USER_CHARGES
(5-cyclopropyl-1,2,4-oxadiazol-3-yl)-isopropyl-BLAHone
@<TRIPOS>ATOM
      1 C1          1.4563    1.5106    0.0573 C.3       1 <0>        -0.1720
      2 C2         -0.0127    1.0858    0.0080 C.3       1 <0>         0.1310
      3 C3         -0.6781    1.6934   -1.2285 C.3       1 <0>        -0.1722
      4 N1         -0.6984    1.5583    1.2133 N.am      1 <0>        -0.5384
      5 C4         -1.3014    0.6393    2.0718 C.ar      1 <0>         0.1697
      6 C5         -1.2368   -0.7186    1.7819 C.ar      1 <0>        -0.1435
      7 C6         -1.8261   -1.6353    2.6290 C.ar      1 <0>        -0.0739
      8 C7         -2.4786   -1.2089    3.7727 C.ar      1 <0>        -0.1216
      9 C8         -2.5440    0.1371    4.0734 C.ar      1 <0>        -0.0857
     10 C9         -1.9546    1.0674    3.2278 C.ar      1 <0>         0.0712
     11 N2         -2.0217    2.4283    3.5333 N.pl3     1 <0>        -0.3776
     12 C10        -2.5723    3.1207    4.5466 C.2       1 <0>         0.2311
     13 N3         -2.3577    4.3989    4.3733 N.2       1 <0>        -0.4412
     14 C11        -1.6598    4.5913    3.2422 C.2       1 <0>         0.1722
     15 C12        -1.4325    3.3440    2.6862 C.2       1 <0>        -0.0588
     16 C13        -0.7466    2.8793    1.4818 C.2       1 <0>         0.5822
     17 O1         -0.2235    3.6783    0.7268 O.2       1 <0>        -0.4616
     18 C14        -1.2167    5.8944    2.6921 C.2       1 <0>         0.2316
     19 N4         -1.4436    7.1134    3.2328 N.2       1 <0>        -0.4486
     20 C15        -0.8755    7.9696    2.4209 C.2       1 <0>         0.2042
     21 O2         -0.3347    7.2656    1.4214 O.3       1 <0>         0.0896
     22 N5         -0.5375    6.0817    1.5896 N.2       1 <0>        -0.3230
     23 C16        -0.8428    9.4678    2.5803 C.3       1 <0>        -0.0809
     24 C17        -0.3047   10.2913    1.4084 C.3       1 <0>        -0.1576
     25 C18         0.5290   10.1376    2.6820 C.3       1 <0>        -0.1524
     26 H1          1.5186    2.5977    0.1083 H         1 <0>         0.0825
     27 H2          1.9303    1.0778    0.9383 H         1 <0>         0.0572
     28 H3          1.9665    1.1591   -0.8395 H         1 <0>         0.0763
     29 H4         -0.0750   -0.0012   -0.0430 H         1 <0>         0.1031
     30 H5         -0.1679    1.3419   -2.1253 H         1 <0>         0.0763
     31 H6         -1.7246    1.3907   -1.2637 H         1 <0>         0.0571
     32 H7         -0.6157    2.7804   -1.1775 H         1 <0>         0.0826
     33 H8         -0.7292   -1.0563    0.8905 H         1 <0>         0.1460
     34 H9         -1.7781   -2.6893    2.3983 H         1 <0>         0.1410
     35 H10        -2.9380   -1.9309    4.4315 H         1 <0>         0.1418
     36 H11        -3.0537    0.4664    4.9669 H         1 <0>         0.1420
     37 H12        -3.1096    2.6870    5.3771 H         1 <0>         0.2279
     38 H13        -1.6567    9.8962    3.1652 H         1 <0>         0.1512
     39 H14         0.0256    9.7494    0.5222 H         1 <0>         0.1083
     40 H15        -0.7648   11.2617    1.2221 H         1 <0>         0.1147
     41 H16         0.6175   11.0070    3.3336 H         1 <0>         0.1152
     42 H17         1.4079    9.4947    2.6337 H         1 <0>         0.1031
@<TRIPOS>BOND
     1    1    2 1
     2    1   26 1
     3    1   27 1
     4    1   28 1
     5    2    3 1
     6    2    4 1
     7    2   29 1
     8    3   30 1
     9    3   31 1
    10    3   32 1
    11    4   16 am
    12    4    5 1
    13    5   10 ar
    14    5    6 ar
    15    6    7 ar
    16    6   33 1
    17    7    8 ar
    18    7   34 1
    19    8    9 ar
    20    8   35 1
    21    9   10 ar
    22    9   36 1
    23   10   11 1
    24   11   15 1
    25   11   12 1
    26   12   13 2
    27   12   37 1
    28   13   14 1
    29   14   15 2
    30   14   18 1
    31   15   16 1
    32   16   17 2
    33   18   22 2
    34   18   19 1
    35   19   20 2
    36   20   21 1
    37   20   23 1
    38   21   22 1
    39   23   25 1
    40   23   24 1
    41   23   38 1
    42   24   25 1
    43   24   39 1
    44   24   40 1
    45   25   41 1
    46   25   42 1
@<TRIPOS>MOLECULE
ZINC00004220
   43    47     0     0     0
SMALL
USER_CHARGES
(5-cyclopropyl-1,2,4-oxadiazol-3-yl)-isopropyl-BLAHone
@<TRIPOS>ATOM
      1 C1          1.4563    1.5106    0.0573 C.3       1 <0>        -0.1753
      2 C2         -0.0127    1.0858    0.0080 C.3       1 <0>         0.1269
      3 C3         -0.6781    1.6934   -1.2285 C.3       1 <0>        -0.1756
      4 N1         -0.6984    1.5583    1.2133 N.am      1 <0>        -0.5255
      5 C4         -1.3014    0.6393    2.0718 C.ar      1 <0>         0.1946
      6 C5         -1.2368   -0.7186    1.7819 C.ar      1 <0>        -0.1392
      7 C6         -1.8261   -1.6353    2.6290 C.ar      1 <0>        -0.0390
      8 C7         -2.4786   -1.2089    3.7727 C.ar      1 <0>        -0.1130
      9 C8         -2.5440    0.1371    4.0734 C.ar      1 <0>        -0.0680
     10 C9         -1.9546    1.0674    3.2278 C.ar      1 <0>         0.0265
     11 N2         -2.0217    2.4283    3.5333 N.pl3     1 <0>        -0.3189
     12 C10        -2.5723    3.1207    4.5466 C.cat     1 <0>         0.3146
     13 C11        -1.6598    4.5913    3.2422 C.2       1 <0>         0.2133
     14 C12        -1.4325    3.3440    2.6862 C.2       1 <0>         0.0125
     15 C13        -0.7466    2.8793    1.4818 C.2       1 <0>         0.5755
     16 O1         -0.2235    3.6783    0.7268 O.2       1 <0>        -0.4287
     17 C14        -1.2167    5.8944    2.6921 C.2       1 <0>         0.1786
     18 N3         -1.4436    7.1134    3.2328 N.2       1 <0>        -0.4744
     19 C15        -0.8755    7.9696    2.4209 C.2       1 <0>         0.2517
     20 O2         -0.3347    7.2656    1.4214 O.3       1 <0>         0.1156
     21 N4         -0.5375    6.0817    1.5896 N.2       1 <0>        -0.2883
     22 C16        -0.8428    9.4678    2.5803 C.3       1 <0>        -0.0999
     23 C17        -0.3047   10.2913    1.4084 C.3       1 <0>        -0.1512
     24 C18         0.5290   10.1376    2.6820 C.3       1 <0>        -0.1456
     25 H1          1.5186    2.5977    0.1083 H         1 <0>         0.0818
     26 H2          1.9303    1.0778    0.9383 H         1 <0>         0.0617
     27 H3          1.9665    1.1591   -0.8395 H         1 <0>         0.0870
     28 H4         -0.0750   -0.0012   -0.0430 H         1 <0>         0.1136
     29 H5         -0.1679    1.3419   -2.1253 H         1 <0>         0.0870
     30 H6         -1.7246    1.3907   -1.2637 H         1 <0>         0.0616
     31 H7         -0.6157    2.7804   -1.1775 H         1 <0>         0.0818
     32 H8         -0.7292   -1.0563    0.8905 H         1 <0>         0.1596
     33 H9         -1.7781   -2.6893    2.3983 H         1 <0>         0.1558
     34 H10        -2.9380   -1.9309    4.4315 H         1 <0>         0.1559
     35 H11        -3.0537    0.4664    4.9669 H         1 <0>         0.1506
     36 H12        -3.1096    2.6870    5.3771 H         1 <0>         0.2790
     37 H13        -1.6567    9.8962    3.1652 H         1 <0>         0.1586
     38 H14         0.0256    9.7494    0.5222 H         1 <0>         0.1120
     39 H15        -0.7648   11.2617    1.2221 H         1 <0>         0.1221
     40 H16         0.6175   11.0070    3.3336 H         1 <0>         0.1221
     41 H17         1.4079    9.4947    2.6337 H         1 <0>         0.1063
     42 N5         -2.3581    4.3999    4.3742 N.pl3     1 <0>        -0.4607
     43 H18        -2.6752    5.1437    5.0070 H         1 <0>         0.4968
@<TRIPOS>BOND
     1    1    2 1
     2    1   25 1
     3    1   26 1
     4    1   27 1
     5    2    3 1
     6    2    4 1
     7    2   28 1
     8    3   29 1
     9    3   30 1
    10    3   31 1
    11    4   15 am
    12    4    5 1
    13    5   10 ar
    14    5    6 ar
    15    6    7 ar
    16    6   32 1
    17    7    8 ar
    18    7   33 1
    19    8    9 ar
    20    8   34 1
    21    9   10 ar
    22    9   35 1
    23   10   11 1
    24   11   14 1
    25   11   12 1
    26   12   36 1
    27   12   42 2
    28   13   14 2
    29   13   17 1
    30   13   42 1
    31   14   15 1
    32   15   16 2
    33   17   21 2
    34   17   18 1
    35   18   19 2
    36   19   20 1
    37   19   22 1
    38   20   21 1
    39   22   24 1
    40   22   23 1
    41   22   37 1
    42   23   24 1
    43   23   38 1
    44   23   39 1
    45   24   40 1
    46   24   41 1
    47   42   43 1
@<TRIPOS>MOLECULE
ZINC00001464
   36    38     0     0     0
SMALL
USER_CHARGES

@<TRIPOS>ATOM
      1 C1         -0.0187    1.5258    0.0104 C.3       1 <0>        -0.1527
      2 C2          0.0021   -0.0041    0.0020 C.3       1 <0>         0.0595
      3 O1         -1.3386   -0.4987    0.0122 O.3       1 <0>        -0.3295
      4 C3         -1.4970   -1.8373    0.0065 C.2       1 <0>         0.5595
      5 O2         -0.5232   -2.5645   -0.0067 O.2       1 <0>        -0.5059
      6 C4         -2.8491   -2.4182    0.0163 C.2       1 <0>        -0.0204
      7 C5         -3.1574   -3.7441    0.0176 C.2       1 <0>         0.0514
      8 N1         -4.5094   -3.8420    0.0002 N.pl3     1 <0>        -0.4034
      9 C6         -5.0118   -2.5765    0.0278 C.2       1 <0>         0.2113
     10 N2         -4.0219   -1.7299    0.0316 N.2       1 <0>        -0.4291
     11 C7         -5.2437   -5.0283   -0.0696 C.ar      1 <0>         0.1361
     12 C8         -6.4178   -5.0243   -0.8179 C.ar      1 <0>        -0.0943
     13 C9         -7.1677   -6.1733   -0.9504 C.ar      1 <0>        -0.1054
     14 C10        -6.7527   -7.3466   -0.3378 C.ar      1 <0>         0.1093
     15 C11        -5.6005   -7.3636    0.4163 C.ar      1 <0>        -0.0832
     16 C12        -4.8343   -6.1965    0.5748 C.ar      1 <0>        -0.0860
     17 C13        -3.6619   -6.2637    1.4502 C.2       1 <0>         0.5507
     18 O3         -3.7840   -6.9146    2.4698 O.2       1 <0>        -0.5260
     19 N3         -2.4758   -5.6895    1.2509 N.am      1 <0>        -0.5964
     20 C14        -2.1949   -4.9033    0.0447 C.3       1 <0>         0.1632
     21 C15        -1.4269   -5.8469    2.2614 C.3       1 <0>         0.0754
     22 F1         -7.4809   -8.4755   -0.4809 F         1 <0>        -0.1229
     23 H1          1.0039    1.9031    0.0027 H         1 <0>         0.0814
     24 H2         -0.5459    1.8868   -0.8726 H         1 <0>         0.0681
     25 H3         -0.5289    1.8773    0.9072 H         1 <0>         0.0679
     26 H4          0.5123   -0.3556   -0.8948 H         1 <0>         0.0706
     27 H5          0.5293   -0.3651    0.8851 H         1 <0>         0.0701
     28 H6         -6.0600   -2.3172    0.0476 H         1 <0>         0.2269
     29 H7         -6.7439   -4.1135   -1.2980 H         1 <0>         0.1544
     30 H8         -8.0784   -6.1600   -1.5308 H         1 <0>         0.1586
     31 H9         -5.2835   -8.2812    0.8896 H         1 <0>         0.1586
     32 H10        -2.3373   -5.5225   -0.8409 H         1 <0>         0.0971
     33 H11        -1.1705   -4.5322    0.0760 H         1 <0>         0.1471
     34 H12        -1.8034   -6.4548    3.0841 H         1 <0>         0.0976
     35 H13        -0.5619   -6.3366    1.8141 H         1 <0>         0.0726
     36 H14        -1.1351   -4.8666    2.6380 H         1 <0>         0.0680
@<TRIPOS>BOND
     1    1    2 1
     2    1   23 1
     3    1   24 1
     4    1   25 1
     5    2    3 1
     6    2   26 1
     7    2   27 1
     8    3    4 1
     9    4    5 2
    10    4    6 1
    11    6   10 1
    12    6    7 2
    13    7   20 1
    14    7    8 1
    15    8    9 1
    16    8   11 1
    17    9   10 2
    18    9   28 1
    19   11   16 ar
    20   11   12 ar
    21   12   13 ar
    22   12   29 1
    23   13   14 ar
    24   13   30 1
    25   14   15 ar
    26   14   22 1
    27   15   16 ar
    28   15   31 1
    29   16   17 1
    30   17   18 2
    31   17   19 am
    32   19   20 1
    33   19   21 1
    34   20   32 1
    35   20   33 1
    36   21   34 1
    37   21   35 1
    38   21   36 1
@<TRIPOS>MOLECULE
ZINC09227024
   28    30     0     0     0
SMALL
USER_CHARGES

@<TRIPOS>ATOM
      1 C1         -0.0178    1.4608    0.0101 C.3       1 <0>         0.0856
      2 N1          0.0021   -0.0041    0.0020 N.am      1 <0>        -0.7181
      3 C2         -1.1558   -0.6938    0.0094 C.2       1 <0>         0.5778
      4 O1         -2.2166   -0.1004    0.0227 O.2       1 <0>        -0.5353
      5 C3         -1.1358   -2.1723    0.0012 C.ar      1 <0>         0.0270
      6 C4         -2.3364   -2.8766    0.0032 C.ar      1 <0>        -0.0399
      7 C5         -2.2939   -4.2677   -0.0046 C.ar      1 <0>        -0.0794
      8 C6         -3.3100   -5.3319   -0.0055 C.ar      1 <0>        -0.1058
      9 C7         -4.7033   -5.3314    0.0005 C.ar      1 <0>        -0.0549
     10 C8         -5.3888   -6.5264   -0.0033 C.ar      1 <0>        -0.1444
     11 C9         -4.6973   -7.7285   -0.0131 C.ar      1 <0>        -0.0755
     12 C10        -3.3196   -7.7443   -0.0187 C.ar      1 <0>        -0.1397
     13 C11        -2.6085   -6.5477   -0.0154 C.ar      1 <0>         0.1413
     14 N2         -1.2536   -6.2705   -0.0204 N.pl3     1 <0>        -0.5980
     15 C12        -1.0418   -4.9096   -0.0141 C.ar      1 <0>         0.1090
     16 C13         0.1111   -4.1244   -0.0158 C.ar      1 <0>         0.0979
     17 N3          0.0300   -2.8143   -0.0133 N.ar      1 <0>        -0.4295
     18 H1          1.0048    1.8381    0.0023 H         1 <0>         0.0784
     19 H2         -0.5450    1.8219   -0.8730 H         1 <0>         0.0621
     20 H3         -0.5280    1.8123    0.9069 H         1 <0>         0.0622
     21 H4          0.8486   -0.4776   -0.0086 H         1 <0>         0.4122
     22 H5         -3.2817   -2.3543    0.0109 H         1 <0>         0.1516
     23 H6         -5.2444   -4.3967    0.0085 H         1 <0>         0.1307
     24 H7         -6.4688   -6.5271    0.0017 H         1 <0>         0.1320
     25 H8         -5.2434   -8.6602   -0.0160 H         1 <0>         0.1337
     26 H9         -2.7910   -8.6860   -0.0259 H         1 <0>         0.1286
     27 H10         1.0809   -4.5996   -0.0230 H         1 <0>         0.1667
     28 H11        -0.5516   -6.9399   -0.0271 H         1 <0>         0.4235
@<TRIPOS>BOND
     1    1    2 1
     2    1   18 1
     3    1   19 1
     4    1   20 1
     5    2    3 am
     6    2   21 1
     7    3    4 2
     8    3    5 1
     9    5   17 ar
    10    5    6 ar
    11    6    7 ar
    12    6   22 1
    13    7   15 ar
    14    7    8 1
    15    8   13 ar
    16    8    9 ar
    17    9   10 ar
    18    9   23 1
    19   10   11 ar
    20   10   24 1
    21   11   12 ar
    22   11   25 1
    23   12   13 ar
    24   12   26 1
    25   13   14 1
    26   14   15 1
    27   14   28 1
    28   15   16 ar
    29   16   17 ar
    30   16   27 1
@<TRIPOS>MOLECULE
ZINC09227024
   29    31     0     0     0
SMALL
USER_CHARGES

@<TRIPOS>ATOM
      1 C1         -0.0178    1.4608    0.0101 C.3       1 <0>         0.0800
      2 N1          0.0021   -0.0041    0.0020 N.am      1 <0>        -0.7213
      3 C2          0.5851   -0.6645   -1.0180 C.2       1 <0>         0.5560
      4 O1          1.0944   -0.0447   -1.9312 O.2       1 <0>        -0.4749
      5 C3          0.6051   -2.1431   -1.0261 C.ar      1 <0>         0.0435
      6 C4          1.2144   -2.8170   -2.0807 C.ar      1 <0>         0.0088
      7 C5          1.2216   -4.2087   -2.0679 C.ar      1 <0>        -0.0069
      8 C6          1.7467   -5.2470   -2.9684 C.ar      1 <0>        -0.1190
      9 C7          2.4377   -5.2115   -4.1777 C.ar      1 <0>        -0.0422
     10 C8          2.8022   -6.3890   -4.7933 C.ar      1 <0>        -0.1239
     11 C9          2.4839   -7.6080   -4.2137 C.ar      1 <0>        -0.0446
     12 C10         1.8005   -7.6583   -3.0184 C.ar      1 <0>        -0.1316
     13 C11         1.4236   -6.4800   -2.3804 C.ar      1 <0>         0.1560
     14 N2          0.7466   -6.2368   -1.1992 N.pl3     1 <0>        -0.5697
     15 C12         0.6141   -4.8817   -0.9918 C.ar      1 <0>         0.1292
     16 C13         0.0272   -4.1258    0.0229 C.ar      1 <0>         0.1404
     17 N3          0.0452   -2.8140   -0.0223 N.ar      1 <0>        -0.4075
     18 H1          1.0048    1.8381    0.0023 H         1 <0>         0.0768
     19 H2         -0.5450    1.8219   -0.8730 H         1 <0>         0.0768
     20 H3         -0.5280    1.8123    0.9069 H         1 <0>         0.0925
     21 H4         -0.4044   -0.4986    0.7308 H         1 <0>         0.3959
     22 H5          1.6719   -2.2711   -2.8926 H         1 <0>         0.1955
     23 H6          2.6866   -4.2637   -4.6315 H         1 <0>         0.1443
     24 H7          3.3376   -6.3626   -5.7309 H         1 <0>         0.1476
     25 H8          2.7738   -8.5257   -4.7036 H         1 <0>         0.1496
     26 H9          1.5572   -8.6130   -2.5759 H         1 <0>         0.1434
     27 H10        -0.4438   -4.6251    0.8568 H         1 <0>         0.2180
     28 H11         0.4120   -6.9236   -0.6015 H         1 <0>         0.4391
     29 H12        -0.3680   -2.3157    0.7001 H         1 <0>         0.4482
@<TRIPOS>BOND
     1    1    2 1
     2    1   18 1
     3    1   19 1
     4    1   20 1
     5    2    3 am
     6    2   21 1
     7    3    4 2
     8    3    5 1
     9    5   17 ar
    10    5    6 ar
    11    6    7 ar
    12    6   22 1
    13    7   15 ar
    14    7    8 1
    15    8   13 ar
    16    8    9 ar
    17    9   10 ar
    18    9   23 1
    19   10   11 ar
    20   10   24 1
    21   11   12 ar
    22   11   25 1
    23   12   13 ar
    24   12   26 1
    25   13   14 1
    26   14   15 1
    27   14   28 1
    28   15   16 ar
    29   16   17 ar
    30   16   27 1
    31   17   29 1
@<TRIPOS>MOLECULE
ZINC13863224
   40    42     0     0     0
SMALL
USER_CHARGES
2-(5-nitro-1H-indol-3-yl)-2-oxo-N-[(1R)-1-phenylethyl]acetamide
@<TRIPOS>ATOM
      1 C1          8.2939    4.7655   -1.4840 C.3       1 <0>        -0.1598
      2 C2          8.0847    4.2814   -0.0477 C.3       1 <0>         0.1815
      3 H1          7.6627    5.0892    0.5501 H         1 <0>         0.1029
      4 C3          9.4078    3.8609    0.5385 C.ar      1 <0>        -0.0992
      5 C4          9.9330    2.6179    0.2383 C.ar      1 <0>        -0.1141
      6 C5         11.1487    2.2340    0.7726 C.ar      1 <0>        -0.1136
      7 C6         11.8347    3.0892    1.6146 C.ar      1 <0>        -0.1155
      8 C7         11.3072    4.3303    1.9185 C.ar      1 <0>        -0.1151
      9 C8         10.0935    4.7160    1.3808 C.ar      1 <0>        -0.1058
     10 N1          7.1652    3.1408   -0.0459 N.am      1 <0>        -0.6962
     11 C9          5.8336    3.3487   -0.0328 C.2       1 <0>         0.4945
     12 O1          5.3962    4.4810   -0.0224 O.2       1 <0>        -0.5175
     13 C10         4.8974    2.1874   -0.0309 C.2       1 <0>         0.4186
     14 O2          5.3354    1.0536   -0.0413 O.2       1 <0>        -0.4273
     15 C11         3.4529    2.4129   -0.0166 C.2       1 <0>        -0.2585
     16 C12         2.8029    3.6327   -0.0039 C.2       1 <0>         0.1760
     17 N2          1.4724    3.4345    0.0070 N.pl3     1 <0>        -0.5617
     18 H2          0.8097    4.1428    0.0173 H         1 <0>         0.4319
     19 C13         1.1787    2.0851    0.0020 C.ar      1 <0>         0.1167
     20 C14         2.3948    1.3840   -0.0129 C.ar      1 <0>        -0.0641
     21 C15         2.3999   -0.0073   -0.0204 C.ar      1 <0>         0.0030
     22 C16         1.2044   -0.6943   -0.0132 C.ar      1 <0>        -0.0557
     23 C17         0.0021   -0.0041    0.0020 C.ar      1 <0>        -0.0514
     24 C18        -0.0166    1.3744    0.0096 C.ar      1 <0>        -0.1077
     25 N3          1.2047   -2.1745   -0.0211 N.pl3     1 <0>         0.0313
     26 O3          0.1501   -2.7837   -0.0143 O.2       1 <0>        -0.1591
     27 O4          2.2596   -2.7832   -0.0345 O.3       1 <0>        -0.1586
     28 H3          7.3369    5.0696   -1.9080 H         1 <0>         0.0671
     29 H4          8.9780    5.6140   -1.4853 H         1 <0>         0.0732
     30 H5          8.7159    3.9576   -2.0818 H         1 <0>         0.0621
     31 H6          9.3951    1.9482   -0.4162 H         1 <0>         0.1214
     32 H7         11.5610    1.2645    0.5349 H         1 <0>         0.1260
     33 H8         12.7829    2.7879    2.0346 H         1 <0>         0.1247
     34 H9         11.8431    4.9985    2.5763 H         1 <0>         0.1259
     35 H10         9.6812    5.6854    1.6185 H         1 <0>         0.1256
     36 H11         7.5148    2.2360   -0.0542 H         1 <0>         0.4119
     37 H12         3.2888    4.5972   -0.0028 H         1 <0>         0.2130
     38 H13         3.3356   -0.5465   -0.0323 H         1 <0>         0.1631
     39 H14        -0.9288   -0.5516    0.0083 H         1 <0>         0.1603
     40 H15        -0.9589    1.9020    0.0169 H         1 <0>         0.1501
@<TRIPOS>BOND
     1    1    2 1
     2    1   28 1
     3    1   29 1
     4    1   30 1
     5    2    3 1
     6    2    4 1
     7    2   10 1
     8    4    9 ar
     9    4    5 ar
    10    5    6 ar
    11    5   31 1
    12    6    7 ar
    13    6   32 1
    14    7    8 ar
    15    7   33 1
    16    8    9 ar
    17    8   34 1
    18    9   35 1
    19   10   11 am
    20   10   36 1
    21   11   12 2
    22   11   13 1
    23   13   14 2
    24   13   15 1
    25   15   20 1
    26   15   16 2
    27   16   17 1
    28   16   37 1
    29   17   18 1
    30   17   19 1
    31   19   24 ar
    32   19   20 ar
    33   20   21 ar
    34   21   22 ar
    35   21   38 1
    36   22   23 ar
    37   22   25 1
    38   23   24 ar
    39   23   39 1
    40   24   40 1
    41   25   26 2
    42   25   27 1
@<TRIPOS>MOLECULE
ZINC03875364
   51    54     0     0     0
SMALL
USER_CHARGES

@<TRIPOS>ATOM
      1 C1         -0.0029    1.5259    0.0192 C.3       1 <0>        -0.1496
      2 C2          0.0189   -0.0039    0.0113 C.3       1 <0>        -0.0475
      3 C3         -1.4159   -0.5356    0.0299 C.3       1 <0>        -0.1093
      4 C4         -1.3917   -2.0656    0.0163 C.3       1 <0>        -0.1538
      5 C5         -0.6439   -2.5750    1.2500 C.3       1 <0>         0.1048
      6 H1         -1.1509   -2.2290    2.1507 H         1 <0>         0.0514
      7 C6          0.7896   -2.0408    1.2346 C.3       1 <0>        -0.1107
      8 C7          0.7649   -0.5109    1.2478 C.3       1 <0>        -0.0719
      9 H2          0.2551   -0.1654    2.1472 H         1 <0>         0.0705
     10 C8          2.1980    0.0246    1.2337 C.3       1 <0>        -0.1151
     11 C9          2.9125   -0.4598   -0.0295 C.3       1 <0>        -0.1166
     12 C10         2.1671    0.0502   -1.2638 C.3       1 <0>        -0.0746
     13 H3          2.1452    1.1399   -1.2564 H         1 <0>         0.0850
     14 C11         0.7320   -0.4981   -1.2480 C.3       1 <0>        -0.0731
     15 H4          0.7710   -1.5872   -1.2264 H         1 <0>         0.0749
     16 C12        -0.0453   -0.0718   -2.4886 C.3       1 <0>        -0.1199
     17 C13         0.6939   -0.4716   -3.7769 C.3       1 <0>        -0.0973
     18 C14         2.0671    0.1673   -3.7259 C.3       1 <0>        -0.1241
     19 C15         2.8461   -0.4405   -2.5295 C.3       1 <0>        -0.0786
     20 H5          2.8163   -1.5288   -2.5819 H         1 <0>         0.0798
     21 C16         4.2636    0.0930   -2.7725 C.3       1 <0>        -0.1110
     22 C17         4.4120   -0.0355   -4.3132 C.3       1 <0>        -0.1800
     23 C18         2.9760   -0.0803   -4.8930 C.2       1 <0>         0.3772
     24 O1          2.6530   -0.2367   -6.0461 O.2       1 <0>        -0.4381
     25 C19         1.9251    1.6731   -3.4953 C.3       1 <0>        -0.1434
     26 O2         -0.6199   -4.0038    1.2360 O.3       1 <0>        -0.5697
     27 H6          1.0194    1.9039    0.0067 H         1 <0>         0.0630
     28 H7         -0.5342    1.8863   -0.8617 H         1 <0>         0.0575
     29 H8         -0.5093    1.8775    0.9181 H         1 <0>         0.0538
     30 H9         -1.9207   -0.1880    0.9313 H         1 <0>         0.0625
     31 H10        -1.9495   -0.1726   -0.8486 H         1 <0>         0.0695
     32 H11        -2.4134   -2.4452    0.0283 H         1 <0>         0.0617
     33 H12        -0.8857   -2.4129   -0.8845 H         1 <0>         0.0741
     34 H13         1.3217   -2.4031    2.1142 H         1 <0>         0.0667
     35 H14         1.2971   -2.3881    0.3346 H         1 <0>         0.0768
     36 H15         2.1786    1.1144    1.2447 H         1 <0>         0.0677
     37 H16         2.7298   -0.3379    2.1134 H         1 <0>         0.0626
     38 H17         3.9336   -0.0784   -0.0383 H         1 <0>         0.0637
     39 H18         2.9315   -1.5495   -0.0410 H         1 <0>         0.0651
     40 H19        -1.0253   -0.5487   -2.4770 H         1 <0>         0.0659
     41 H20        -0.1760    1.0102   -2.4734 H         1 <0>         0.0704
     42 H21         0.7912   -1.5561   -3.8273 H         1 <0>         0.0647
     43 H22         0.1473   -0.1066   -4.6465 H         1 <0>         0.0693
     44 H23         4.3438    1.1346   -2.4614 H         1 <0>         0.0780
     45 H24         5.0022   -0.5232   -2.2598 H         1 <0>         0.0775
     46 H25         4.9746    0.8115   -4.7059 H         1 <0>         0.0983
     47 H26         4.9176   -0.9682   -4.5631 H         1 <0>         0.0926
     48 H27         1.3281    1.8490   -2.6005 H         1 <0>         0.0821
     49 H28         2.9128    2.1156   -3.3658 H         1 <0>         0.0626
     50 H29         1.4334    2.1276   -4.3554 H         1 <0>         0.0571
     51 H30        -1.4964   -4.4120    1.2449 H         1 <0>         0.3773
@<TRIPOS>BOND
     1    1    2 1
     2    1   27 1
     3    1   28 1
     4    1   29 1
     5    2    8 1
     6    2   14 1
     7    2    3 1
     8    3    4 1
     9    3   30 1
    10    3   31 1
    11    4    5 1
    12    4   32 1
    13    4   33 1
    14    5    6 1
    15    5    7 1
    16    5   26 1
    17    7    8 1
    18    7   34 1
    19    7   35 1
    20    8    9 1
    21    8   10 1
    22   10   11 1
    23   10   36 1
    24   10   37 1
    25   11   12 1
    26   11   38 1
    27   11   39 1
    28   12   13 1
    29   12   19 1
    30   12   14 1
    31   14   15 1
    32   14   16 1
    33   16   17 1
    34   16   40 1
    35   16   41 1
    36   17   18 1
    37   17   42 1
    38   17   43 1
    39   18   23 1
    40   18   19 1
    41   18   25 1
    42   19   20 1
    43   19   21 1
    44   21   22 1
    45   21   44 1
    46   21   45 1
    47   22   23 1
    48   22   46 1
    49   22   47 1
    50   23   24 2
    51   25   48 1
    52   25   49 1
    53   25   50 1
    54   26   51 1
@<TRIPOS>MOLECULE
ZINC03861550
   51    54     0     0     0
SMALL
USER_CHARGES

@<TRIPOS>ATOM
      1 C1          0.0008    1.5258    0.0212 C.3       1 <0>        -0.1534
      2 C2          0.0228   -0.0040    0.0134 C.3       1 <0>        -0.0433
      3 C3         -1.4120   -0.5354    0.0326 C.3       1 <0>        -0.1058
      4 C4         -2.1211   -0.0467    1.2971 C.3       1 <0>        -0.1546
      5 C5         -1.3727   -0.5559    2.5307 C.3       1 <0>         0.1050
      6 H1         -1.8782   -0.2082    3.4316 H         1 <0>         0.0508
      7 C6          0.0613   -0.0228    2.5122 C.3       1 <0>        -0.1097
      8 C7          0.7701   -0.5102    1.2491 C.3       1 <0>        -0.0687
      9 H2          0.7878   -1.6000    1.2414 H         1 <0>         0.0774
     10 C8          2.2046    0.0211    1.2325 C.3       1 <0>        -0.1180
     11 C9          2.9157   -0.4668   -0.0314 C.3       1 <0>        -0.1126
     12 C10         2.1706    0.0454   -1.2648 C.3       1 <0>        -0.0743
     13 H3          2.1526    1.1353   -1.2579 H         1 <0>         0.0847
     14 C11         0.7334   -0.4977   -1.2475 C.3       1 <0>        -0.0681
     15 H4          0.7685   -1.5870   -1.2284 H         1 <0>         0.0666
     16 C12        -0.0433   -0.0661   -2.4868 C.3       1 <0>        -0.1193
     17 C13         0.6921   -0.4679   -3.7764 C.3       1 <0>        -0.0973
     18 C14         2.0689    0.1634   -3.7269 C.3       1 <0>        -0.1243
     19 C15         2.8458   -0.4483   -2.5312 C.3       1 <0>        -0.0787
     20 H5          2.8101   -1.5365   -2.5838 H         1 <0>         0.0800
     21 C16         4.2661    0.0771   -2.7756 C.3       1 <0>        -0.1110
     22 C17         4.4122   -0.0523   -4.3164 C.3       1 <0>        -0.1799
     23 C18         2.9753   -0.0894   -4.8949 C.2       1 <0>         0.3773
     24 O1          2.6502   -0.2438   -6.0477 O.2       1 <0>        -0.4383
     25 C19         1.9355    1.6700   -3.4964 C.3       1 <0>        -0.1434
     26 O2         -1.3503   -1.9847    2.5183 O.3       1 <0>        -0.5631
     27 H6          1.0230    1.9040    0.0077 H         1 <0>         0.0607
     28 H7         -0.5315    1.8860   -0.8591 H         1 <0>         0.0551
     29 H8         -0.5047    1.8774    0.9207 H         1 <0>         0.0575
     30 H9         -1.9454   -0.1727   -0.8461 H         1 <0>         0.0630
     31 H10        -1.3959   -1.6252    0.0234 H         1 <0>         0.0670
     32 H11        -2.1375    1.0431    1.3063 H         1 <0>         0.0734
     33 H12        -3.1430   -0.4256    1.3100 H         1 <0>         0.0616
     34 H13         0.0440    1.0671    2.5206 H         1 <0>         0.0762
     35 H14         0.5948   -0.3845    3.3913 H         1 <0>         0.0667
     36 H15         2.1884    1.1109    1.2424 H         1 <0>         0.0637
     37 H16         2.7366   -0.3421    2.1118 H         1 <0>         0.0604
     38 H17         3.9382   -0.0893   -0.0417 H         1 <0>         0.0630
     39 H18         2.9305   -1.5567   -0.0423 H         1 <0>         0.0612
     40 H19        -1.0257   -0.5381   -2.4745 H         1 <0>         0.0658
     41 H20        -0.1687    1.0166   -2.4701 H         1 <0>         0.0702
     42 H21         0.7835   -1.5528   -3.8284 H         1 <0>         0.0649
     43 H22         0.1463   -0.0989   -4.6448 H         1 <0>         0.0691
     44 H23         4.3524    1.1182   -2.4646 H         1 <0>         0.0778
     45 H24         5.0017   -0.5433   -2.2635 H         1 <0>         0.0775
     46 H25         4.9795    0.7913   -4.7097 H         1 <0>         0.0982
     47 H26         4.9121   -0.9880   -4.5668 H         1 <0>         0.0925
     48 H27         1.3394    1.8493   -2.6016 H         1 <0>         0.0821
     49 H28         2.9257    2.1068   -3.3669 H         1 <0>         0.0625
     50 H29         1.4464    2.1273   -4.3565 H         1 <0>         0.0570
     51 H30        -2.2272   -2.3920    2.5283 H         1 <0>         0.3749
@<TRIPOS>BOND
     1    1    2 1
     2    1   27 1
     3    1   28 1
     4    1   29 1
     5    2    8 1
     6    2   14 1
     7    2    3 1
     8    3    4 1
     9    3   30 1
    10    3   31 1
    11    4    5 1
    12    4   32 1
    13    4   33 1
    14    5    6 1
    15    5    7 1
    16    5   26 1
    17    7    8 1
    18    7   34 1
    19    7   35 1
    20    8    9 1
    21    8   10 1
    22   10   11 1
    23   10   36 1
    24   10   37 1
    25   11   12 1
    26   11   38 1
    27   11   39 1
    28   12   13 1
    29   12   19 1
    30   12   14 1
    31   14   15 1
    32   14   16 1
    33   16   17 1
    34   16   40 1
    35   16   41 1
    36   17   18 1
    37   17   42 1
    38   17   43 1
    39   18   23 1
    40   18   19 1
    41   18   25 1
    42   19   20 1
    43   19   21 1
    44   21   22 1
    45   21   44 1
    46   21   45 1
    47   22   23 1
    48   22   46 1
    49   22   47 1
    50   23   24 2
    51   25   48 1
    52   25   49 1
    53   25   50 1
    54   26   51 1
@<TRIPOS>MOLECULE
ZINC00003876
   44    46     0     0     0
SMALL
USER_CHARGES

@<TRIPOS>ATOM
      1 C1         -0.9117    1.3819    0.8050 C.3       1 <0>        -0.1169
      2 C2         -0.6965   -0.0986    0.6235 C.ar      1 <0>        -0.0790
      3 C3          0.5861   -0.6161    0.6437 C.ar      1 <0>        -0.1207
      4 C4          0.7890   -1.9712    0.4780 C.ar      1 <0>        -0.0987
      5 C5         -0.3012   -2.8184    0.2904 C.ar      1 <0>        -0.0178
      6 C6         -1.5911   -2.2918    0.2714 C.ar      1 <0>        -0.0819
      7 C7         -1.7827   -0.9357    0.4429 C.ar      1 <0>        -0.1210
      8 C8         -0.0893   -4.2762    0.1112 C.2       1 <0>         0.1167
      9 C9          0.7803   -5.0491    0.8198 C.2       1 <0>        -0.0371
     10 N1          0.6641   -6.3246    0.3429 N.pl3     1 <0>        -0.3454
     11 C10         1.2856   -7.4928    0.6792 C.2       1 <0>         0.0517
     12 C11         0.9826   -8.6418    0.0396 C.2       1 <0>        -0.1050
     13 C12         0.0205   -8.6507   -0.9840 C.2       1 <0>        -0.0971
     14 C13        -0.6066   -7.4944   -1.3295 C.2       1 <0>        -0.0747
     15 C14        -0.2794   -6.3016   -0.6521 C.2       1 <0>         0.2302
     16 N2         -0.7258   -5.0604   -0.7732 N.2       1 <0>        -0.4775
     17 C15         1.6798   -9.9210    0.4248 C.3       1 <0>        -0.1052
     18 C16         1.6977   -4.5850    1.9216 C.3       1 <0>        -0.0616
     19 C17         3.0613   -4.2930    1.3502 C.2       1 <0>         0.5079
     20 O1          3.2678   -4.4466    0.1650 O.2       1 <0>        -0.5213
     21 N3          4.0514   -3.8612    2.1563 N.am      1 <0>        -0.6226
     22 C18         5.3769   -3.5773    1.6009 C.3       1 <0>         0.0837
     23 C19         3.8020   -3.6756    3.5880 C.3       1 <0>         0.0707
     24 H1         -1.0291    1.6046    1.8655 H         1 <0>         0.0717
     25 H2         -0.0517    1.9248    0.4128 H         1 <0>         0.0669
     26 H3         -1.8098    1.6870    0.2680 H         1 <0>         0.0678
     27 H4          1.4304    0.0415    0.7891 H         1 <0>         0.1238
     28 H5          1.7909   -2.3741    0.4932 H         1 <0>         0.1195
     29 H6         -2.4397   -2.9440    0.1264 H         1 <0>         0.1276
     30 H7         -2.7824   -0.5270    0.4324 H         1 <0>         0.1260
     31 H8          2.0271   -7.4974    1.4645 H         1 <0>         0.1559
     32 H9         -0.2198   -9.5716   -1.4945 H         1 <0>         0.1447
     33 H10        -1.3475   -7.4896   -2.1152 H         1 <0>         0.1539
     34 H11         1.1134  -10.4213    1.2103 H         1 <0>         0.0768
     35 H12         1.7486  -10.5737   -0.4455 H         1 <0>         0.0766
     36 H13         2.6819   -9.6934    0.7883 H         1 <0>         0.0691
     37 H14         1.2925   -3.6804    2.3750 H         1 <0>         0.1217
     38 H15         1.7804   -5.3652    2.6783 H         1 <0>         0.1017
     39 H16         5.4240   -2.5342    1.2880 H         1 <0>         0.0572
     40 H17         6.1365   -3.7635    2.3601 H         1 <0>         0.0719
     41 H18         5.5565   -4.2229    0.7412 H         1 <0>         0.0766
     42 H19         2.7674   -3.9347    3.8131 H         1 <0>         0.0792
     43 H20         4.4704   -4.3194    4.1596 H         1 <0>         0.0662
     44 H21         3.9825   -2.6347    3.8563 H         1 <0>         0.0678
@<TRIPOS>BOND
     1    1    2 1
     2    1   24 1
     3    1   25 1
     4    1   26 1
     5    2    7 ar
     6    2    3 ar
     7    3    4 ar
     8    3   27 1
     9    4    5 ar
    10    4   28 1
    11    5    6 ar
    12    5    8 1
    13    6    7 ar
    14    6   29 1
    15    7   30 1
    16    8   16 1
    17    8    9 2
    18    9   10 1
    19    9   18 1
    20   10   15 1
    21   10   11 1
    22   11   12 2
    23   11   31 1
    24   12   13 1
    25   12   17 1
    26   13   14 2
    27   13   32 1
    28   14   15 1
    29   14   33 1
    30   15   16 2
    31   17   34 1
    32   17   35 1
    33   17   36 1
    34   18   19 1
    35   18   37 1
    36   18   38 1
    37   19   20 2
    38   19   21 am
    39   21   22 1
    40   21   23 1
    41   22   39 1
    42   22   40 1
    43   22   41 1
    44   23   42 1
    45   23   43 1
    46   23   44 1
@<TRIPOS>MOLECULE
ZINC00003876
   45    47     0     0     0
SMALL
USER_CHARGES

@<TRIPOS>ATOM
      1 C1         -0.0184    1.5028    0.0103 C.3       1 <0>        -0.1298
      2 C2          0.0021   -0.0041    0.0020 C.ar      1 <0>        -0.0415
      3 C3          0.0057   -0.6865   -1.2011 C.ar      1 <0>        -0.1156
      4 C4          0.0244   -2.0665   -1.2146 C.ar      1 <0>        -0.0824
      5 C5          0.0401   -2.7722   -0.0132 C.ar      1 <0>        -0.0858
      6 C6          0.0368   -2.0796    1.1958 C.ar      1 <0>        -0.0737
      7 C7          0.0229   -0.6995    1.1975 C.ar      1 <0>        -0.1157
      8 C8          0.0597   -4.2561   -0.0214 C.2       1 <0>         0.1702
      9 C9         -0.7101   -5.0684    0.7552 C.2       1 <0>         0.0252
     10 N1         -0.3822   -6.3565    0.4370 N.pl3     1 <0>        -0.3091
     11 C10        -0.8325   -7.5609    0.8964 C.2       1 <0>         0.0725
     12 C11        -0.3332   -8.7143    0.4052 C.2       1 <0>        -0.0702
     13 C12         0.6596   -8.6908   -0.5884 C.2       1 <0>        -0.0204
     14 C13         1.1176   -7.4983   -1.0553 C.2       1 <0>        -0.1164
     15 C14         0.5863   -6.3013   -0.5324 C.cat     1 <0>         0.3049
     16 N2          0.8350   -5.0279   -0.7995 N.pl3     1 <0>        -0.5016
     17 C15        -0.8427  -10.0338    0.9253 C.3       1 <0>        -0.1221
     18 C16        -1.7306   -4.6296    1.7735 C.3       1 <0>        -0.0775
     19 C17        -1.0655   -4.4753    3.1170 C.2       1 <0>         0.5078
     20 O1          0.1204   -4.6997    3.2358 O.2       1 <0>        -0.5296
     21 N3         -1.7885   -4.0881    4.1864 N.am      1 <0>        -0.6101
     22 C18        -1.1420   -3.9381    5.4924 C.3       1 <0>         0.0789
     23 C19        -3.2211   -3.8170    4.0429 C.3       1 <0>         0.0651
     24 H1          1.0042    1.8801    0.0026 H         1 <0>         0.0833
     25 H2         -0.5455    1.8639   -0.8728 H         1 <0>         0.0766
     26 H3         -0.5286    1.8543    0.9071 H         1 <0>         0.0762
     27 H4         -0.0064   -0.1385   -2.1317 H         1 <0>         0.1390
     28 H5          0.0266   -2.5984   -2.1545 H         1 <0>         0.1289
     29 H6          0.0488   -2.6217    2.1299 H         1 <0>         0.1324
     30 H7          0.0244   -0.1616    2.1340 H         1 <0>         0.1378
     31 H8         -1.5953   -7.5907    1.6603 H         1 <0>         0.1924
     32 H9          1.0577   -9.6154   -0.9795 H         1 <0>         0.1759
     33 H10         1.8809   -7.4684   -1.8188 H         1 <0>         0.1817
     34 H11        -1.6926  -10.3574    0.3245 H         1 <0>         0.0964
     35 H12        -0.0496  -10.7791    0.8641 H         1 <0>         0.0930
     36 H13        -1.1542   -9.9192    1.9635 H         1 <0>         0.0856
     37 H14        -2.1604   -3.6752    1.4692 H         1 <0>         0.1397
     38 H15        -2.5200   -5.3780    1.8427 H         1 <0>         0.1237
     39 H16        -0.7740   -2.9178    5.6007 H         1 <0>         0.0640
     40 H17        -1.8635   -4.1498    6.2815 H         1 <0>         0.0798
     41 H18        -0.3073   -4.6352    5.5668 H         1 <0>         0.0805
     42 H19        -3.7840   -4.7329    4.2229 H         1 <0>         0.0675
     43 H20        -3.5214   -3.0581    4.7652 H         1 <0>         0.0860
     44 H21        -3.4237   -3.4585    3.0337 H         1 <0>         0.0751
     45 H22         1.4768   -4.7047   -1.4511 H         1 <0>         0.4614
@<TRIPOS>BOND
     1    1    2 1
     2    1   24 1
     3    1   25 1
     4    1   26 1
     5    2    7 ar
     6    2    3 ar
     7    3    4 ar
     8    3   27 1
     9    4    5 ar
    10    4   28 1
    11    5    6 ar
    12    5    8 1
    13    6    7 ar
    14    6   29 1
    15    7   30 1
    16    8   16 1
    17    8    9 2
    18    9   10 1
    19    9   18 1
    20   10   15 1
    21   10   11 1
    22   11   12 2
    23   11   31 1
    24   12   13 1
    25   12   17 1
    26   13   14 2
    27   13   32 1
    28   14   15 1
    29   14   33 1
    30   15   16 2
    31   16   45 1
    32   17   34 1
    33   17   35 1
    34   17   36 1
    35   18   19 1
    36   18   37 1
    37   18   38 1
    38   19   20 2
    39   19   21 am
    40   21   22 1
    41   21   23 1
    42   22   39 1
    43   22   40 1
    44   22   41 1
    45   23   42 1
    46   23   43 1
    47   23   44 1
