@<TRIPOS>MOLECULE
ZINC01532157
   30    31     0     0     0
SMALL
USER_CHARGES

@<TRIPOS>ATOM
      1 C1          0.6241    1.3582    1.1570 C.ar      1 <0>        -0.0402
      2 C2          1.1796    2.0855    0.1204 C.ar      1 <0>        -0.1470
      3 C3          1.7557    1.4341   -0.9546 C.ar      1 <0>        -0.0419
      4 C4          1.7778    0.0526   -0.9968 C.ar      1 <0>        -0.0140
      5 C5          1.2206   -0.6815    0.0429 C.ar      1 <0>         0.1822
      6 C6          0.6429   -0.0236    1.1218 C.ar      1 <0>        -0.0370
      7 Cl1        -0.0548   -0.9357    2.4237 Cl        1 <0>        -0.0099
      8 N1          1.2407   -2.0822    0.0033 N.pl3     1 <0>        -0.3493
      9 C7          0.1537   -2.9004    0.0743 C.2       1 <0>         0.5034
     10 C8          0.5952   -4.1828    0.0019 C.2       1 <0>        -0.6460
     11 C9          2.0005   -4.1488   -0.1175 C.2       1 <0>         0.2619
     12 N2          2.3813   -2.8853   -0.1222 N.2       1 <0>        -0.2092
     13 C10         2.8631   -5.2871   -0.2217 C.1       1 <0>         0.2680
     14 N3          3.5474   -6.1901   -0.3044 N.1       1 <0>        -0.3345
     15 S1         -0.4082   -5.6305    0.0487 S.o       1 <0>         1.4312
     16 O1          0.4701   -6.6422    0.5223 O.2       1 <0>        -0.7564
     17 C11        -0.8082   -5.9437   -1.6927 C.3       1 <0>         0.0980
     18 F1          0.3737   -6.1446   -2.4138 F         1 <0>        -0.1891
     19 F2         -1.6126   -7.0843   -1.7885 F         1 <0>        -0.1738
     20 F3         -1.4942   -4.8437   -2.2187 F         1 <0>        -0.1709
     21 N4         -1.1722   -2.4947    0.1993 N.pl3     1 <0>        -0.8236
     22 Cl2         2.5003   -0.7642   -2.3476 Cl        1 <0>        -0.0017
     23 C12         1.1566    3.5917    0.1623 C.3       1 <0>         0.5153
     24 F4          2.3120    4.0583    0.7985 F         1 <0>        -0.1653
     25 F5          1.1077    4.0938   -1.1426 F         1 <0>        -0.1671
     26 F6          0.0288    4.0214    0.8698 F         1 <0>        -0.1674
     27 H1          0.1790    1.8703    1.9972 H         1 <0>         0.1698
     28 H2          2.1886    2.0054   -1.7625 H         1 <0>         0.1687
     29 H3         -1.3977   -1.5525    0.1513 H         1 <0>         0.4162
     30 H4         -1.8706   -3.1542    0.3343 H         1 <0>         0.4295
@<TRIPOS>BOND
     1    1    6 ar
     2    1    2 ar
     3    1   27 1
     4    2    3 ar
     5    2   23 1
     6    3    4 ar
     7    3   28 1
     8    4    5 ar
     9    4   22 1
    10    5    6 ar
    11    5    8 1
    12    6    7 1
    13    8   12 1
    14    8    9 1
    15    9   10 2
    16    9   21 1
    17   10   11 1
    18   10   15 1
    19   11   12 2
    20   11   13 1
    21   13   14 3
    22   15   16 2
    23   15   17 1
    24   17   18 1
    25   17   19 1
    26   17   20 1
    27   21   29 1
    28   21   30 1
    29   23   24 1
    30   23   25 1
    31   23   26 1
@<TRIPOS>MOLECULE
ZINC03872568
   30    31     0     0     0
SMALL
USER_CHARGES

@<TRIPOS>ATOM
      1 C1          0.6247    1.3688    1.1156 C.ar      1 <0>        -0.0407
      2 C2          1.1752    2.0866    0.0698 C.ar      1 <0>        -0.1473
      3 C3          1.7474    1.4255   -1.0014 C.ar      1 <0>        -0.0423
      4 C4          1.7706    0.0437   -1.0304 C.ar      1 <0>        -0.0141
      5 C5          1.2185   -0.6810    0.0186 C.ar      1 <0>         0.1815
      6 C6          0.6447   -0.0133    1.0935 C.ar      1 <0>        -0.0389
      7 Cl1        -0.0467   -0.9135    2.4070 Cl        1 <0>        -0.0085
      8 N1          1.2398   -2.0820   -0.0076 N.pl3     1 <0>        -0.3518
      9 C7          0.1537   -2.9004    0.0743 C.2       1 <0>         0.4982
     10 C8          0.5961   -4.1830    0.0128 C.2       1 <0>        -0.6484
     11 C9          2.0011   -4.1489   -0.1110 C.2       1 <0>         0.2681
     12 N2          2.3807   -2.8852   -0.1288 N.2       1 <0>        -0.2063
     13 C10         2.8644   -5.2874   -0.2069 C.1       1 <0>         0.2726
     14 N3          3.5493   -6.1905   -0.2829 N.1       1 <0>        -0.3349
     15 S1         -0.4057   -5.6311    0.0764 S.o       1 <0>         1.4432
     16 O1         -1.5759   -5.2096    0.7636 O.2       1 <0>        -0.7799
     17 C11        -0.8106   -5.9613   -1.6607 C.3       1 <0>         0.1002
     18 F1          0.3694   -6.1680   -2.3834 F         1 <0>        -0.1662
     19 F2         -1.6142   -7.1035   -1.7433 F         1 <0>        -0.1725
     20 F3         -1.4991   -4.8670   -2.1952 F         1 <0>        -0.1934
     21 N4         -1.1722   -2.4947    0.1993 N.pl3     1 <0>        -0.8201
     22 Cl2         2.4882   -0.7853   -2.3764 Cl        1 <0>        -0.0015
     23 C12         1.1509    3.5932    0.0974 C.3       1 <0>         0.5156
     24 F4          2.3085    4.0668    0.7242 F         1 <0>        -0.1650
     25 F5          1.0961    4.0827   -1.2121 F         1 <0>        -0.1671
     26 F6          0.0257    4.0286    0.8055 F         1 <0>        -0.1675
     27 H1          0.1827    1.8885    1.9528 H         1 <0>         0.1695
     28 H2          2.1763    1.9894   -1.8165 H         1 <0>         0.1692
     29 H3         -1.3977   -1.5525    0.1513 H         1 <0>         0.4110
     30 H4         -1.8706   -3.1542    0.3343 H         1 <0>         0.4369
@<TRIPOS>BOND
     1    1    6 ar
     2    1    2 ar
     3    1   27 1
     4    2    3 ar
     5    2   23 1
     6    3    4 ar
     7    3   28 1
     8    4    5 ar
     9    4   22 1
    10    5    6 ar
    11    5    8 1
    12    6    7 1
    13    8   12 1
    14    8    9 1
    15    9   10 2
    16    9   21 1
    17   10   11 1
    18   10   15 1
    19   11   12 2
    20   11   13 1
    21   13   14 3
    22   15   16 2
    23   15   17 1
    24   17   18 1
    25   17   19 1
    26   17   20 1
    27   21   29 1
    28   21   30 1
    29   23   24 1
    30   23   25 1
    31   23   26 1
@<TRIPOS>MOLECULE
ZINC00006427
   33    35     0     0     0
SMALL
USER_CHARGES

@<TRIPOS>ATOM
      1 C1          0.5645    1.4220    0.1928 C.3       1 <0>         0.0583
      2 N1          0.3235   -0.0204    0.1049 N.am      1 <0>        -0.5555
      3 C2         -0.9927   -0.4531    0.1626 C.ar      1 <0>         0.1844
      4 C3         -1.9457    0.2992   -0.5272 C.ar      1 <0>        -0.1319
      5 C4         -3.2733   -0.0670   -0.5149 C.ar      1 <0>        -0.0651
      6 C5         -3.6777   -1.1917    0.1872 C.ar      1 <0>        -0.0514
      7 C6         -2.7519   -1.9453    0.8726 C.ar      1 <0>        -0.0516
      8 C7         -1.3954   -1.5853    0.8674 C.ar      1 <0>        -0.1200
      9 C8         -0.4607   -2.4388    1.6175 C.2       1 <0>         0.2679
     10 N2          0.7150   -2.7715    1.2168 N.2       1 <0>        -0.4888
     11 C9          1.2537   -2.3110   -0.0624 C.3       1 <0>         0.0242
     12 C10         1.3847   -0.8126   -0.0296 C.2       1 <0>         0.5094
     13 O1          2.4861   -0.3137   -0.1239 O.2       1 <0>        -0.5107
     14 C11        -0.9076   -2.9538    2.9327 C.ar      1 <0>        -0.0709
     15 C12        -0.3330   -4.1079    3.4647 C.ar      1 <0>        -0.0682
     16 C13        -0.7535   -4.5827    4.6901 C.ar      1 <0>        -0.1263
     17 C14        -1.7429   -3.9163    5.3909 C.ar      1 <0>        -0.0986
     18 C15        -2.3166   -2.7710    4.8684 C.ar      1 <0>        -0.1241
     19 C16        -1.9005   -2.2832    3.6466 C.ar      1 <0>        -0.0904
     20 Cl1        -5.3522   -1.6496    0.2025 Cl        1 <0>        -0.0531
     21 H1          1.6353    1.6160    0.1296 H         1 <0>         0.1025
     22 H2          0.0549    1.9262   -0.6283 H         1 <0>         0.0740
     23 H3          0.1827    1.7970    1.1424 H         1 <0>         0.0729
     24 H4         -1.6385    1.1774   -1.0758 H         1 <0>         0.1452
     25 H5         -4.0004    0.5233   -1.0528 H         1 <0>         0.1468
     26 H6         -3.0719   -2.8206    1.4183 H         1 <0>         0.1484
     27 H7          2.2331   -2.7595   -0.2287 H         1 <0>         0.1343
     28 H8          0.5774   -2.5976   -0.8678 H         1 <0>         0.0942
     29 H9          0.4392   -4.6292    2.9184 H         1 <0>         0.1347
     30 H10        -0.3096   -5.4765    5.1029 H         1 <0>         0.1285
     31 H11        -2.0690   -4.2920    6.3495 H         1 <0>         0.1264
     32 H12        -3.0889   -2.2553    5.4199 H         1 <0>         0.1284
     33 H13        -2.3460   -1.3865    3.2417 H         1 <0>         0.1261
@<TRIPOS>BOND
     1    1    2 1
     2    1   21 1
     3    1   22 1
     4    1   23 1
     5    2   12 am
     6    2    3 1
     7    3    8 ar
     8    3    4 ar
     9    4    5 ar
    10    4   24 1
    11    5    6 ar
    12    5   25 1
    13    6    7 ar
    14    6   20 1
    15    7    8 ar
    16    7   26 1
    17    8    9 1
    18    9   10 2
    19    9   14 1
    20   10   11 1
    21   11   12 1
    22   11   27 1
    23   11   28 1
    24   12   13 2
    25   14   19 ar
    26   14   15 ar
    27   15   16 ar
    28   15   29 1
    29   16   17 ar
    30   16   30 1
    31   17   18 ar
    32   17   31 1
    33   18   19 ar
    34   18   32 1
    35   19   33 1
@<TRIPOS>MOLECULE
ZINC01043853
   29    30     0     0     0
SMALL
USER_CHARGES
5-amino-1-[2,6-dichloro-4-(trifluoromethyl)phenyl]-3-methylsulfanyl-pyrazole-4-carbonitrile
@<TRIPOS>ATOM
      1 C1         -5.3298    0.3270   -0.2026 C.3       1 <0>        -0.1510
      2 S1         -5.1546    2.0874    0.1984 S.3       1 <0>         0.0058
      3 C2         -3.4203    2.3789    0.0893 C.2       1 <0>         0.1446
      4 C3         -2.7375    3.6536    0.3220 C.2       1 <0>        -0.2296
      5 C4         -1.3795    3.4092    0.1286 C.2       1 <0>         0.4582
      6 N1         -1.2450    2.1068   -0.2005 N.pl3     1 <0>        -0.3533
      7 N2         -2.5016    1.4958   -0.2160 N.2       1 <0>        -0.2717
      8 C5         -0.0309    1.4648   -0.4782 C.ar      1 <0>         0.1933
      9 C6          0.7962    1.9450   -1.4861 C.ar      1 <0>        -0.0430
     10 C7          1.9907    1.3059   -1.7607 C.ar      1 <0>        -0.0411
     11 C8          2.3625    0.1895   -1.0344 C.ar      1 <0>        -0.1529
     12 C9          1.5419   -0.2912   -0.0306 C.ar      1 <0>        -0.0431
     13 C10         0.3461    0.3430    0.2499 C.ar      1 <0>        -0.0173
     14 Cl1        -0.6836   -0.2617    1.5099 Cl        1 <0>        -0.0051
     15 C11         3.6654   -0.5046   -1.3372 C.3       1 <0>         0.5157
     16 F1          3.4534   -1.4931   -2.3043 F         1 <0>        -0.1663
     17 F2          4.5899    0.4283   -1.8188 F         1 <0>        -0.1683
     18 F3          4.1623   -1.0936   -0.1696 F         1 <0>        -0.1680
     19 Cl2         0.3300    3.3458   -2.3993 Cl        1 <0>        -0.0114
     20 N3         -0.3578    4.3314    0.2493 N.pl3     1 <0>        -0.8266
     21 C12        -3.3436    4.9002    0.6815 C.1       1 <0>         0.2939
     22 N4         -3.8245    5.8891    0.9666 N.1       1 <0>        -0.4267
     23 H1         -4.7674   -0.2674    0.5174 H         1 <0>         0.0899
     24 H2         -6.3826    0.0478   -0.1607 H         1 <0>         0.1142
     25 H3         -4.9447    0.1427   -1.2056 H         1 <0>         0.0904
     26 H4          2.6342    1.6786   -2.5440 H         1 <0>         0.1669
     27 H5          1.8354   -1.1634    0.5346 H         1 <0>         0.1665
     28 H6          0.5661    4.0424    0.1883 H         1 <0>         0.4086
     29 H7         -0.5644    5.2678    0.3951 H         1 <0>         0.4271
@<TRIPOS>BOND
     1    1    2 1
     2    1   23 1
     3    1   24 1
     4    1   25 1
     5    2    3 1
     6    3    7 2
     7    3    4 1
     8    4    5 2
     9    4   21 1
    10    5    6 1
    11    5   20 1
    12    6    7 1
    13    6    8 1
    14    8   13 ar
    15    8    9 ar
    16    9   10 ar
    17    9   19 1
    18   10   11 ar
    19   10   26 1
    20   11   12 ar
    21   11   15 1
    22   12   13 ar
    23   12   27 1
    24   13   14 1
    25   15   16 1
    26   15   17 1
    27   15   18 1
    28   20   28 1
    29   20   29 1
    30   21   22 3
@<TRIPOS>MOLECULE
ZINC12428918
   38    39     0     0     0
SMALL
USER_CHARGES

@<TRIPOS>ATOM
      1 C1          0.9243   -0.1082    1.1034 C.ar      1 <0>        -0.0388
      2 C2          2.0615    0.6722    1.0951 C.ar      1 <0>        -0.1140
      3 C3          2.2376    1.6334    0.1138 C.ar      1 <0>         0.0170
      4 C4          1.2741    1.8167   -0.8640 C.ar      1 <0>        -0.1063
      5 C5          0.1330    1.0417   -0.8652 C.ar      1 <0>        -0.0504
      6 C6         -0.0495    0.0721    0.1209 C.ar      1 <0>        -0.1601
      7 C7         -1.2725   -0.7634    0.1245 C.2       1 <0>         0.4481
      8 N1         -2.4426   -0.2066   -0.0187 N.pl3     1 <0>        -0.5077
      9 C8         -2.5640    1.2533   -0.0194 C.3       1 <0>         0.0268
     10 C9         -3.0780    1.7216   -1.3823 C.3       1 <0>        -0.1126
     11 C10        -3.2048    3.2464   -1.3831 C.3       1 <0>        -0.1843
     12 C11        -3.7109    3.7076   -2.7256 C.2       1 <0>         0.4891
     13 O1         -3.9483    2.8924   -3.6005 O.co2     1 <0>        -0.6949
     14 O2         -3.8831    4.8960   -2.9366 O.co2     1 <0>        -0.6872
     15 C12        -1.1662   -2.2294    0.2904 C.ar      1 <0>        -0.1603
     16 C13        -1.6810   -2.8450    1.4322 C.ar      1 <0>        -0.0992
     17 C14        -1.5788   -4.2137    1.5813 C.ar      1 <0>         0.1031
     18 C15        -0.9658   -4.9789    0.6005 C.ar      1 <0>        -0.0878
     19 C16        -0.4532   -4.3794   -0.5331 C.ar      1 <0>        -0.1093
     20 C17        -0.5540   -3.0068   -0.6998 C.ar      1 <0>         0.1677
     21 O3         -0.0556   -2.4178   -1.8170 O.3       1 <0>        -0.4836
     22 F1         -2.0771   -4.8095    2.6867 F         1 <0>        -0.1203
     23 Cl1         3.6710    2.6127    0.1096 Cl        1 <0>        -0.0300
     24 H1          0.7900   -0.8606    1.8665 H         1 <0>         0.1493
     25 H2          2.8159    0.5337    1.8555 H         1 <0>         0.1549
     26 H3          1.4162    2.5679   -1.6267 H         1 <0>         0.1594
     27 H4         -0.6179    1.1857   -1.6279 H         1 <0>         0.1558
     28 H5         -3.2640    1.5601    0.7578 H         1 <0>         0.1302
     29 H6         -1.5883    1.6992    0.1737 H         1 <0>         0.1224
     30 H7         -2.3780    1.4148   -2.1596 H         1 <0>         0.0795
     31 H8         -4.0537    1.2758   -1.5755 H         1 <0>         0.0853
     32 H9         -3.9047    3.5532   -0.6059 H         1 <0>         0.0685
     33 H10        -2.2290    3.6922   -1.1900 H         1 <0>         0.0662
     34 H11        -2.1582   -2.2516    2.1980 H         1 <0>         0.1539
     35 H12        -0.8887   -6.0491    0.7240 H         1 <0>         0.1590
     36 H13         0.0228   -4.9813   -1.2930 H         1 <0>         0.1616
     37 H14         0.8688   -2.1449   -1.7387 H         1 <0>         0.4077
     38 H15        -3.2329   -0.7591   -0.1246 H         1 <0>         0.4414
@<TRIPOS>BOND
     1    1    6 ar
     2    1    2 ar
     3    1   24 1
     4    2    3 ar
     5    2   25 1
     6    3    4 ar
     7    3   23 1
     8    4    5 ar
     9    4   26 1
    10    5    6 ar
    11    5   27 1
    12    6    7 1
    13    7    8 2
    14    7   15 1
    15    8    9 1
    16    8   38 1
    17    9   10 1
    18    9   28 1
    19    9   29 1
    20   10   11 1
    21   10   30 1
    22   10   31 1
    23   11   12 1
    24   11   32 1
    25   11   33 1
    26   12   13 2
    27   12   14 1
    28   15   20 ar
    29   15   16 ar
    30   16   17 ar
    31   16   34 1
    32   17   18 ar
    33   17   22 1
    34   18   19 ar
    35   18   35 1
    36   19   20 ar
    37   19   36 1
    38   20   21 1
    39   21   37 1
@<TRIPOS>MOLECULE
ZINC04375654
   36    38     0     0     0
SMALL
USER_CHARGES
4-amino-2-methyl-6-phenyl-2,5-diazabicyclo[5.4.0]undeca-5,8,10,12-tetraen-3-one
@<TRIPOS>ATOM
      1 C1         -1.5479    1.4412   -0.1691 C.3       1 <0>         0.0533
      2 N1         -0.1437    1.0299   -0.0964 N.am      1 <0>        -0.5458
      3 C2          0.8176    2.0270   -0.1542 C.ar      1 <0>         0.1451
      4 C3          0.5638    3.2048    0.5519 C.ar      1 <0>        -0.1366
      5 C4          1.4709    4.2411    0.5385 C.ar      1 <0>        -0.0504
      6 C5          2.6500    4.1233   -0.1789 C.ar      1 <0>        -0.1155
      7 C6          2.9175    2.9703   -0.8796 C.ar      1 <0>        -0.0495
      8 C7          2.0035    1.9053   -0.8754 C.ar      1 <0>        -0.1884
      9 C8          2.3556    0.7015   -1.6444 C.2       1 <0>         0.3357
     10 N2          2.1481   -0.5065   -1.2558 N.2       1 <0>        -0.5217
     11 C9          1.5153   -0.8065    0.0280 C.3       1 <0>         0.1971
     12 H1          1.4947   -1.8851    0.1836 H         1 <0>         0.2010
     13 C10         0.1091   -0.2724    0.0146 C.2       1 <0>         0.4790
     14 O1         -0.8184   -1.0482    0.1077 O.2       1 <0>        -0.4601
     15 H2          3.2223   -0.5109    1.1403 H         1 <0>         0.4485
     16 H3          2.2557    0.8372    1.0221 H         1 <0>         0.4269
     17 C11         2.9978    0.8956   -2.9653 C.ar      1 <0>        -0.1060
     18 C12         2.8146    2.0885   -3.6644 C.ar      1 <0>        -0.0749
     19 C13         3.4188    2.2651   -4.8922 C.ar      1 <0>        -0.1237
     20 C14         4.1969    1.2580   -5.4347 C.ar      1 <0>        -0.0740
     21 C15         4.3784    0.0706   -4.7482 C.ar      1 <0>        -0.1259
     22 C16         3.7833   -0.1160   -3.5174 C.ar      1 <0>        -0.0555
     23 H4         -2.1876    0.5602   -0.1171 H         1 <0>         0.1095
     24 H5         -1.7756    2.1053    0.6646 H         1 <0>         0.0864
     25 H6         -1.7252    1.9639   -1.1090 H         1 <0>         0.0848
     26 H7         -0.3532    3.3042    1.1138 H         1 <0>         0.1490
     27 H8          1.2627    5.1469    1.0885 H         1 <0>         0.1507
     28 H9          3.3597    4.9374   -0.1881 H         1 <0>         0.1505
     29 H10         3.8382    2.8839   -1.4375 H         1 <0>         0.1511
     30 H11         2.2037    2.8737   -3.2439 H         1 <0>         0.1301
     31 H12         3.2807    3.1898   -5.4328 H         1 <0>         0.1366
     32 H13         4.6641    1.3991   -6.3981 H         1 <0>         0.1357
     33 H14         4.9869   -0.7120   -5.1768 H         1 <0>         0.1367
     34 H15         3.9252   -1.0436   -2.9828 H         1 <0>         0.1371
     35 N3          2.2605   -0.1755    1.1316 N.4       1 <0>        -0.6650
     36 H16         1.8130   -0.4182    2.0232 H         1 <0>         0.4481
@<TRIPOS>BOND
     1    1    2 1
     2    1   23 1
     3    1   24 1
     4    1   25 1
     5    2   13 am
     6    2    3 1
     7    3    8 ar
     8    3    4 ar
     9    4    5 ar
    10    4   26 1
    11    5    6 ar
    12    5   27 1
    13    6    7 ar
    14    6   28 1
    15    7    8 ar
    16    7   29 1
    17    8    9 1
    18    9   10 2
    19    9   17 1
    20   10   11 1
    21   11   12 1
    22   11   13 1
    23   11   35 1
    24   13   14 2
    25   15   35 1
    26   16   35 1
    27   17   22 ar
    28   17   18 ar
    29   18   19 ar
    30   18   30 1
    31   19   20 ar
    32   19   31 1
    33   20   21 ar
    34   20   32 1
    35   21   22 ar
    36   21   33 1
    37   22   34 1
    38   35   36 1
@<TRIPOS>MOLECULE
ZINC01255325
   30    32     0     0     0
SMALL
USER_CHARGES

@<TRIPOS>ATOM
      1 C1          1.7779    1.4018    1.0412 C.ar      1 <0>        -0.1145
      2 C2          1.1699    2.0868    0.0037 C.ar      1 <0>        -0.0924
      3 C3          0.5873    1.3949   -1.0421 C.ar      1 <0>        -0.1103
      4 C4          0.6091    0.0135   -1.0569 C.ar      1 <0>        -0.0118
      5 C5          1.2209   -0.6824   -0.0132 C.ar      1 <0>        -0.0516
      6 C6          1.8065    0.0227    1.0384 C.ar      1 <0>        -0.0738
      7 C7          1.2478   -2.1633   -0.0218 C.2       1 <0>         0.2726
      8 N1          2.3938   -2.7449   -0.1304 N.2       1 <0>        -0.4796
      9 C8          2.5065   -4.2032   -0.1662 C.3       1 <0>         0.0490
     10 C9          1.7863   -4.7140   -1.3824 C.2       1 <0>         0.3924
     11 N2          0.5199   -4.5923   -1.5337 N.2       1 <0>        -0.5827
     12 C10        -0.3342   -4.0316   -0.6352 C.ar      1 <0>         0.1780
     13 C11        -0.0336   -2.8751    0.0999 C.ar      1 <0>        -0.1381
     14 C12        -0.9832   -2.3592    0.9930 C.ar      1 <0>        -0.0571
     15 C13        -2.1979   -2.9858    1.1624 C.ar      1 <0>        -0.0492
     16 C14        -2.4930   -4.1382    0.4500 C.ar      1 <0>        -0.0756
     17 C15        -1.5752   -4.6577   -0.4479 C.ar      1 <0>        -0.1035
     18 Cl1        -3.3624   -2.3314    2.2712 Cl        1 <0>        -0.0596
     19 O1          2.4997   -5.3226   -2.3508 O.3       1 <0>        -0.4545
     20 Cl2        -0.1232   -0.8543   -2.3701 Cl        1 <0>        -0.0550
     21 H1          2.2351    1.9484    1.8527 H         1 <0>         0.1365
     22 H2          1.1501    3.1666    0.0111 H         1 <0>         0.1373
     23 H3          0.1140    1.9352   -1.8486 H         1 <0>         0.1394
     24 H4          2.2817   -0.5102    1.8487 H         1 <0>         0.1363
     25 H5          3.5576   -4.4873   -0.2176 H         1 <0>         0.1285
     26 H6          2.0547   -4.6268    0.7308 H         1 <0>         0.1000
     27 H7         -0.7604   -1.4627    1.5526 H         1 <0>         0.1388
     28 H8         -3.4445   -4.6293    0.5906 H         1 <0>         0.1437
     29 H9         -1.8109   -5.5552   -1.0004 H         1 <0>         0.1439
     30 H10         1.9683   -5.6237   -3.1005 H         1 <0>         0.4125
@<TRIPOS>BOND
     1    1    6 ar
     2    1    2 ar
     3    1   21 1
     4    2    3 ar
     5    2   22 1
     6    3    4 ar
     7    3   23 1
     8    4    5 ar
     9    4   20 1
    10    5    6 ar
    11    5    7 1
    12    6   24 1
    13    7   13 1
    14    7    8 2
    15    8    9 1
    16    9   10 1
    17    9   25 1
    18    9   26 1
    19   10   11 2
    20   10   19 1
    21   11   12 1
    22   12   17 ar
    23   12   13 ar
    24   13   14 ar
    25   14   15 ar
    26   14   27 1
    27   15   16 ar
    28   15   18 1
    29   16   17 ar
    30   16   28 1
    31   17   29 1
    32   19   30 1
@<TRIPOS>MOLECULE
ZINC22064260
   14    14     0     0     0
SMALL
USER_CHARGES

@<TRIPOS>ATOM
      1 C1         -0.0171    1.4078    0.0098 C.2       1 <0>        -0.2462
      2 C2          1.2556    1.8427   -0.0000 C.2       1 <0>        -0.0707
      3 O1          2.0635    0.7709   -0.0135 O.3       1 <0>        -0.1200
      4 N1          1.2514   -0.3892   -0.0120 N.2       1 <0>        -0.4098
      5 C3          0.0021   -0.0041    0.0020 C.2       1 <0>         0.3437
      6 O2         -1.0842   -0.8174    0.0080 O.3       1 <0>        -0.6956
      7 C4          1.6978    3.2834    0.0030 C.3       1 <0>         0.0917
      8 N2          1.8546    3.7445    1.3889 N.4       1 <0>        -0.6348
      9 H1         -0.8997    2.0299    0.0256 H         1 <0>         0.1394
     10 H2          2.6504    3.3722   -0.5194 H         1 <0>         0.1450
     11 H3          0.9488    3.8944   -0.5007 H         1 <0>         0.1492
     12 H4          2.1507    4.7091    1.3910 H         1 <0>         0.4342
     13 H5          0.9728    3.6623    1.8725 H         1 <0>         0.4360
     14 H6          2.5479    3.1789    1.8552 H         1 <0>         0.4380
@<TRIPOS>BOND
     1    1    5 1
     2    1    2 2
     3    1    9 1
     4    2    3 1
     5    2    7 1
     6    3    4 1
     7    4    5 2
     8    5    6 1
     9    7    8 1
    10    7   10 1
    11    7   11 1
    12    8   12 1
    13    8   13 1
    14    8   14 1
@<TRIPOS>MOLECULE
ZINC00057674
   27    29     0     0     0
SMALL
USER_CHARGES

@<TRIPOS>ATOM
      1 C1         -0.0167    1.3795    0.0096 C.ar      1 <0>        -0.0927
      2 C2          1.1683    2.0941    0.0021 C.ar      1 <0>        -0.1234
      3 C3          2.3774    1.4305   -0.0134 C.ar      1 <0>        -0.0788
      4 C4          2.4038    0.0341   -0.0211 C.ar      1 <0>        -0.0759
      5 C5          1.2040   -0.6806   -0.0130 C.ar      1 <0>        -0.0797
      6 C6          0.0021   -0.0041    0.0020 C.ar      1 <0>        -0.1211
      7 C7          3.6944   -0.6832   -0.0382 C.2       1 <0>         0.2130
      8 C8          3.6862   -2.0434   -0.0509 C.2       1 <0>        -0.3188
      9 C9          4.9130   -2.7475   -0.0679 C.2       1 <0>         0.4216
     10 O1          4.9443   -3.9668   -0.0801 O.2       1 <0>        -0.4694
     11 C10         6.1541   -1.9476   -0.0708 C.ar      1 <0>        -0.2229
     12 C11         7.4082   -2.5556   -0.0877 C.ar      1 <0>        -0.0309
     13 C12         8.5427   -1.7738   -0.0903 C.ar      1 <0>        -0.1474
     14 C13         8.4391   -0.3905   -0.0763 C.ar      1 <0>        -0.0567
     15 C14         7.2043    0.2225   -0.0592 C.ar      1 <0>        -0.1399
     16 C15         6.0479   -0.5480   -0.0567 C.ar      1 <0>         0.1453
     17 O2          4.8296    0.0320   -0.0461 O.3       1 <0>        -0.2207
     18 H1         -0.9606    1.9042    0.0260 H         1 <0>         0.1308
     19 H2          1.1464    3.1738    0.0081 H         1 <0>         0.1325
     20 H3          3.3015    1.9894   -0.0199 H         1 <0>         0.1349
     21 H4          1.2172   -1.7605   -0.0192 H         1 <0>         0.1361
     22 H5         -0.9265   -0.5555    0.0082 H         1 <0>         0.1346
     23 H6          2.7500   -2.5817   -0.0478 H         1 <0>         0.1622
     24 H7          7.4901   -3.6324   -0.0982 H         1 <0>         0.1431
     25 H8          9.5169   -2.2399   -0.1029 H         1 <0>         0.1378
     26 H9          9.3351    0.2126   -0.0785 H         1 <0>         0.1423
     27 H10         7.1359    1.3003   -0.0477 H         1 <0>         0.1443
@<TRIPOS>BOND
     1    1    6 ar
     2    1    2 ar
     3    1   18 1
     4    2    3 ar
     5    2   19 1
     6    3    4 ar
     7    3   20 1
     8    4    5 ar
     9    4    7 1
    10    5    6 ar
    11    5   21 1
    12    6   22 1
    13    7   17 1
    14    7    8 2
    15    8    9 1
    16    8   23 1
    17    9   10 2
    18    9   11 1
    19   11   16 ar
    20   11   12 ar
    21   12   13 ar
    22   12   24 1
    23   13   14 ar
    24   13   25 1
    25   14   15 ar
    26   14   26 1
    27   15   16 ar
    28   15   27 1
    29   16   17 1
@<TRIPOS>MOLECULE
ZINC01706201
   19    18     0     0     0
SMALL
USER_CHARGES
(4R)-4-aminopentanoic acid
@<TRIPOS>ATOM
      1 C1         -0.0638    0.9713    2.5033 C.3       1 <0>        -0.1808
      2 C2         -0.7288    1.5792    1.2668 C.3       1 <0>         0.0285
      3 H1         -1.7755    1.2768    1.2315 H         1 <0>         0.1358
      4 C3         -0.0127    1.0858    0.0080 C.3       1 <0>        -0.1252
      5 C4         -0.7527    1.5927   -1.2315 C.3       1 <0>        -0.1748
      6 C5         -0.0473    1.1067   -2.4714 C.2       1 <0>         0.4538
      7 O1          0.9454    0.4249   -2.3737 O.co2     1 <0>        -0.6319
      8 H2          0.9829    1.2737    2.5386 H         1 <0>         0.0799
      9 H3         -0.5739    1.3228    3.4001 H         1 <0>         0.0752
     10 H4         -0.1264   -0.1157    2.4522 H         1 <0>         0.1041
     11 H5          0.0021   -0.0041    0.0020 H         1 <0>         0.1106
     12 H6          1.0099    1.4631    0.0003 H         1 <0>         0.0872
     13 H7         -1.7753    1.2154   -1.2238 H         1 <0>         0.0778
     14 H8         -0.7675    2.6825   -1.2255 H         1 <0>         0.0582
     15 H9          0.3165    3.3498    1.3694 H         1 <0>         0.4330
     16 H10        -1.1329    3.4713    0.5630 H         1 <0>         0.4375
     17 O2         -0.5219    1.4312   -3.6843 O.co2     1 <0>        -0.7560
     18 N1         -0.6564    3.0482    1.3577 N.4       1 <0>        -0.6443
     19 H11        -1.1129    3.3556    2.2245 H         1 <0>         0.4315
@<TRIPOS>BOND
     1    1    2 1
     2    1    8 1
     3    1    9 1
     4    1   10 1
     5    2    3 1
     6    2    4 1
     7    2   18 1
     8    4    5 1
     9    4   11 1
    10    4   12 1
    11    5    6 1
    12    5   13 1
    13    5   14 1
    14    6    7 2
    15    6   17 1
    16   15   18 1
    17   16   18 1
    18   18   19 1
@<TRIPOS>MOLECULE
ZINC28770773
   17    17     0     0     0
SMALL
USER_CHARGES
5-[(1R)-1-aminoethyl]isoxazol-3-ol
@<TRIPOS>ATOM
      1 C1          1.5753   -2.5003    1.3937 C.3       1 <0>        -0.1797
      2 C2          1.6638   -1.9335   -0.0247 C.3       1 <0>         0.1569
      3 H1          2.6846   -2.0278   -0.4235 H         1 <0>         0.1443
      4 C3          1.2543   -0.4832   -0.0125 C.2       1 <0>        -0.1635
      5 C4          2.0782    0.5897   -0.0146 C.2       1 <0>        -0.2531
      6 C5          1.1943    1.7001   -0.0002 C.2       1 <0>         0.3138
      7 N1         -0.0143    1.2049    0.0087 N.2       1 <0>        -0.4713
      8 O1          0.0021   -0.0041    0.0020 O.3       1 <0>         0.0610
      9 O2          1.5365    3.0134    0.0032 O.3       1 <0>        -0.7075
     10 N2          0.7671   -2.6881   -0.9104 N.4       1 <0>        -0.6850
     11 H2          1.8742   -3.5589    1.3848 H         1 <0>         0.0808
     12 H3          0.5413   -2.4143    1.7591 H         1 <0>         0.0841
     13 H4          2.2468   -1.9352    2.0569 H         1 <0>         0.1044
     14 H5          3.1581    0.5991   -0.0249 H         1 <0>         0.1485
     15 H6          0.8307   -2.2806   -1.9301 H         1 <0>         0.4590
     16 H7         -0.2669   -2.6021   -0.5450 H         1 <0>         0.4573
     17 H8          1.0660   -3.7467   -0.9192 H         1 <0>         0.4500
@<TRIPOS>BOND
     1    1    2 1
     2    1   11 1
     3    1   12 1
     4    1   13 1
     5    2    3 1
     6    2    4 1
     7    2   10 1
     8    4    8 1
     9    4    5 2
    10    5    6 1
    11    5   14 1
    12    6    7 2
    13    6    9 1
    14    7    8 1
    15   10   15 1
    16   10   16 1
    17   10   17 1
@<TRIPOS>MOLECULE
ZINC03581353
   19    18     0     0     0
SMALL
USER_CHARGES
(4S)-4-aminopentanoic acid
@<TRIPOS>ATOM
      1 C1         -0.7527    1.5927   -1.2315 C.3       1 <0>        -0.1808
      2 C2         -0.0127    1.0858    0.0080 C.3       1 <0>         0.0283
      3 H1          0.0021   -0.0041    0.0020 H         1 <0>         0.1390
      4 C3          1.4227    1.6154   -0.0028 C.3       1 <0>        -0.1284
      5 C4          2.1988    1.0094    1.1682 C.3       1 <0>        -0.1747
      6 C5          3.6126    1.5310    1.1575 C.2       1 <0>         0.4538
      7 O1          3.9634    2.3078    0.3011 O.co2     1 <0>        -0.6317
      8 H2         -0.2425    1.2411   -2.1283 H         1 <0>         0.1040
      9 H3         -1.7753    1.2154   -1.2238 H         1 <0>         0.0754
     10 H4         -0.7675    2.6825   -1.2255 H         1 <0>         0.0796
     11 H5          1.9050    1.3387   -0.9404 H         1 <0>         0.1104
     12 H6          1.4101    2.7011    0.0927 H         1 <0>         0.0873
     13 H7          1.7165    1.2860    2.1057 H         1 <0>         0.0579
     14 H8          2.2113   -0.0764    1.0727 H         1 <0>         0.0783
     15 H9         -1.6510    1.2229    1.2472 H         1 <0>         0.4294
     16 H10        -0.1952    1.2924    2.0482 H         1 <0>         0.4374
     17 O2          4.4820    1.1326    2.0993 O.co2     1 <0>        -0.7556
     18 N1         -0.6993    1.5846    1.2126 N.4       1 <0>        -0.6446
     19 H11        -0.7316    2.6104    1.1824 H         1 <0>         0.4347
@<TRIPOS>BOND
     1    1    2 1
     2    1    8 1
     3    1    9 1
     4    1   10 1
     5    2    3 1
     6    2    4 1
     7    2   18 1
     8    4    5 1
     9    4   11 1
    10    4   12 1
    11    5    6 1
    12    5   13 1
    13    5   14 1
    14    6    7 2
    15    6   17 1
    16   15   18 1
    17   16   18 1
    18   18   19 1
@<TRIPOS>MOLECULE
ZINC29205507
   17    17     0     0     0
SMALL
USER_CHARGES
5-[(1S)-1-aminoethyl]isoxazol-3-ol
@<TRIPOS>ATOM
      1 C1          3.0703    1.6540    1.4029 C.3       1 <0>        -0.1796
      2 C2          2.5006    1.5463   -0.0131 C.3       1 <0>         0.1569
      3 H1          2.6162    0.5260   -0.4076 H         1 <0>         0.1443
      4 C3          1.0417    1.9234    0.0024 C.2       1 <0>        -0.1636
      5 C4         -0.0126    1.0758    0.0080 C.2       1 <0>        -0.2530
      6 C5         -1.1424    1.9347    0.0171 C.2       1 <0>         0.3138
      7 N1         -0.6743    3.1541    0.0247 N.2       1 <0>        -0.4713
      8 O1          0.5347    3.1647    0.0135 O.3       1 <0>         0.0611
      9 O2         -2.4477    1.5634    0.0206 O.3       1 <0>        -0.7075
     10 N2          3.2319    2.4555   -0.9056 N.4       1 <0>        -0.6850
     11 H2          4.1352    1.3787    1.3916 H         1 <0>         0.0808
     12 H3          2.5227    0.9732    2.0712 H         1 <0>         0.1043
     13 H4          2.9625    2.6875    1.7638 H         1 <0>         0.0841
     14 H5          0.0021   -0.0041    0.0020 H         1 <0>         0.1485
     15 H6          2.8223    2.3781   -1.9236 H         1 <0>         0.4591
     16 H7          4.2968    2.1802   -0.9169 H         1 <0>         0.4500
     17 H8          3.1241    3.4890   -0.5446 H         1 <0>         0.4573
@<TRIPOS>BOND
     1    1    2 1
     2    1   11 1
     3    1   12 1
     4    1   13 1
     5    2    3 1
     6    2    4 1
     7    2   10 1
     8    4    8 1
     9    4    5 2
    10    5    6 1
    11    5   14 1
    12    6    7 2
    13    6    9 1
    14    7    8 1
    15   10   15 1
    16   10   16 1
    17   10   17 1
@<TRIPOS>MOLECULE
ZINC29205511
   17    16     0     0     0
SMALL
USER_CHARGES
(E,4S)-4-aminopent-2-enoic acid
@<TRIPOS>ATOM
      1 C1         -2.6675    5.0921    1.2240 C.3       1 <0>        -0.1763
      2 C2         -2.6319    4.1275    0.0370 C.3       1 <0>         0.0805
      3 H1         -2.7631    4.6669   -0.9127 H         1 <0>         0.1379
      4 C3         -1.3167    3.3918    0.0267 C.2       1 <0>        -0.1942
      5 C4         -1.2987    2.0612    0.0194 C.2       1 <0>        -0.1467
      6 C5         -0.0162    1.3438    0.0094 C.2       1 <0>         0.4657
      7 O1          1.0279    1.9657    0.0028 O.co2     1 <0>        -0.6168
      8 O2          0.0021   -0.0041    0.0020 O.co2     1 <0>        -0.7430
      9 N1         -3.7323    3.1618    0.1576 N.4       1 <0>        -0.6887
     10 H2         -3.6275    5.6290    1.2314 H         1 <0>         0.0769
     11 H3         -1.8436    5.8153    1.1336 H         1 <0>         0.1044
     12 H4         -2.5570    4.5255    2.1603 H         1 <0>         0.0811
     13 H5         -0.3716    3.9547    0.0252 H         1 <0>         0.1597
     14 H6         -2.2438    1.4983    0.0209 H         1 <0>         0.0982
     15 H7         -3.7067    2.4683   -0.6958 H         1 <0>         0.4583
     16 H8         -4.6923    3.6988    0.1650 H         1 <0>         0.4488
     17 H9         -3.6219    2.5952    1.0940 H         1 <0>         0.4542
@<TRIPOS>BOND
     1    1    2 1
     2    1   10 1
     3    1   11 1
     4    1   12 1
     5    2    3 1
     6    2    4 1
     7    2    9 1
     8    4    5 2
     9    4   13 1
    10    5    6 1
    11    5   14 1
    12    6    7 2
    13    6    8 1
    14    9   15 1
    15    9   16 1
    16    9   17 1
@<TRIPOS>MOLECULE
ZINC02602006
   29    32     0     0     0
SMALL
USER_CHARGES

@<TRIPOS>ATOM
      1 C1         -0.0167    1.3790    0.0096 C.ar      1 <0>        -0.1143
      2 C2          1.1687    2.0918    0.0021 C.ar      1 <0>        -0.1254
      3 C3          2.3774    1.4257   -0.0134 C.ar      1 <0>        -0.0863
      4 C4          2.4021    0.0327   -0.0211 C.ar      1 <0>         0.0028
      5 C5          1.2051   -0.6804   -0.0130 C.ar      1 <0>        -0.0794
      6 C6          0.0021   -0.0041    0.0020 C.ar      1 <0>        -0.1276
      7 C7          3.6988   -0.6891   -0.0383 C.2       1 <0>         0.2496
      8 N1          3.8445   -2.0182   -0.0522 N.2       1 <0>        -0.5379
      9 C8          5.1235   -2.3227   -0.0660 C.2       1 <0>         0.3317
     10 C9          5.8793   -3.5805   -0.0845 C.ar      1 <0>        -0.1633
     11 C10         5.2479   -4.8223   -0.0916 C.ar      1 <0>        -0.0298
     12 C11         6.0073   -5.9715   -0.1095 C.ar      1 <0>        -0.1946
     13 C12         7.3943   -5.9009   -0.1201 C.ar      1 <0>        -0.0686
     14 C13         8.0381   -4.6847   -0.1134 C.ar      1 <0>        -0.1518
     15 C14         7.2905   -3.5042   -0.0958 C.ar      1 <0>         0.2208
     16 N2          7.8889   -2.2882   -0.0887 N.2       1 <0>        -0.5963
     17 C15         7.2017   -1.1787   -0.0719 C.2       1 <0>         0.6162
     18 N3          5.8358   -1.1528   -0.0609 N.pl3     1 <0>        -0.3463
     19 N4          4.8877   -0.1209   -0.0479 N.2       1 <0>        -0.2856
     20 O1          7.8702   -0.0045   -0.0654 O.3       1 <0>        -0.6417
     21 H1         -0.9602    1.9042    0.0260 H         1 <0>         0.1213
     22 H2          1.1483    3.1716    0.0081 H         1 <0>         0.1251
     23 H3          3.3023    1.9833   -0.0199 H         1 <0>         0.1324
     24 H4          1.2187   -1.7603   -0.0189 H         1 <0>         0.1350
     25 H5         -0.9264   -0.5558    0.0079 H         1 <0>         0.1248
     26 H6          4.1697   -4.8837   -0.0827 H         1 <0>         0.1241
     27 H7          5.5200   -6.9354   -0.1149 H         1 <0>         0.1175
     28 H8          7.9747   -6.8116   -0.1333 H         1 <0>         0.1191
     29 H9          9.1172   -4.6426   -0.1214 H         1 <0>         0.1283
@<TRIPOS>BOND
     1    1    6 ar
     2    1    2 ar
     3    1   21 1
     4    2    3 ar
     5    2   22 1
     6    3    4 ar
     7    3   23 1
     8    4    5 ar
     9    4    7 1
    10    5    6 ar
    11    5   24 1
    12    6   25 1
    13    7   19 2
    14    7    8 1
    15    8    9 2
    16    9   18 1
    17    9   10 1
    18   10   15 ar
    19   10   11 ar
    20   11   12 ar
    21   11   26 1
    22   12   13 ar
    23   12   27 1
    24   13   14 ar
    25   13   28 1
    26   14   15 ar
    27   14   29 1
    28   15   16 1
    29   16   17 2
    30   17   18 1
    31   17   20 1
    32   18   19 1
@<TRIPOS>MOLECULE
ZINC00591443
   47    50     0     0     0
SMALL
USER_CHARGES
5-(5-methylisoxazol-3-yl)-8-[(2-methyl-1,2,4-triazol-3-yl)methoxy]-9-tert-butyl-3,4,6,7-tetrazabicyclo[4.3.0]nona-2,4,7,9-tetraene
@<TRIPOS>ATOM
      1 C1          5.4933    5.3770    0.1485 C.3       1 <0>        -0.0775
      2 C2          4.8665    4.0071    0.1091 C.2       1 <0>        -0.0268
      3 C3          3.5483    3.7201    0.1977 C.2       1 <0>        -0.1797
      4 C4          3.5001    2.2992    0.1108 C.2       1 <0>         0.0325
      5 N1          4.7428    1.9013   -0.0245 N.2       1 <0>        -0.3042
      6 O1          5.5077    2.8376   -0.0268 O.3       1 <0>         0.1317
      7 C5          2.2930    1.4458    0.1572 C.2       1 <0>         0.4220
      8 N2          1.1053    1.9930    0.2969 N.2       1 <0>        -0.2650
      9 N3          0.0241    1.3028    0.3439 N.2       1 <0>        -0.2272
     10 C6          0.0311   -0.0096    0.2542 C.2       1 <0>         0.1106
     11 C7          1.2617   -0.6745    0.1024 C.2       1 <0>         0.0685
     12 N4          2.4114    0.0852    0.0542 N.pl3     1 <0>        -0.2874
     13 N5          3.4879   -0.7900   -0.0990 N.2       1 <0>        -0.2978
     14 C8          3.0295   -2.0260   -0.1434 C.2       1 <0>         0.3023
     15 C9          1.6434   -1.9984   -0.0210 C.2       1 <0>        -0.1649
     16 C10         0.7252   -3.1935   -0.0226 C.3       1 <0>         0.0106
     17 C11        -0.2532   -3.0833   -1.1937 C.3       1 <0>        -0.1416
     18 C12         1.5527   -4.4722   -0.1680 C.3       1 <0>        -0.1347
     19 C13        -0.0559   -3.2382    1.2921 C.3       1 <0>        -0.1425
     20 O2          3.7878   -3.1451   -0.2856 O.3       1 <0>        -0.2611
     21 C14         5.2006   -2.9617   -0.3964 C.3       1 <0>         0.1403
     22 C15         5.8711   -4.3030   -0.5460 C.2       1 <0>         0.2696
     23 N6          6.3099   -5.0557    0.4300 N.2       1 <0>        -0.5174
     24 C16         6.8429   -6.1722   -0.0648 C.2       1 <0>         0.2028
     25 N7          6.7579   -6.1413   -1.3688 N.2       1 <0>        -0.3052
     26 N8          6.1279   -4.9322   -1.7059 N.pl3     1 <0>        -0.3635
     27 C17         5.8125   -4.4524   -3.0537 C.3       1 <0>         0.0895
     28 H1          6.5747    5.2849    0.0478 H         1 <0>         0.0875
     29 H2          5.1020    5.9793   -0.6714 H         1 <0>         0.0962
     30 H3          5.2564    5.8578    1.0976 H         1 <0>         0.0963
     31 H4          2.7236    4.4082    0.3107 H         1 <0>         0.1884
     32 H5         -0.8927   -0.5675    0.2969 H         1 <0>         0.1999
     33 H6          0.3033   -3.0515   -2.1304 H         1 <0>         0.0567
     34 H7         -0.9173   -3.9477   -1.1949 H         1 <0>         0.0667
     35 H8         -0.8427   -2.1724   -1.0902 H         1 <0>         0.0549
     36 H9          2.2498   -4.5506    0.6663 H         1 <0>         0.0635
     37 H10         0.8887   -5.3365   -0.1691 H         1 <0>         0.0611
     38 H11         2.1093   -4.4403   -1.1046 H         1 <0>         0.0584
     39 H12        -0.7171   -2.3737    1.3515 H         1 <0>         0.0553
     40 H13        -0.6485   -4.1522    1.3318 H         1 <0>         0.0669
     41 H14         0.6413   -3.2206    2.1298 H         1 <0>         0.0583
     42 H15         5.4198   -2.3466   -1.2692 H         1 <0>         0.0938
     43 H16         5.5742   -2.4667    0.5000 H         1 <0>         0.1100
     44 H17         7.2787   -6.9709    0.5170 H         1 <0>         0.2241
     45 H18         6.6499   -3.8693   -3.4370 H         1 <0>         0.0858
     46 H19         5.6324   -5.3040   -3.7097 H         1 <0>         0.0997
     47 H20         4.9207   -3.8268   -3.0172 H         1 <0>         0.0925
@<TRIPOS>BOND
     1    1    2 1
     2    1   28 1
     3    1   29 1
     4    1   30 1
     5    2    6 1
     6    2    3 2
     7    3    4 1
     8    3   31 1
     9    4    5 2
    10    4    7 1
    11    5    6 1
    12    7   12 1
    13    7    8 2
    14    8    9 1
    15    9   10 2
    16   10   11 1
    17   10   32 1
    18   11   15 2
    19   11   12 1
    20   12   13 1
    21   13   14 2
    22   14   15 1
    23   14   20 1
    24   15   16 1
    25   16   17 1
    26   16   18 1
    27   16   19 1
    28   17   33 1
    29   17   34 1
    30   17   35 1
    31   18   36 1
    32   18   37 1
    33   18   38 1
    34   19   39 1
    35   19   40 1
    36   19   41 1
    37   20   21 1
    38   21   22 1
    39   21   42 1
    40   21   43 1
    41   22   26 1
    42   22   23 2
    43   23   24 1
    44   24   25 2
    45   24   44 1
    46   25   26 1
    47   26   27 1
    48   27   45 1
    49   27   46 1
    50   27   47 1
@<TRIPOS>MOLECULE
ZINC00001464
   36    38     0     0     0
SMALL
USER_CHARGES

@<TRIPOS>ATOM
      1 C1         -0.0187    1.5258    0.0104 C.3       1 <0>        -0.1527
      2 C2          0.0021   -0.0041    0.0020 C.3       1 <0>         0.0595
      3 O1         -1.3386   -0.4987    0.0122 O.3       1 <0>        -0.3295
      4 C3         -1.4970   -1.8373    0.0065 C.2       1 <0>         0.5595
      5 O2         -0.5232   -2.5645   -0.0067 O.2       1 <0>        -0.5059
      6 C4         -2.8491   -2.4182    0.0163 C.2       1 <0>        -0.0204
      7 C5         -3.1574   -3.7441    0.0176 C.2       1 <0>         0.0514
      8 N1         -4.5094   -3.8420    0.0002 N.pl3     1 <0>        -0.4034
      9 C6         -5.0118   -2.5765    0.0278 C.2       1 <0>         0.2113
     10 N2         -4.0219   -1.7299    0.0316 N.2       1 <0>        -0.4291
     11 C7         -5.2437   -5.0283   -0.0696 C.ar      1 <0>         0.1361
     12 C8         -6.4178   -5.0243   -0.8179 C.ar      1 <0>        -0.0943
     13 C9         -7.1677   -6.1733   -0.9504 C.ar      1 <0>        -0.1054
     14 C10        -6.7527   -7.3466   -0.3378 C.ar      1 <0>         0.1093
     15 C11        -5.6005   -7.3636    0.4163 C.ar      1 <0>        -0.0832
     16 C12        -4.8343   -6.1965    0.5748 C.ar      1 <0>        -0.0860
     17 C13        -3.6619   -6.2637    1.4502 C.2       1 <0>         0.5507
     18 O3         -3.7840   -6.9146    2.4698 O.2       1 <0>        -0.5260
     19 N3         -2.4758   -5.6895    1.2509 N.am      1 <0>        -0.5964
     20 C14        -2.1949   -4.9033    0.0447 C.3       1 <0>         0.1632
     21 C15        -1.4269   -5.8469    2.2614 C.3       1 <0>         0.0754
     22 F1         -7.4809   -8.4755   -0.4809 F         1 <0>        -0.1229
     23 H1          1.0039    1.9031    0.0027 H         1 <0>         0.0814
     24 H2         -0.5459    1.8868   -0.8726 H         1 <0>         0.0681
     25 H3         -0.5289    1.8773    0.9072 H         1 <0>         0.0679
     26 H4          0.5123   -0.3556   -0.8948 H         1 <0>         0.0706
     27 H5          0.5293   -0.3651    0.8851 H         1 <0>         0.0701
     28 H6         -6.0600   -2.3172    0.0476 H         1 <0>         0.2269
     29 H7         -6.7439   -4.1135   -1.2980 H         1 <0>         0.1544
     30 H8         -8.0784   -6.1600   -1.5308 H         1 <0>         0.1586
     31 H9         -5.2835   -8.2812    0.8896 H         1 <0>         0.1586
     32 H10        -2.3373   -5.5225   -0.8409 H         1 <0>         0.0971
     33 H11        -1.1705   -4.5322    0.0760 H         1 <0>         0.1471
     34 H12        -1.8034   -6.4548    3.0841 H         1 <0>         0.0976
     35 H13        -0.5619   -6.3366    1.8141 H         1 <0>         0.0726
     36 H14        -1.1351   -4.8666    2.6380 H         1 <0>         0.0680
@<TRIPOS>BOND
     1    1    2 1
     2    1   23 1
     3    1   24 1
     4    1   25 1
     5    2    3 1
     6    2   26 1
     7    2   27 1
     8    3    4 1
     9    4    5 2
    10    4    6 1
    11    6   10 1
    12    6    7 2
    13    7   20 1
    14    7    8 1
    15    8    9 1
    16    8   11 1
    17    9   10 2
    18    9   28 1
    19   11   16 ar
    20   11   12 ar
    21   12   13 ar
    22   12   29 1
    23   13   14 ar
    24   13   30 1
    25   14   15 ar
    26   14   22 1
    27   15   16 ar
    28   15   31 1
    29   16   17 1
    30   17   18 2
    31   17   19 am
    32   19   20 1
    33   19   21 1
    34   20   32 1
    35   20   33 1
    36   21   34 1
    37   21   35 1
    38   21   36 1
@<TRIPOS>MOLECULE
ZINC03813003
   32    34     0     0     0
SMALL
USER_CHARGES
6-(2-chlorophenyl)-9-nitro-2,5-diazabicyclo[5.4.0]undeca-5,7,9,11-tetraen-3-one
@<TRIPOS>ATOM
      1 C1         -0.9263    2.6093    1.0664 C.ar      1 <0>        -0.1113
      2 C2         -1.2194    1.7464    0.0248 C.ar      1 <0>        -0.0882
      3 C3         -0.3364    1.6002   -1.0293 C.ar      1 <0>        -0.1087
      4 C4          0.8504    2.3075   -1.0426 C.ar      1 <0>        -0.0117
      5 C5          1.1536    3.1748    0.0081 C.ar      1 <0>        -0.0589
      6 C6          0.2552    3.3212    1.0652 C.ar      1 <0>        -0.0703
      7 C7          2.4236    3.9367    0.0005 C.2       1 <0>         0.2679
      8 N1          2.3488    5.2171   -0.0965 N.2       1 <0>        -0.4640
      9 C8          3.5433    6.0613   -0.1155 C.3       1 <0>         0.0173
     10 C9          4.3425    5.7386   -1.3485 C.2       1 <0>         0.5139
     11 O1          4.5038    6.5976   -2.1894 O.2       1 <0>        -0.4972
     12 N2          4.8775    4.5351   -1.5405 N.am      1 <0>        -0.6621
     13 C10         4.8170    3.4830   -0.6398 C.ar      1 <0>         0.2310
     14 C11         3.6768    3.1720    0.0986 C.ar      1 <0>        -0.1270
     15 C12         3.7066    2.0828    0.9824 C.ar      1 <0>         0.0090
     16 C13         4.8482    1.3279    1.1230 C.ar      1 <0>        -0.0573
     17 C14         5.9805    1.6403    0.3896 C.ar      1 <0>        -0.0148
     18 C15         5.9663    2.7060   -0.4835 C.ar      1 <0>        -0.1418
     19 N3          4.8662    0.1814    2.0592 N.pl3     1 <0>         0.0285
     20 O2          3.8706   -0.0934    2.7047 O.2       1 <0>        -0.1516
     21 O3          5.8767   -0.4871    2.1840 O.3       1 <0>        -0.1507
     22 Cl1         1.9618    2.1175   -2.3626 Cl        1 <0>        -0.0619
     23 H1         -1.6223    2.7222    1.8844 H         1 <0>         0.1389
     24 H2         -2.1437    1.1878    0.0333 H         1 <0>         0.1393
     25 H3         -0.5727    0.9284   -1.8412 H         1 <0>         0.1406
     26 H4          0.4843    3.9905    1.8812 H         1 <0>         0.1385
     27 H5          4.1458    5.8660    0.7715 H         1 <0>         0.1004
     28 H6          3.2510    7.1112   -0.1344 H         1 <0>         0.1410
     29 H7          5.3466    4.3823   -2.3756 H         1 <0>         0.4193
     30 H8          2.8264    1.8351    1.5571 H         1 <0>         0.1644
     31 H9          6.8762    1.0474    0.5020 H         1 <0>         0.1668
     32 H10         6.8534    2.9432   -1.0520 H         1 <0>         0.1605
@<TRIPOS>BOND
     1    1    6 ar
     2    1    2 ar
     3    1   23 1
     4    2    3 ar
     5    2   24 1
     6    3    4 ar
     7    3   25 1
     8    4    5 ar
     9    4   22 1
    10    5    6 ar
    11    5    7 1
    12    6   26 1
    13    7   14 1
    14    7    8 2
    15    8    9 1
    16    9   10 1
    17    9   27 1
    18    9   28 1
    19   10   11 2
    20   10   12 am
    21   12   13 1
    22   12   29 1
    23   13   18 ar
    24   13   14 ar
    25   14   15 ar
    26   15   16 ar
    27   15   30 1
    28   16   17 ar
    29   16   19 1
    30   17   18 ar
    31   17   31 1
    32   18   32 1
    33   19   20 2
    34   19   21 1
@<TRIPOS>MOLECULE
ZINC03984030
   58    63     0     0     0
SMALL
USER_CHARGES
8-[5-(5,7-dihydroxy-4-oxo-chromen-2-yl)-2-hydroxy-phenyl]-5,7-dihydroxy-2-(4-hydroxyphenyl)chromen-4-one
@<TRIPOS>ATOM
      1 C1         -6.6020    1.8042    6.0990 C.ar      1 <0>        -0.0607
      2 C2         -5.9382    1.4440    7.2507 C.ar      1 <0>        -0.1468
      3 C3         -4.7115    0.7954    7.1742 C.ar      1 <0>         0.1378
      4 C4         -4.1521    0.5021    5.9364 C.ar      1 <0>        -0.1491
      5 C5         -4.8118    0.8534    4.7796 C.ar      1 <0>        -0.0601
      6 C6         -6.0457    1.5059    4.8519 C.ar      1 <0>        -0.0854
      7 C7         -6.7560    1.8841    3.6156 C.2       1 <0>         0.2075
      8 C8         -7.9553    2.5182    3.7175 C.2       1 <0>        -0.3096
      9 C9         -8.6505    2.8878    2.5419 C.2       1 <0>         0.4236
     10 O1         -9.7281    3.4581    2.5954 O.2       1 <0>        -0.4510
     11 C10        -8.0226    2.5578    1.2508 C.ar      1 <0>        -0.2639
     12 C11        -8.6408    2.8871    0.0370 C.ar      1 <0>         0.2260
     13 C12        -8.0238    2.5633   -1.1580 C.ar      1 <0>        -0.2031
     14 C13        -6.7962    1.9146   -1.1593 C.ar      1 <0>         0.2147
     15 C14        -6.1693    1.5806    0.0441 C.ar      1 <0>        -0.1114
     16 C15        -6.7847    1.8965    1.2584 C.ar      1 <0>         0.1942
     17 O2         -6.1949    1.5893    2.4322 O.3       1 <0>        -0.2149
     18 C16        -4.8586    0.8881    0.0326 C.ar      1 <0>        -0.0643
     19 C17        -3.6811    1.6258    0.0345 C.ar      1 <0>        -0.0359
     20 C18        -2.4507    0.9671    0.0193 C.ar      1 <0>        -0.0795
     21 C19        -2.4076   -0.4306    0.0120 C.ar      1 <0>        -0.0561
     22 C20        -3.5773   -1.1593    0.0145 C.ar      1 <0>        -0.1433
     23 C21        -4.8042   -0.5114    0.0247 C.ar      1 <0>         0.1513
     24 O3         -5.9530   -1.2346    0.0276 O.3       1 <0>        -0.4914
     25 C22        -1.1969    1.7446    0.0172 C.2       1 <0>         0.2090
     26 C23        -0.0126    1.0758    0.0080 C.2       1 <0>        -0.3096
     27 C24         1.2002    1.8049    0.0003 C.2       1 <0>         0.4229
     28 O4          2.2808    1.2378   -0.0122 O.2       1 <0>        -0.4531
     29 C25         1.1075    3.2746    0.0085 C.ar      1 <0>        -0.2660
     30 C26         2.2563    4.0758    0.0013 C.ar      1 <0>         0.2193
     31 C27         2.1265    5.4522    0.0089 C.ar      1 <0>        -0.2047
     32 C28         0.8637    6.0348    0.0232 C.ar      1 <0>         0.1929
     33 C29        -0.2774    5.2478    0.0309 C.ar      1 <0>        -0.1830
     34 C30        -0.1673    3.8660    0.0234 C.ar      1 <0>         0.1835
     35 O5         -1.2685    3.0851    0.0294 O.3       1 <0>        -0.2179
     36 O6          0.7475    7.3873    0.0302 O.3       1 <0>        -0.4872
     37 O7          3.4876    3.5054   -0.0136 O.3       1 <0>        -0.4723
     38 O8         -6.2009    1.6021   -2.3382 O.3       1 <0>        -0.4809
     39 O9         -9.8401    3.5219    0.0339 O.3       1 <0>        -0.4713
     40 O10        -4.0576    0.4477    8.3120 O.3       1 <0>        -0.4966
     41 H1         -7.5530    2.3125    6.1593 H         1 <0>         0.1416
     42 H2         -6.3694    1.6701    8.2147 H         1 <0>         0.1417
     43 H3         -3.1984   -0.0018    5.8814 H         1 <0>         0.1389
     44 H4         -4.3761    0.6254    3.8180 H         1 <0>         0.1375
     45 H5         -8.3735    2.7383    4.6886 H         1 <0>         0.1643
     46 H6         -8.4990    2.8165   -2.0942 H         1 <0>         0.1534
     47 H7         -3.7179    2.7051    0.0447 H         1 <0>         0.1398
     48 H8         -1.4554   -0.9401    0.0047 H         1 <0>         0.1436
     49 H9         -3.5389   -2.2386    0.0088 H         1 <0>         0.1450
     50 H10        -6.2808   -1.4486    0.9118 H         1 <0>         0.3974
     51 H11         0.0021   -0.0041    0.0020 H         1 <0>         0.1641
     52 H12         3.0078    6.0765    0.0034 H         1 <0>         0.1502
     53 H13        -1.2527    5.7115    0.0424 H         1 <0>         0.1530
     54 H14         0.7056    7.7831   -0.8511 H         1 <0>         0.4041
     55 H15         3.8358    3.3444   -0.9013 H         1 <0>         0.4032
     56 H16        -6.4413    0.7307   -2.6814 H         1 <0>         0.4051
     57 H17       -10.6010    2.9252    0.0313 H         1 <0>         0.4046
     58 H18        -3.4554    1.1280    8.6431 H         1 <0>         0.3992
@<TRIPOS>BOND
     1    1    6 ar
     2    1    2 ar
     3    1   41 1
     4    2    3 ar
     5    2   42 1
     6    3    4 ar
     7    3   40 1
     8    4    5 ar
     9    4   43 1
    10    5    6 ar
    11    5   44 1
    12    6    7 1
    13    7   17 1
    14    7    8 2
    15    8    9 1
    16    8   45 1
    17    9   10 2
    18    9   11 1
    19   11   16 ar
    20   11   12 ar
    21   12   13 ar
    22   12   39 1
    23   13   14 ar
    24   13   46 1
    25   14   15 ar
    26   14   38 1
    27   15   16 ar
    28   15   18 1
    29   16   17 1
    30   18   23 ar
    31   18   19 ar
    32   19   20 ar
    33   19   47 1
    34   20   21 ar
    35   20   25 1
    36   21   22 ar
    37   21   48 1
    38   22   23 ar
    39   22   49 1
    40   23   24 1
    41   24   50 1
    42   25   35 1
    43   25   26 2
    44   26   27 1
    45   26   51 1
    46   27   28 2
    47   27   29 1
    48   29   34 ar
    49   29   30 ar
    50   30   31 ar
    51   30   37 1
    52   31   32 ar
    53   31   52 1
    54   32   33 ar
    55   32   36 1
    56   33   34 ar
    57   33   53 1
    58   34   35 1
    59   36   54 1
    60   37   55 1
    61   38   56 1
    62   39   57 1
    63   40   58 1
@<TRIPOS>MOLECULE
ZINC03793347
   48    51     0     0     0
SMALL
USER_CHARGES
3-[(1-methylpyrrolidin-2-yl)methyl]-N-(3-nitro-2-pyridyl)-1H-indol-5-amine
@<TRIPOS>ATOM
      1 C1          4.3520    6.6178   -3.8708 C.3       1 <0>        -0.0469
      2 C2          6.4587    5.5578   -4.4389 C.3       1 <0>        -0.0148
      3 C3          7.7401    6.3607   -4.7466 C.3       1 <0>        -0.1406
      4 C4          7.9269    7.2233   -3.4707 C.3       1 <0>        -0.1409
      5 C5          6.4592    7.5390   -3.0889 C.3       1 <0>         0.0313
      6 H1          6.0833    8.3750   -3.6787 H         1 <0>         0.1406
      7 C6          6.3530    7.8521   -1.5950 C.3       1 <0>        -0.0545
      8 C7          4.9267    8.1996   -1.2547 C.2       1 <0>        -0.2290
      9 C8          4.3999    9.4325   -1.1868 C.2       1 <0>         0.0999
     10 N1          3.0760    9.3565   -0.8506 N.pl3     1 <0>        -0.5851
     11 H2          2.4841   10.1172   -0.7414 H         1 <0>         0.4259
     12 C9          2.7086    8.0368   -0.6897 C.ar      1 <0>         0.0869
     13 C10         3.8523    7.2559   -0.9361 C.ar      1 <0>        -0.0893
     14 C11         3.7817    5.8648   -0.8409 C.ar      1 <0>        -0.1398
     15 C12         2.5807    5.2631   -0.5137 C.ar      1 <0>         0.1573
     16 C13         1.4498    6.0405   -0.2700 C.ar      1 <0>        -0.0874
     17 C14         1.5109    7.4133   -0.3568 C.ar      1 <0>        -0.0913
     18 N2          2.5016    3.8681   -0.4213 N.pl3     1 <0>        -0.6429
     19 C15         1.3342    3.2116   -0.7951 C.ar      1 <0>         0.4532
     20 C16         1.2182    1.8402   -0.5896 C.ar      1 <0>        -0.1587
     21 C17         0.0516    1.2001   -0.9662 C.ar      1 <0>         0.0340
     22 C18        -0.9620    1.9545   -1.5428 C.ar      1 <0>        -0.2160
     23 C19        -0.7815    3.3125   -1.7120 C.ar      1 <0>         0.2016
     24 N3          0.3426    3.8970   -1.3432 N.ar      1 <0>        -0.5214
     25 N4          2.3282    1.0771    0.0241 N.pl3     1 <0>         0.0480
     26 O1          2.2658   -0.1372    0.0959 O.2       1 <0>        -0.1292
     27 O2          3.3039    1.6634    0.4573 O.3       1 <0>        -0.1990
     28 H3          4.4051    7.2375   -4.7659 H         1 <0>         0.1176
     29 H4          3.8241    5.6922   -4.1005 H         1 <0>         0.1148
     30 H5          3.8181    7.1558   -3.0875 H         1 <0>         0.1324
     31 H6          6.7219    4.5697   -4.0616 H         1 <0>         0.1267
     32 H7          5.8533    5.4612   -5.3402 H         1 <0>         0.1307
     33 H8          8.5894    5.6921   -4.8875 H         1 <0>         0.1120
     34 H9          7.5973    6.9939   -5.6223 H         1 <0>         0.0982
     35 H10         8.4774    8.1371   -3.6943 H         1 <0>         0.1171
     36 H11         8.4213    6.6541   -2.6835 H         1 <0>         0.0999
     37 H12         7.0000    8.6955   -1.3536 H         1 <0>         0.1178
     38 H13         6.6621    6.9804   -1.0182 H         1 <0>         0.0919
     39 H14         4.9413   10.3489   -1.3700 H         1 <0>         0.1782
     40 H15         4.6588    5.2623   -1.0257 H         1 <0>         0.1143
     41 H16         0.5170    5.5618   -0.0110 H         1 <0>         0.1430
     42 H17         0.6285    8.0060   -0.1659 H         1 <0>         0.1330
     43 H18         3.2612    3.3597   -0.0964 H         1 <0>         0.4334
     44 H19        -0.0668    0.1367   -0.8194 H         1 <0>         0.1700
     45 H20        -1.8839    1.4841   -1.8516 H         1 <0>         0.1637
     46 H21        -1.5688    3.9036   -2.1562 H         1 <0>         0.1838
     47 N5          5.7242    6.2966   -3.3990 N.4       1 <0>        -0.3920
     48 H22         5.6610    5.7189   -2.5525 H         1 <0>         0.4214
@<TRIPOS>BOND
     1    1   28 1
     2    1   29 1
     3    1   30 1
     4    1   47 1
     5    2    3 1
     6    2   31 1
     7    2   32 1
     8    2   47 1
     9    3    4 1
    10    3   33 1
    11    3   34 1
    12    4    5 1
    13    4   35 1
    14    4   36 1
    15    5    6 1
    16    5    7 1
    17    5   47 1
    18    7    8 1
    19    7   37 1
    20    7   38 1
    21    8   13 1
    22    8    9 2
    23    9   10 1
    24    9   39 1
    25   10   11 1
    26   10   12 1
    27   12   17 ar
    28   12   13 ar
    29   13   14 ar
    30   14   15 ar
    31   14   40 1
    32   15   16 ar
    33   15   18 1
    34   16   17 ar
    35   16   41 1
    36   17   42 1
    37   18   19 1
    38   18   43 1
    39   19   24 ar
    40   19   20 ar
    41   20   21 ar
    42   20   25 1
    43   21   22 ar
    44   21   44 1
    45   22   23 ar
    46   22   45 1
    47   23   24 ar
    48   23   46 1
    49   25   26 2
    50   25   27 1
    51   47   48 1
@<TRIPOS>MOLECULE
ZINC01532620
   16    15     0     0     0
SMALL
USER_CHARGES

@<TRIPOS>ATOM
      1 C1         -0.0187    1.5258    0.0104 C.3       1 <0>        -0.1250
      2 C2          0.0021   -0.0041    0.0020 C.3       1 <0>        -0.1856
      3 C3         -1.4117   -0.5257    0.0127 C.2       1 <0>         0.4870
      4 O1         -2.3491    0.2539    0.0259 O.co2     1 <0>        -0.6970
      5 O2         -1.6182   -1.7273    0.0082 O.co2     1 <0>        -0.6862
      6 C4          1.4167    2.0553   -0.0004 C.3       1 <0>        -0.0130
      7 N1          1.3968    3.5242    0.0076 N.4       1 <0>        -0.6362
      8 H1         -0.5459    1.8868   -0.8726 H         1 <0>         0.0846
      9 H2         -0.5289    1.8773    0.9072 H         1 <0>         0.0846
     10 H3          0.5123   -0.3556   -0.8948 H         1 <0>         0.0679
     11 H4          0.5293   -0.3651    0.8851 H         1 <0>         0.0679
     12 H5          1.9439    1.6943    0.8826 H         1 <0>         0.1275
     13 H6          1.9269    1.7038   -0.8972 H         1 <0>         0.1275
     14 H7          2.3434    3.8734    0.0005 H         1 <0>         0.4293
     15 H8          0.9088    3.8584   -0.8098 H         1 <0>         0.4334
     16 H9          0.9245    3.8496    0.8378 H         1 <0>         0.4334
@<TRIPOS>BOND
     1    1    2 1
     2    1    6 1
     3    1    8 1
     4    1    9 1
     5    2    3 1
     6    2   10 1
     7    2   11 1
     8    3    4 2
     9    3    5 1
    10    6    7 1
    11    6   12 1
    12    6   13 1
    13    7   14 1
    14    7   15 1
    15    7   16 1
