@<TRIPOS>MOLECULE
ZINC01043853
   29    30     0     0     0
SMALL
USER_CHARGES
5-amino-1-[2,6-dichloro-4-(trifluoromethyl)phenyl]-3-methylsulfanyl-pyrazole-4-carbonitrile
@<TRIPOS>ATOM
      1 C1         -5.3298    0.3270   -0.2026 C.3       1 <0>        -0.1510
      2 S1         -5.1546    2.0874    0.1984 S.3       1 <0>         0.0058
      3 C2         -3.4203    2.3789    0.0893 C.2       1 <0>         0.1446
      4 C3         -2.7375    3.6536    0.3220 C.2       1 <0>        -0.2296
      5 C4         -1.3795    3.4092    0.1286 C.2       1 <0>         0.4582
      6 N1         -1.2450    2.1068   -0.2005 N.pl3     1 <0>        -0.3533
      7 N2         -2.5016    1.4958   -0.2160 N.2       1 <0>        -0.2717
      8 C5         -0.0309    1.4648   -0.4782 C.ar      1 <0>         0.1933
      9 C6          0.7962    1.9450   -1.4861 C.ar      1 <0>        -0.0430
     10 C7          1.9907    1.3059   -1.7607 C.ar      1 <0>        -0.0411
     11 C8          2.3625    0.1895   -1.0344 C.ar      1 <0>        -0.1529
     12 C9          1.5419   -0.2912   -0.0306 C.ar      1 <0>        -0.0431
     13 C10         0.3461    0.3430    0.2499 C.ar      1 <0>        -0.0173
     14 Cl1        -0.6836   -0.2617    1.5099 Cl        1 <0>        -0.0051
     15 C11         3.6654   -0.5046   -1.3372 C.3       1 <0>         0.5157
     16 F1          3.4534   -1.4931   -2.3043 F         1 <0>        -0.1663
     17 F2          4.5899    0.4283   -1.8188 F         1 <0>        -0.1683
     18 F3          4.1623   -1.0936   -0.1696 F         1 <0>        -0.1680
     19 Cl2         0.3300    3.3458   -2.3993 Cl        1 <0>        -0.0114
     20 N3         -0.3578    4.3314    0.2493 N.pl3     1 <0>        -0.8266
     21 C12        -3.3436    4.9002    0.6815 C.1       1 <0>         0.2939
     22 N4         -3.8245    5.8891    0.9666 N.1       1 <0>        -0.4267
     23 H1         -4.7674   -0.2674    0.5174 H         1 <0>         0.0899
     24 H2         -6.3826    0.0478   -0.1607 H         1 <0>         0.1142
     25 H3         -4.9447    0.1427   -1.2056 H         1 <0>         0.0904
     26 H4          2.6342    1.6786   -2.5440 H         1 <0>         0.1669
     27 H5          1.8354   -1.1634    0.5346 H         1 <0>         0.1665
     28 H6          0.5661    4.0424    0.1883 H         1 <0>         0.4086
     29 H7         -0.5644    5.2678    0.3951 H         1 <0>         0.4271
@<TRIPOS>BOND
     1    1    2 1
     2    1   23 1
     3    1   24 1
     4    1   25 1
     5    2    3 1
     6    3    7 2
     7    3    4 1
     8    4    5 2
     9    4   21 1
    10    5    6 1
    11    5   20 1
    12    6    7 1
    13    6    8 1
    14    8   13 ar
    15    8    9 ar
    16    9   10 ar
    17    9   19 1
    18   10   11 ar
    19   10   26 1
    20   11   12 ar
    21   11   15 1
    22   12   13 ar
    23   12   27 1
    24   13   14 1
    25   15   16 1
    26   15   17 1
    27   15   18 1
    28   20   28 1
    29   20   29 1
    30   21   22 3
