@<TRIPOS>MOLECULE
ZINC04428529
   53    56     0     0     0
SMALL
USER_CHARGES

@<TRIPOS>ATOM
      1 C1          0.4282    0.7651    1.2384 C.3       1 <0>        -0.2080
      2 C2          0.0050   -0.0027    0.0127 C.2       1 <0>         0.3647
      3 O1          0.7040   -0.0010   -0.9721 O.2       1 <0>        -0.4542
      4 C3         -1.2905   -0.7727    0.0158 C.3       1 <0>        -0.1325
      5 H1         -2.0415   -0.2446    0.6034 H         1 <0>         0.0972
      6 C4         -1.7935   -0.9827   -1.4341 C.3       1 <0>        -0.1186
      7 C5         -1.9305   -2.5169   -1.6323 C.3       1 <0>        -0.1151
      8 C6         -2.1068   -3.0336   -0.2000 C.3       1 <0>        -0.0796
      9 H2         -3.1156   -2.8264    0.1569 H         1 <0>         0.0777
     10 C7         -1.0708   -2.1742    0.5759 C.3       1 <0>        -0.0487
     11 C8         -1.3489   -2.3630    2.0549 C.3       1 <0>        -0.1047
     12 C9         -1.0643   -3.8367    2.3850 C.3       1 <0>        -0.1222
     13 C10        -1.9046   -4.7802    1.5293 C.3       1 <0>        -0.0680
     14 H3         -2.9551   -4.6575    1.7928 H         1 <0>         0.0704
     15 C11        -1.7585   -4.4942    0.0214 C.3       1 <0>        -0.0776
     16 H4         -0.7305   -4.6831   -0.2877 H         1 <0>         0.0863
     17 C12        -2.7266   -5.3822   -0.7660 C.3       1 <0>        -0.1118
     18 C13        -2.3186   -6.8466   -0.5915 C.3       1 <0>        -0.0977
     19 C14        -2.2642   -7.1658    0.8913 C.2       1 <0>        -0.0206
     20 C15        -2.8820   -8.2703    1.3099 C.2       1 <0>        -0.2434
     21 H5         -3.4070   -8.8958    0.6032 H         1 <0>         0.1337
     22 C16        -2.8495   -8.6362    2.7300 C.2       1 <0>         0.3882
     23 O2         -3.6756   -9.3796    3.2168 O.2       1 <0>        -0.4580
     24 C17        -1.7290   -8.0371    3.5574 C.3       1 <0>        -0.1668
     25 H6         -1.9153   -8.2141    4.6167 H         1 <0>         0.0925
     26 H7         -0.7768   -8.4825    3.2693 H         1 <0>         0.0997
     27 C18        -1.7074   -6.5351    3.2776 C.3       1 <0>        -0.1069
     28 C19        -1.4839   -6.2270    1.8163 C.3       1 <0>        -0.0241
     29 C20         0.0121   -6.3503    1.5204 C.3       1 <0>        -0.1492
     30 C21         0.3461   -2.6481    0.2465 C.3       1 <0>        -0.1572
     31 H8          1.3837    1.2542    1.0489 H         1 <0>         0.0809
     32 H9         -0.3247    1.5173    1.4738 H         1 <0>         0.0918
     33 H10         0.5316    0.0791    2.0791 H         1 <0>         0.0918
     34 H11        -2.7617   -0.5002   -1.5678 H         1 <0>         0.0675
     35 H12        -1.0717   -0.5769   -2.1430 H         1 <0>         0.0790
     36 H13        -2.8065   -2.7509   -2.2372 H         1 <0>         0.0676
     37 H14        -1.0279   -2.9297   -2.0829 H         1 <0>         0.0698
     38 H15        -0.6944   -1.7180    2.6411 H         1 <0>         0.0661
     39 H16        -2.3917   -2.1291    2.2695 H         1 <0>         0.0682
     40 H17        -0.0085   -4.0427    2.2091 H         1 <0>         0.0749
     41 H18        -1.2894   -4.0152    3.4365 H         1 <0>         0.0667
     42 H19        -3.7398   -5.2390   -0.3905 H         1 <0>         0.0659
     43 H20        -2.6874   -5.1165   -1.8224 H         1 <0>         0.0725
     44 H21        -3.0518   -7.4905   -1.0771 H         1 <0>         0.0771
     45 H22        -1.3365   -7.0077   -1.0361 H         1 <0>         0.0840
     46 H23        -2.6504   -6.0986    3.6068 H         1 <0>         0.0701
     47 H24        -0.8915   -6.0806    3.8396 H         1 <0>         0.0811
     48 H25         0.5667   -5.6628    2.1591 H         1 <0>         0.0702
     49 H26         0.3383   -7.3717    1.7166 H         1 <0>         0.0587
     50 H27         0.1972   -6.1043    0.4748 H         1 <0>         0.0638
     51 H28         1.0689   -2.0310    0.7800 H         1 <0>         0.0510
     52 H29         0.4614   -3.6883    0.5512 H         1 <0>         0.0714
     53 H30         0.5175   -2.5628   -0.8266 H         1 <0>         0.0644
@<TRIPOS>BOND
     1    1    2 1
     2    1   31 1
     3    1   32 1
     4    1   33 1
     5    2    3 2
     6    2    4 1
     7    4    5 1
     8    4   10 1
     9    4    6 1
    10    6    7 1
    11    6   34 1
    12    6   35 1
    13    7    8 1
    14    7   36 1
    15    7   37 1
    16    8    9 1
    17    8   15 1
    18    8   10 1
    19   10   11 1
    20   10   30 1
    21   11   12 1
    22   11   38 1
    23   11   39 1
    24   12   13 1
    25   12   40 1
    26   12   41 1
    27   13   14 1
    28   13   28 1
    29   13   15 1
    30   15   16 1
    31   15   17 1
    32   17   18 1
    33   17   42 1
    34   17   43 1
    35   18   19 1
    36   18   44 1
    37   18   45 1
    38   19   28 1
    39   19   20 2
    40   20   21 1
    41   20   22 1
    42   22   23 2
    43   22   24 1
    44   24   25 1
    45   24   26 1
    46   24   27 1
    47   27   28 1
    48   27   46 1
    49   27   47 1
    50   28   29 1
    51   29   48 1
    52   29   49 1
    53   29   50 1
    54   30   51 1
    55   30   52 1
    56   30   53 1
@<TRIPOS>MOLECULE
ZINC03881875
   62    65     0     0     0
SMALL
USER_CHARGES
(17-acetyl-6,10,13-trimethyl-3-oxo-2,6,7,8,9,11,12,14,15,16-decahydro-1H-cyclopenta[a]phenanthren-17-yl) acetate
@<TRIPOS>ATOM
      1 C1         -6.7857    0.2454    7.5623 C.3       1 <0>        -0.1498
      2 C2         -6.2038    1.1780    6.5037 C.3       1 <0>        -0.0659
      3 H1         -5.9025    2.1155    6.9853 H         1 <0>         0.0891
      4 C3         -4.9699    0.5236    5.8919 C.3       1 <0>        -0.1079
      5 C4         -4.2991    1.4580    4.8900 C.3       1 <0>        -0.0622
      6 H2         -3.8974    2.3151    5.4285 H         1 <0>         0.0768
      7 C5         -5.2456    1.9311    3.8092 C.3       1 <0>        -0.0736
      8 H3         -4.8579    2.9153    3.5020 H         1 <0>         0.0702
      9 C6         -5.1277    1.0689    2.5581 C.3       1 <0>        -0.1164
     10 C7         -3.7603    1.2899    1.8860 C.3       1 <0>        -0.1104
     11 C8         -2.6900    1.3922    2.9493 C.3       1 <0>        -0.0326
     12 C9         -3.1652    0.6790    4.2329 C.3       1 <0>        -0.0745
     13 H4         -3.5009   -0.3412    3.9999 H         1 <0>         0.0880
     14 C10        -1.8777    0.6187    5.0707 C.3       1 <0>        -0.1186
     15 C11        -0.7646    0.3584    4.0233 C.3       1 <0>        -0.1334
     16 C12        -1.3953    0.6225    2.6343 C.3       1 <0>         0.0800
     17 C13        -0.4801    1.4671    1.7916 C.2       1 <0>         0.3579
     18 O1          0.3337    2.1866    2.3191 O.2       1 <0>        -0.4334
     19 C14        -0.5785    1.4155    0.2887 C.3       1 <0>        -0.1998
     20 O2         -1.6958   -0.6305    1.9731 O.3       1 <0>        -0.3301
     21 C15        -0.6583   -1.4327    1.6871 C.2       1 <0>         0.4530
     22 O3          0.4612   -1.1096    2.0065 O.2       1 <0>        -0.5036
     23 C16        -0.8900   -2.7365    0.9676 C.3       1 <0>        -0.1486
     24 C17        -2.3216    2.8520    3.2125 C.3       1 <0>        -0.1529
     25 C18        -6.6660    2.2376    4.2029 C.3       1 <0>        -0.0217
     26 C19        -7.1820    1.4830    5.3900 C.2       1 <0>         0.0016
     27 C20        -8.4493    1.0888    5.4802 C.2       1 <0>        -0.2444
     28 C21        -9.4303    1.4104    4.4352 C.2       1 <0>         0.3835
     29 O4        -10.5257    0.8783    4.4282 O.2       1 <0>        -0.4627
     30 C22        -9.0436    2.4155    3.3750 C.3       1 <0>        -0.1601
     31 C23        -7.5872    2.1614    2.9960 C.3       1 <0>        -0.1064
     32 C24        -6.6561    3.7134    4.6283 C.3       1 <0>        -0.1517
     33 H5         -6.0411    0.0666    8.3379 H         1 <0>         0.0636
     34 H6         -7.6690    0.7052    8.0056 H         1 <0>         0.0599
     35 H7         -7.0627   -0.7018    7.0993 H         1 <0>         0.0597
     36 H8         -5.2672   -0.3895    5.3776 H         1 <0>         0.0665
     37 H9         -4.2614    0.2811    6.6815 H         1 <0>         0.0714
     38 H10        -5.9079    1.3342    1.8422 H         1 <0>         0.0749
     39 H11        -5.2349    0.0163    2.8262 H         1 <0>         0.0657
     40 H12        -3.7910    2.2143    1.3012 H         1 <0>         0.0661
     41 H13        -3.5513    0.4563    1.2126 H         1 <0>         0.0804
     42 H14        -1.9276   -0.2082    5.7832 H         1 <0>         0.0708
     43 H15        -1.7065    1.5549    5.5981 H         1 <0>         0.0744
     44 H16        -0.4254   -0.6751    4.0878 H         1 <0>         0.0772
     45 H17         0.0716    1.0370    4.1889 H         1 <0>         0.0930
     46 H18        -1.4993    1.1283    0.0246 H         1 <0>         0.0788
     47 H19         0.1496    0.7029   -0.0988 H         1 <0>         0.0953
     48 H20        -0.3740    2.4039   -0.1229 H         1 <0>         0.0920
     49 H21        -1.9542   -2.8549    0.7637 H         1 <0>         0.0932
     50 H22        -0.3378   -2.7359    0.0278 H         1 <0>         0.1070
     51 H23        -0.5454   -3.5616    1.5909 H         1 <0>         0.1068
     52 H24        -1.9460    3.3032    2.2941 H         1 <0>         0.0571
     53 H25        -3.2049    3.3947    3.5490 H         1 <0>         0.0762
     54 H26        -1.5511    2.8992    3.9820 H         1 <0>         0.0694
     55 H27        -8.8241    0.5205    6.3223 H         1 <0>         0.1346
     56 H28        -9.6268    2.2938    2.5718 H         1 <0>         0.0830
     57 H29        -9.1772    3.4292    3.7483 H         1 <0>         0.1013
     58 H30        -7.5168    1.1627    2.5594 H         1 <0>         0.0748
     59 H31        -7.2727    2.8992    2.2592 H         1 <0>         0.0834
     60 H32        -6.3303    4.3307    3.7911 H         1 <0>         0.0648
     61 H33        -7.6603    4.0113    4.9301 H         1 <0>         0.0590
     62 H34        -5.9708    3.8457    5.4655 H         1 <0>         0.0603
@<TRIPOS>BOND
     1    1    2 1
     2    1   33 1
     3    1   34 1
     4    1   35 1
     5    2    3 1
     6    2   26 1
     7    2    4 1
     8    4    5 1
     9    4   36 1
    10    4   37 1
    11    5    6 1
    12    5   12 1
    13    5    7 1
    14    7    8 1
    15    7    9 1
    16    7   25 1
    17    9   10 1
    18    9   38 1
    19    9   39 1
    20   10   11 1
    21   10   40 1
    22   10   41 1
    23   11   16 1
    24   11   12 1
    25   11   24 1
    26   12   13 1
    27   12   14 1
    28   14   15 1
    29   14   42 1
    30   14   43 1
    31   15   16 1
    32   15   44 1
    33   15   45 1
    34   16   17 1
    35   16   20 1
    36   17   18 2
    37   17   19 1
    38   19   46 1
    39   19   47 1
    40   19   48 1
    41   20   21 1
    42   21   22 2
    43   21   23 1
    44   23   49 1
    45   23   50 1
    46   23   51 1
    47   24   52 1
    48   24   53 1
    49   24   54 1
    50   25   31 1
    51   25   26 1
    52   25   32 1
    53   26   27 2
    54   27   28 1
    55   27   55 1
    56   28   29 2
    57   28   30 1
    58   30   31 1
    59   30   56 1
    60   30   57 1
    61   31   58 1
    62   31   59 1
    63   32   60 1
    64   32   61 1
    65   32   62 1
@<TRIPOS>MOLECULE
ZINC05029557
   62    65     0     0     0
SMALL
USER_CHARGES

@<TRIPOS>ATOM
      1 C1          0.2341    1.5655   -0.0976 C.3       1 <0>        -0.1535
      2 C2          0.1191    0.0403   -0.1367 C.3       1 <0>        -0.0666
      3 H1         -0.9308   -0.2454   -0.2012 H         1 <0>         0.0909
      4 C3          0.8733   -0.4999   -1.3535 C.3       1 <0>        -0.1079
      5 C4          0.8572   -2.0309   -1.3171 C.3       1 <0>        -0.0798
      6 H2         -0.1697   -2.3914   -1.2578 H         1 <0>         0.0881
      7 C5          1.6532   -2.5095   -0.0942 C.3       1 <0>        -0.0658
      8 H3          2.6561   -2.0846   -0.1352 H         1 <0>         0.0740
      9 C6          1.7601   -4.0309   -0.0478 C.3       1 <0>        -0.1247
     10 C7          2.3287   -4.6012   -1.3568 C.3       1 <0>        -0.0974
     11 C8          1.4185   -4.1389   -2.4785 C.3       1 <0>        -0.0440
     12 C9          1.5291   -2.5804   -2.5623 C.3       1 <0>        -0.0758
     13 H4          2.5733   -2.2696   -2.5976 H         1 <0>         0.0846
     14 C10         0.8218   -2.2794   -3.8884 C.3       1 <0>        -0.1168
     15 C11         1.3527   -3.3974   -4.8267 C.3       1 <0>        -0.1266
     16 C12         1.7937   -4.5873   -3.8873 C.3       1 <0>         0.0841
     17 C13         1.0448   -5.8430   -4.2524 C.2       1 <0>         0.3540
     18 O1          0.0153   -5.7714   -4.8795 O.2       1 <0>        -0.4317
     19 C14         1.5806   -7.1882   -3.8348 C.3       1 <0>        -0.2058
     20 O2          3.2029   -4.8059   -3.9785 O.3       1 <0>        -0.3267
     21 C15         3.6891   -5.1541   -5.1802 C.2       1 <0>         0.4503
     22 O3          2.9560   -5.1948   -6.1398 O.2       1 <0>        -0.4997
     23 C16         5.1493   -5.4943   -5.3326 C.3       1 <0>        -0.1484
     24 C17        -0.0258   -4.5412   -2.1735 C.3       1 <0>        -0.1603
     25 C18         0.9595   -2.0277    1.1861 C.3       1 <0>        -0.0285
     26 C19         0.7302   -0.5485    1.1217 C.2       1 <0>        -0.0150
     27 C20         1.0272    0.2880    2.1160 C.2       1 <0>        -0.2482
     28 C21         1.6049   -0.2282    3.3616 C.2       1 <0>         0.3876
     29 O4          2.2302    0.4842    4.1190 O.2       1 <0>        -0.4583
     30 C22         1.3789   -1.6989    3.6528 C.3       1 <0>        -0.1687
     31 C23         1.7675   -2.4782    2.3904 C.3       1 <0>        -0.1037
     32 C24        -0.4136   -2.6986    1.2594 C.3       1 <0>        -0.1520
     33 H5          1.2846    1.8491   -0.0331 H         1 <0>         0.0607
     34 H6         -0.2008    1.9860   -1.0043 H         1 <0>         0.0621
     35 H7         -0.2995    1.9479    0.7725 H         1 <0>         0.0617
     36 H8          0.3889   -0.1523   -2.2660 H         1 <0>         0.0726
     37 H9          1.9040   -0.1459   -1.3298 H         1 <0>         0.0674
     38 H10         2.4126   -4.3164    0.7773 H         1 <0>         0.0695
     39 H11         0.7692   -4.4518    0.1225 H         1 <0>         0.0747
     40 H12         3.3385   -4.2240   -1.5185 H         1 <0>         0.0767
     41 H13         2.3407   -5.6903   -1.3131 H         1 <0>         0.0676
     42 H14        -0.2597   -2.3530   -3.7742 H         1 <0>         0.0746
     43 H15         1.1052   -1.2954   -4.2621 H         1 <0>         0.0743
     44 H16         0.5615   -3.7281   -5.4996 H         1 <0>         0.0908
     45 H17         2.2039   -3.0312   -5.4006 H         1 <0>         0.0753
     46 H18         1.2511   -7.4116   -2.8201 H         1 <0>         0.1007
     47 H19         1.2084   -7.9546   -4.5147 H         1 <0>         0.0889
     48 H20         2.6700   -7.1715   -3.8677 H         1 <0>         0.0825
     49 H21         5.6464   -5.4023   -4.3669 H         1 <0>         0.0934
     50 H22         5.2480   -6.5171   -5.6962 H         1 <0>         0.1071
     51 H23         5.6095   -4.8094   -6.0448 H         1 <0>         0.1069
     52 H24        -0.3253   -4.1200   -1.2138 H         1 <0>         0.0837
     53 H25        -0.6818   -4.1623   -2.9572 H         1 <0>         0.0675
     54 H26        -0.0992   -5.6280   -2.1321 H         1 <0>         0.0558
     55 H27         0.8427    1.3462    2.0044 H         1 <0>         0.1412
     56 H28         2.0062   -2.0120    4.4874 H         1 <0>         0.0917
     57 H29         0.3296   -1.8723    3.8915 H         1 <0>         0.0996
     58 H30         1.5884   -3.5397    2.5616 H         1 <0>         0.0832
     59 H31         2.8271   -2.3266    2.1844 H         1 <0>         0.0698
     60 H32        -0.2883   -3.7811    1.2832 H         1 <0>         0.0695
     61 H33        -0.9295   -2.3726    2.1625 H         1 <0>         0.0591
     62 H34        -1.0012   -2.4200    0.3846 H         1 <0>         0.0635
@<TRIPOS>BOND
     1    1    2 1
     2    1   33 1
     3    1   34 1
     4    1   35 1
     5    2    3 1
     6    2   26 1
     7    2    4 1
     8    4    5 1
     9    4   36 1
    10    4   37 1
    11    5    6 1
    12    5   12 1
    13    5    7 1
    14    7    8 1
    15    7    9 1
    16    7   25 1
    17    9   10 1
    18    9   38 1
    19    9   39 1
    20   10   11 1
    21   10   40 1
    22   10   41 1
    23   11   16 1
    24   11   12 1
    25   11   24 1
    26   12   13 1
    27   12   14 1
    28   14   15 1
    29   14   42 1
    30   14   43 1
    31   15   16 1
    32   15   44 1
    33   15   45 1
    34   16   17 1
    35   16   20 1
    36   17   18 2
    37   17   19 1
    38   19   46 1
    39   19   47 1
    40   19   48 1
    41   20   21 1
    42   21   22 2
    43   21   23 1
    44   23   49 1
    45   23   50 1
    46   23   51 1
    47   24   52 1
    48   24   53 1
    49   24   54 1
    50   25   31 1
    51   25   26 1
    52   25   32 1
    53   26   27 2
    54   27   28 1
    55   27   55 1
    56   28   29 2
    57   28   30 1
    58   30   31 1
    59   30   56 1
    60   30   57 1
    61   31   58 1
    62   31   59 1
    63   32   60 1
    64   32   61 1
    65   32   62 1
@<TRIPOS>MOLECULE
ZINC49778018
   56    60     0     0     0
SMALL
USER_CHARGES

@<TRIPOS>ATOM
      1 C1          2.4627    0.8329    6.2864 C.ar      1 <0>        -0.1070
      2 C2          2.7733   -0.5113    6.3734 C.ar      1 <0>        -0.1169
      3 C3          3.7283   -1.0557    5.5352 C.ar      1 <0>        -0.1049
      4 C4          4.3723   -0.2559    4.6097 C.ar      1 <0>        -0.0978
      5 C5          4.0611    1.0881    4.5222 C.ar      1 <0>        -0.1014
      6 C6          3.1071    1.6327    5.3613 C.ar      1 <0>        -0.1167
      7 C7          5.4141   -0.8491    3.6966 C.3       1 <0>        -0.5796
      8 S1          4.6194   -1.4436    2.1782 S.o2      1 <0>         2.5996
      9 O1          3.8276   -2.5902    2.4568 O.2       1 <0>        -0.9413
     10 O2          4.0798   -0.3505    1.4479 O.2       1 <0>        -0.9370
     11 N1          5.8623   -2.0064    1.2396 N.pl3     1 <0>        -1.0649
     12 C8          6.8492   -1.1281    0.7882 C.ar      1 <0>         0.1173
     13 C9          6.5704   -0.2439   -0.2478 C.ar      1 <0>        -0.0655
     14 C10         7.5434    0.6241   -0.6950 C.ar      1 <0>        -0.0976
     15 C11         8.8077    0.6149   -0.1076 C.ar      1 <0>         0.0267
     16 C12         9.0851   -0.2722    0.9309 C.ar      1 <0>        -0.1693
     17 C13         8.1072   -1.1349    1.3790 C.ar      1 <0>        -0.0709
     18 C14        10.4508   -0.2843    1.5678 C.3       1 <0>         0.5105
     19 F1         10.4624   -1.1957    2.6291 F         1 <0>        -0.1765
     20 F2         11.4052   -0.6629    0.6175 F         1 <0>        -0.1705
     21 F3         10.7527    0.9946    2.0480 F         1 <0>        -0.1681
     22 C15         9.8567    1.5480   -0.5876 C.ar      1 <0>        -0.1164
     23 C16        11.0578    1.0434   -1.1010 C.ar      1 <0>        -0.0527
     24 C17        12.0329    1.8861   -1.5466 C.ar      1 <0>        -0.1369
     25 C18        11.8432    3.2654   -1.4956 C.ar      1 <0>         0.1396
     26 C19        10.6393    3.7865   -0.9820 C.ar      1 <0>        -0.1762
     27 C20         9.6422    2.9163   -0.5318 C.ar      1 <0>        -0.0023
     28 C21        10.7526    5.2399   -1.0644 C.2       1 <0>         0.0938
     29 N2         11.9163    5.5203   -1.5787 N.2       1 <0>        -0.2447
     30 N3         12.6157    4.3416   -1.8572 N.pl3     1 <0>        -0.3563
     31 C22        13.8985    4.2704   -2.4155 C.ar      1 <0>         0.1547
     32 C23        14.7712    3.2627   -2.0263 C.ar      1 <0>        -0.1092
     33 C24        16.0354    3.1943   -2.5778 C.ar      1 <0>        -0.1272
     34 C25        16.4331    4.1296   -3.5186 C.ar      1 <0>         0.0948
     35 C26        15.5643    5.1352   -3.9082 C.ar      1 <0>        -0.1298
     36 C27        14.2972    5.2038   -3.3632 C.ar      1 <0>        -0.0875
     37 F4         17.6704    4.0611   -4.0566 F         1 <0>        -0.1335
     38 H1          1.7134    1.2572    6.9383 H         1 <0>         0.1289
     39 H2          2.2701   -1.1362    7.0964 H         1 <0>         0.1307
     40 H3          3.9714   -2.1057    5.6035 H         1 <0>         0.1309
     41 H4          4.5646    1.7130    3.7994 H         1 <0>         0.1304
     42 H5          2.8643    2.6829    5.2932 H         1 <0>         0.1306
     43 H6          6.1533   -0.0883    3.4459 H         1 <0>         0.1419
     44 H7          5.9061   -1.6819    4.1992 H         1 <0>         0.1451
     45 H8          5.9046   -2.9462    1.0034 H         1 <0>         0.4290
     46 H9          5.5910   -0.2374   -0.7029 H         1 <0>         0.1507
     47 H10         7.3266    1.3105   -1.5001 H         1 <0>         0.1479
     48 H11         8.3203   -1.8195    2.1867 H         1 <0>         0.1489
     49 H12        11.2137   -0.0245   -1.1441 H         1 <0>         0.1491
     50 H13        12.9546    1.4833   -1.9398 H         1 <0>         0.1335
     51 H14         8.7147    3.3067   -0.1400 H         1 <0>         0.1387
     52 H15        10.0048    5.9549   -0.7548 H         1 <0>         0.2063
     53 H16        14.4616    2.5334   -1.2924 H         1 <0>         0.1415
     54 H17        16.7146    2.4110   -2.2751 H         1 <0>         0.1472
     55 H18        15.8763    5.8636   -4.6419 H         1 <0>         0.1466
     56 H19        13.6183    5.9854   -3.6709 H         1 <0>         0.1436
@<TRIPOS>BOND
     1    1    6 ar
     2    1    2 ar
     3    1   38 1
     4    2    3 ar
     5    2   39 1
     6    3    4 ar
     7    3   40 1
     8    4    5 ar
     9    4    7 1
    10    5    6 ar
    11    5   41 1
    12    6   42 1
    13    7    8 1
    14    7   43 1
    15    7   44 1
    16    8    9 2
    17    8   10 2
    18    8   11 1
    19   11   12 1
    20   11   45 1
    21   12   17 ar
    22   12   13 ar
    23   13   14 ar
    24   13   46 1
    25   14   15 ar
    26   14   47 1
    27   15   16 ar
    28   15   22 1
    29   16   17 ar
    30   16   18 1
    31   17   48 1
    32   18   19 1
    33   18   20 1
    34   18   21 1
    35   22   27 ar
    36   22   23 ar
    37   23   24 ar
    38   23   49 1
    39   24   25 ar
    40   24   50 1
    41   25   30 1
    42   25   26 ar
    43   26   27 ar
    44   26   28 1
    45   27   51 1
    46   28   29 2
    47   28   52 1
    48   29   30 1
    49   30   31 1
    50   31   36 ar
    51   31   32 ar
    52   32   33 ar
    53   32   53 1
    54   33   34 ar
    55   33   54 1
    56   34   35 ar
    57   34   37 1
    58   35   36 ar
    59   35   55 1
    60   36   56 1
@<TRIPOS>MOLECULE
ZINC12358797
   56    59     0     0     0
SMALL
USER_CHARGES
(8R,9S,10R,11S,13S,14S,17R)-11,17-dihydroxy-17-(2-hydroxyacetyl)-10,13-dimethyl-2,6,7,8,9,11,12,14,15,16-decahydro-1H-cyclopenta[a]phenanthren-3-one
@<TRIPOS>ATOM
      1 C1          0.5140    4.1056   -1.9931 C.3       1 <0>        -0.1459
      2 C2          0.0437    4.1732   -0.5388 C.3       1 <0>        -0.0210
      3 C3          1.1177    3.5303    0.3528 C.3       1 <0>        -0.1104
      4 C4          1.3829    2.0936   -0.0914 C.3       1 <0>        -0.1572
      5 C5          0.0856    1.3393   -0.2269 C.2       1 <0>         0.3882
      6 O1          0.0975    0.1255   -0.2881 O.2       1 <0>        -0.4682
      7 C6         -1.1870    2.0537   -0.2646 C.2       1 <0>        -0.2535
      8 C7         -1.2273    3.3774   -0.3928 C.2       1 <0>         0.0002
      9 C8         -2.5454    4.1050   -0.3693 C.3       1 <0>        -0.0924
     10 C9         -2.5393    5.0932    0.7906 C.3       1 <0>        -0.1031
     11 C10        -1.1967    5.7404    1.0227 C.3       1 <0>        -0.0535
     12 H1         -0.7475    5.1773    1.8915 H         1 <0>         0.0614
     13 C11        -0.1745    5.6101   -0.0956 C.3       1 <0>        -0.0530
     14 H2          0.7966    5.8843    0.3955 H         1 <0>         0.0735
     15 C12        -0.3101    6.6116   -1.2178 C.3       1 <0>         0.1262
     16 H3          0.6170    6.5926   -1.8234 H         1 <0>         0.0492
     17 C13        -0.4206    8.0573   -0.7022 C.3       1 <0>        -0.1346
     18 C14        -1.5337    8.1593    0.3098 C.3       1 <0>        -0.0237
     19 C15        -1.2742    7.1745    1.4667 C.3       1 <0>        -0.0750
     20 H4         -0.3023    7.4441    1.9475 H         1 <0>         0.0796
     21 C16        -2.3854    7.5666    2.4511 C.3       1 <0>        -0.1134
     22 C17        -2.2876    9.1205    2.4265 C.3       1 <0>        -0.1481
     23 C18        -1.6238    9.4931    1.0754 C.3       1 <0>         0.0924
     24 C19        -2.4891   10.4594    0.3130 C.2       1 <0>         0.3354
     25 O2         -3.6775   10.5013    0.5234 O.2       1 <0>        -0.4143
     26 C20        -1.8729   11.3748   -0.7133 C.3       1 <0>         0.0396
     27 O3         -2.8909   12.1907   -1.2963 O.3       1 <0>        -0.5571
     28 O4         -0.3211   10.0302    1.2834 O.3       1 <0>        -0.5377
     29 C21        -2.8872    7.9654   -0.3706 C.3       1 <0>        -0.1634
     30 O5         -1.3953    6.3040   -2.0838 O.3       1 <0>        -0.5513
     31 H5          0.6601    3.0641   -2.2797 H         1 <0>         0.0558
     32 H6         -0.2379    4.5582   -2.6395 H         1 <0>         0.0808
     33 H7          1.4549    4.6462   -2.0962 H         1 <0>         0.0603
     34 H8          0.7686    3.5360    1.3871 H         1 <0>         0.0715
     35 H9          2.0363    4.1141    0.2806 H         1 <0>         0.0795
     36 H10         1.9416    1.6299    0.5962 H         1 <0>         0.0848
     37 H11         1.9282    2.0729   -1.0329 H         1 <0>         0.1028
     38 H12        -2.1114    1.5011   -0.1888 H         1 <0>         0.1298
     39 H13        -2.7075    4.6278   -1.3061 H         1 <0>         0.1026
     40 H14        -3.3531    3.3834   -0.2172 H         1 <0>         0.0692
     41 H15        -3.3416    5.8037    0.6757 H         1 <0>         0.0775
     42 H16        -2.7854    4.5096    1.7007 H         1 <0>         0.0510
     43 H17        -0.6203    8.7273   -1.5430 H         1 <0>         0.0649
     44 H18         0.5289    8.3476   -0.2416 H         1 <0>         0.0847
     45 H19        -3.3608    7.2243    2.1292 H         1 <0>         0.0777
     46 H20        -2.1561    7.1914    3.4508 H         1 <0>         0.0701
     47 H21        -3.2826    9.5574    2.4895 H         1 <0>         0.0856
     48 H22        -1.6691    9.4656    3.2547 H         1 <0>         0.0795
     49 H23        -1.1901   11.9577   -0.2728 H         1 <0>         0.0726
     50 H24        -1.3948   10.7792   -1.4910 H         1 <0>         0.0794
     51 H25        -2.5655   12.8061   -1.9674 H         1 <0>         0.3864
     52 H26        -0.3100   10.8437    1.8061 H         1 <0>         0.3800
     53 H27        -3.6853    8.1603    0.3459 H         1 <0>         0.0627
     54 H28        -2.9748    8.6566   -1.2089 H         1 <0>         0.0503
     55 H29        -2.9677    6.9411   -0.7343 H         1 <0>         0.0967
     56 H30        -1.4479    6.8711   -2.8653 H         1 <0>         0.3747
@<TRIPOS>BOND
     1    1    2 1
     2    1   31 1
     3    1   32 1
     4    1   33 1
     5    2    8 1
     6    2   13 1
     7    2    3 1
     8    3    4 1
     9    3   34 1
    10    3   35 1
    11    4    5 1
    12    4   36 1
    13    4   37 1
    14    5    6 2
    15    5    7 1
    16    7    8 2
    17    7   38 1
    18    8    9 1
    19    9   10 1
    20    9   39 1
    21    9   40 1
    22   10   11 1
    23   10   41 1
    24   10   42 1
    25   11   12 1
    26   11   19 1
    27   11   13 1
    28   13   14 1
    29   13   15 1
    30   15   16 1
    31   15   17 1
    32   15   30 1
    33   17   18 1
    34   17   43 1
    35   17   44 1
    36   18   23 1
    37   18   19 1
    38   18   29 1
    39   19   20 1
    40   19   21 1
    41   21   22 1
    42   21   45 1
    43   21   46 1
    44   22   23 1
    45   22   47 1
    46   22   48 1
    47   23   24 1
    48   23   28 1
    49   24   25 2
    50   24   26 1
    51   26   27 1
    52   26   49 1
    53   26   50 1
    54   27   51 1
    55   28   52 1
    56   29   53 1
    57   29   54 1
    58   29   55 1
    59   30   56 1
@<TRIPOS>MOLECULE
ZINC13540519
   56    59     0     0     0
SMALL
USER_CHARGES

@<TRIPOS>ATOM
      1 C1          0.2967    1.7501    0.1712 C.3       1 <0>        -0.1466
      2 C2          0.1675    0.2258    0.1445 C.3       1 <0>        -0.0260
      3 C3         -1.3077   -0.0869    0.2058 C.3       1 <0>        -0.1054
      4 C4         -1.5904   -1.4224    0.8930 C.3       1 <0>        -0.1685
      5 C5         -0.9397   -1.3793    2.2627 C.2       1 <0>         0.3887
      6 O1         -1.5565   -1.6372    3.2752 O.2       1 <0>        -0.4582
      7 C6          0.4818   -1.0073    2.2914 C.2       1 <0>        -0.2444
      8 C7          0.9832   -0.2947    1.2864 C.2       1 <0>        -0.0201
      9 C8          2.4740   -0.0014    1.2728 C.3       1 <0>        -0.0967
     10 C9          3.0281   -0.4675   -0.0783 C.3       1 <0>        -0.1120
     11 C10         2.2552    0.1993   -1.2162 C.3       1 <0>        -0.0825
     12 H1          2.3175    1.2829   -1.1160 H         1 <0>         0.1007
     13 C11         0.7819   -0.2403   -1.1760 C.3       1 <0>        -0.0568
     14 H2          0.7296   -1.3276   -1.2325 H         1 <0>         0.0819
     15 C12        -0.0092    0.3460   -2.3416 C.3       1 <0>         0.1071
     16 H3         -1.0204   -0.0606   -2.3254 H         1 <0>         0.0622
     17 C13         0.6429    0.0145   -3.6933 C.3       1 <0>        -0.1266
     18 C14         2.0600    0.5538   -3.6529 C.3       1 <0>        -0.0377
     19 C15         2.8321   -0.2237   -2.5548 C.3       1 <0>        -0.0779
     20 H4          2.7038   -1.2963   -2.7003 H         1 <0>         0.0812
     21 C16         4.2819    0.1957   -2.8200 C.3       1 <0>        -0.1112
     22 C17         4.3727    0.1711   -4.3702 C.3       1 <0>        -0.1459
     23 C18         2.9089    0.3273   -4.8997 C.3       1 <0>         0.1019
     24 C19         2.8367    1.5293   -5.8058 C.2       1 <0>         0.3346
     25 O2          3.6584    2.4090   -5.7086 O.2       1 <0>        -0.4142
     26 C20         1.7392    1.6336   -6.8332 C.3       1 <0>         0.0286
     27 O3          1.8843    2.8536   -7.5630 O.3       1 <0>        -0.5558
     28 O4          2.4692   -0.8428   -5.5921 O.3       1 <0>        -0.5367
     29 C21         2.0381    2.0433   -3.3040 C.3       1 <0>        -0.1670
     30 O5         -0.0754    1.7657   -2.1930 O.3       1 <0>        -0.5450
     31 H5          1.2651    2.0399   -0.2367 H         1 <0>         0.0674
     32 H6         -0.4977    2.1927   -0.4296 H         1 <0>         0.0925
     33 H7          0.2149    2.1038    1.1990 H         1 <0>         0.0396
     34 H8         -1.8145    0.7069    0.7544 H         1 <0>         0.0718
     35 H9         -1.7039   -0.1210   -0.8091 H         1 <0>         0.0844
     36 H10        -2.6661   -1.5636    0.9987 H         1 <0>         0.0910
     37 H11        -1.1654   -2.2373    0.3070 H         1 <0>         0.0972
     38 H12         1.1129   -1.3192    3.1104 H         1 <0>         0.1349
     39 H13         2.6410    1.0692    1.3912 H         1 <0>         0.0833
     40 H14         2.9647   -0.5443    2.0806 H         1 <0>         0.0774
     41 H15         4.0819   -0.1980   -0.1498 H         1 <0>         0.0726
     42 H16         2.9265   -1.5499   -0.1572 H         1 <0>         0.0655
     43 H17         0.6608   -1.0652   -3.8418 H         1 <0>         0.0841
     44 H18         0.0871    0.4918   -4.5004 H         1 <0>         0.0666
     45 H19         4.4690    1.1995   -2.4386 H         1 <0>         0.0735
     46 H20         4.9769   -0.5204   -2.3815 H         1 <0>         0.0724
     47 H21         5.0055    0.9864   -4.7209 H         1 <0>         0.0869
     48 H22         4.7734   -0.7852   -4.7063 H         1 <0>         0.0770
     49 H23         1.8030    0.7896   -7.5200 H         1 <0>         0.0813
     50 H24         0.7709    1.6225   -6.3329 H         1 <0>         0.0806
     51 H25         1.2102    2.9876   -8.2432 H         1 <0>         0.3860
     52 H26         2.9727   -1.0376   -6.3944 H         1 <0>         0.3796
     53 H27         1.7348    2.1686   -2.2646 H         1 <0>         0.1146
     54 H28         3.0336    2.4642   -3.4452 H         1 <0>         0.0526
     55 H29         1.3304    2.5583   -3.9536 H         1 <0>         0.0487
     56 H30        -0.5640    2.2126   -2.8977 H         1 <0>         0.3667
@<TRIPOS>BOND
     1    1    2 1
     2    1   31 1
     3    1   32 1
     4    1   33 1
     5    2    8 1
     6    2   13 1
     7    2    3 1
     8    3    4 1
     9    3   34 1
    10    3   35 1
    11    4    5 1
    12    4   36 1
    13    4   37 1
    14    5    6 2
    15    5    7 1
    16    7    8 2
    17    7   38 1
    18    8    9 1
    19    9   10 1
    20    9   39 1
    21    9   40 1
    22   10   11 1
    23   10   41 1
    24   10   42 1
    25   11   12 1
    26   11   19 1
    27   11   13 1
    28   13   14 1
    29   13   15 1
    30   15   16 1
    31   15   17 1
    32   15   30 1
    33   17   18 1
    34   17   43 1
    35   17   44 1
    36   18   23 1
    37   18   19 1
    38   18   29 1
    39   19   20 1
    40   19   21 1
    41   21   22 1
    42   21   45 1
    43   21   46 1
    44   22   23 1
    45   22   47 1
    46   22   48 1
    47   23   24 1
    48   23   28 1
    49   24   25 2
    50   24   26 1
    51   26   27 1
    52   26   49 1
    53   26   50 1
    54   27   51 1
    55   28   52 1
    56   29   53 1
    57   29   54 1
    58   29   55 1
    59   30   56 1
@<TRIPOS>MOLECULE
ZINC38795962
   52    53     0     0     0
SMALL
USER_CHARGES

@<TRIPOS>ATOM
      1 C1          0.1246    1.4807    0.3670 C.3       1 <0>        -0.1182
      2 C2          0.0719   -0.0133    0.1763 C.2       1 <0>         0.2460
      3 C3         -1.1186   -0.6363    0.1396 C.2       1 <0>        -0.2642
      4 C4         -1.2194   -2.1224   -0.0567 C.3       1 <0>         0.0884
      5 H1         -1.9588   -2.5264    0.6347 H         1 <0>         0.1009
      6 C5          0.1062   -2.7833    0.1950 C.2       1 <0>        -0.2313
      7 C6          1.2476   -2.0741    0.2295 C.2       1 <0>         0.1890
      8 N1          1.2363   -0.7182    0.0369 N.pl3     1 <0>        -0.6297
      9 C7          2.5556   -2.7805    0.4771 C.3       1 <0>        -0.1329
     10 C8          0.1541   -4.1816    0.4006 C.2       1 <0>         0.5348
     11 O1         -0.2294   -4.6552    1.4539 O.2       1 <0>        -0.4891
     12 O2          0.6250   -4.9907   -0.5713 O.3       1 <0>        -0.3390
     13 C9          0.6446   -6.3927   -0.2954 C.3       1 <0>         0.1145
     14 C10        -0.7788   -6.8766   -0.0115 C.3       1 <0>        -0.1865
     15 C11         1.2065   -7.1427   -1.5048 C.3       1 <0>        -0.1402
     16 C12         1.5272   -6.6599    0.9255 C.3       1 <0>        -0.1863
     17 C13        -1.6545   -2.4078   -1.4710 C.ar      1 <0>        -0.0727
     18 C14        -0.8768   -1.9836   -2.5324 C.ar      1 <0>        -0.0491
     19 C15        -1.2759   -2.2454   -3.8295 C.ar      1 <0>        -0.1162
     20 C16        -2.4526   -2.9317   -4.0656 C.ar      1 <0>        -0.0564
     21 C17        -3.2297   -3.3565   -3.0044 C.ar      1 <0>        -0.0465
     22 C18        -2.8283   -3.0984   -1.7068 C.ar      1 <0>        -0.0385
     23 N2         -4.4898   -4.0908   -3.2572 N.pl3     1 <0>         0.0339
     24 O3         -4.8393   -4.3190   -4.3918 O.2       1 <0>        -0.1598
     25 O4         -5.1695   -4.4624   -2.3289 O.3       1 <0>        -0.1565
     26 C19        -2.3019    0.1235    0.2895 C.2       1 <0>         0.5194
     27 O5         -2.2354    1.3279    0.4495 O.2       1 <0>        -0.5194
     28 O6         -3.5048   -0.4873    0.2549 O.3       1 <0>        -0.3507
     29 C20        -4.6580    0.3417    0.4130 C.3       1 <0>         0.0364
     30 H2          1.1635    1.8106    0.3665 H         1 <0>         0.0654
     31 H3         -0.4123    1.9699   -0.4457 H         1 <0>         0.1037
     32 H4         -0.3392    1.7421    1.3181 H         1 <0>         0.1061
     33 H5          2.0564   -0.2549   -0.1949 H         1 <0>         0.4249
     34 H6          2.9612   -3.1364   -0.4700 H         1 <0>         0.0975
     35 H7          3.2608   -2.0885    0.9373 H         1 <0>         0.0853
     36 H8          2.3907   -3.6276    1.1429 H         1 <0>         0.0869
     37 H9         -1.4075   -6.6863   -0.8813 H         1 <0>         0.0594
     38 H10        -0.7638   -7.9460    0.1990 H         1 <0>         0.0727
     39 H11        -1.1791   -6.3423    0.8502 H         1 <0>         0.0841
     40 H12         2.2206   -6.7980   -1.7071 H         1 <0>         0.0664
     41 H13         1.2215   -8.2121   -1.2944 H         1 <0>         0.0794
     42 H14         0.5778   -6.9524   -2.3746 H         1 <0>         0.0654
     43 H15         1.1269   -6.1256    1.7871 H         1 <0>         0.0833
     44 H16         1.5422   -7.7293    1.1360 H         1 <0>         0.0729
     45 H17         2.5413   -6.3152    0.7232 H         1 <0>         0.0609
     46 H18         0.0425   -1.4475   -2.3480 H         1 <0>         0.1322
     47 H19        -0.6687   -1.9134   -4.6587 H         1 <0>         0.1467
     48 H20        -2.7648   -3.1356   -5.0792 H         1 <0>         0.1527
     49 H21        -3.4335   -3.4336   -0.8776 H         1 <0>         0.1523
     50 H22        -5.5568   -0.2732    0.3657 H         1 <0>         0.1015
     51 H23        -4.6133    0.8463    1.3781 H         1 <0>         0.0612
     52 H24        -4.6836    1.0844   -0.3845 H         1 <0>         0.0588
@<TRIPOS>BOND
     1    1    2 1
     2    1   30 1
     3    1   31 1
     4    1   32 1
     5    2    8 1
     6    2    3 2
     7    3    4 1
     8    3   26 1
     9    4    5 1
    10    4    6 1
    11    4   17 1
    12    6    7 2
    13    6   10 1
    14    7    8 1
    15    7    9 1
    16    8   33 1
    17    9   34 1
    18    9   35 1
    19    9   36 1
    20   10   11 2
    21   10   12 1
    22   12   13 1
    23   13   14 1
    24   13   15 1
    25   13   16 1
    26   14   37 1
    27   14   38 1
    28   14   39 1
    29   15   40 1
    30   15   41 1
    31   15   42 1
    32   16   43 1
    33   16   44 1
    34   16   45 1
    35   17   22 ar
    36   17   18 ar
    37   18   19 ar
    38   18   46 1
    39   19   20 ar
    40   19   47 1
    41   20   21 ar
    42   20   48 1
    43   21   22 ar
    44   21   23 1
    45   22   49 1
    46   23   24 2
    47   23   25 1
    48   26   27 2
    49   26   28 1
    50   28   29 1
    51   29   50 1
    52   29   51 1
    53   29   52 1
@<TRIPOS>MOLECULE
ZINC08660419
   67    71     0     0     0
SMALL
USER_CHARGES
11-(4-dimethylaminophenyl)-17-hydroxy-13-methyl-17-prop-1-ynyl-1,2,6,7,8,11,12,14,15,16-decahydrocyclopenta[a]phenanthren-3-one
@<TRIPOS>ATOM
      1 C1          0.7869    0.1155   -4.5240 C.3       1 <0>        -0.0462
      2 C2          0.5900    0.9727   -3.3436 C.1       1 <0>        -0.1645
      3 C3          0.4330    1.6563   -2.4022 C.1       1 <0>        -0.2108
      4 C4          0.2361    2.5134   -1.2218 C.3       1 <0>         0.2516
      5 C5          1.2880    3.6384   -1.2035 C.3       1 <0>        -0.1460
      6 C6          2.1300    3.4350    0.0772 C.3       1 <0>        -0.1158
      7 C7          1.9355    1.9425    0.4012 C.3       1 <0>        -0.0751
      8 H1          2.5427    1.3688   -0.2990 H         1 <0>         0.0756
      9 C8          0.4547    1.6914    0.0764 C.3       1 <0>        -0.0266
     10 C9         -0.4117    2.3256    1.1670 C.3       1 <0>        -0.0878
     11 C10        -0.1997    1.6805    2.5047 C.3       1 <0>        -0.0025
     12 H2         -0.8001    0.7718    2.5494 H         1 <0>         0.0872
     13 C11         1.2316    1.3258    2.7607 C.2       1 <0>        -0.0418
     14 C12         1.5404    0.7472    3.9335 C.2       1 <0>        -0.1294
     15 C13         0.4525    0.4472    4.9374 C.3       1 <0>        -0.0945
     16 C14         0.9498    0.8563    6.3279 C.3       1 <0>        -0.1505
     17 C15         2.3106    0.2641    6.5759 C.2       1 <0>         0.3859
     18 O1          2.6042   -0.0954    7.6983 O.2       1 <0>        -0.4758
     19 C16         3.2491    0.1171    5.5432 C.2       1 <0>        -0.2574
     20 C17         2.9152    0.3774    4.2526 C.2       1 <0>         0.0321
     21 C18         3.9597    0.2695    3.1733 C.3       1 <0>        -0.0979
     22 C19         3.3016    0.3825    1.7969 C.3       1 <0>        -0.1123
     23 C20         2.3424    1.5764    1.7924 C.3       1 <0>        -0.0429
     24 H3          2.9133    2.4186    2.1836 H         1 <0>         0.0813
     25 C21        -0.6667    2.6234    3.5835 C.ar      1 <0>        -0.1252
     26 C22        -1.9173    2.4583    4.1502 C.ar      1 <0>        -0.0698
     27 C23        -2.3460    3.3173    5.1430 C.ar      1 <0>        -0.1952
     28 C24        -1.5241    4.3549    5.5643 C.ar      1 <0>         0.2151
     29 C25        -0.2708    4.5213    4.9889 C.ar      1 <0>        -0.1951
     30 C26         0.1541    3.6553    4.0005 C.ar      1 <0>        -0.0584
     31 N1         -1.9567    5.2286    6.5644 N.pl3     1 <0>        -0.6386
     32 C27        -1.1430    6.3931    6.9220 C.3       1 <0>         0.0924
     33 C28        -3.2242    4.9804    7.2559 C.3       1 <0>         0.0888
     34 C29         0.1462    0.2052   -0.1159 C.3       1 <0>        -0.1349
     35 O2         -1.0793    3.0716   -1.2336 O.3       1 <0>        -0.5403
     36 H4          0.6311    0.7024   -5.4292 H         1 <0>         0.0815
     37 H5          1.8018   -0.2822   -4.5190 H         1 <0>         0.0822
     38 H6          0.0737   -0.7083   -4.4978 H         1 <0>         0.0820
     39 H7          0.7949    4.6101   -1.1758 H         1 <0>         0.0815
     40 H8          1.9256    3.5677   -2.0847 H         1 <0>         0.0725
     41 H9          1.7511    4.0565    0.8885 H         1 <0>         0.0745
     42 H10         3.1806    3.6522   -0.1156 H         1 <0>         0.0724
     43 H11        -0.1669    3.3848    1.2459 H         1 <0>         0.0717
     44 H12        -1.4617    2.2228    0.8931 H         1 <0>         0.0782
     45 H13        -0.4437    1.0149    4.6872 H         1 <0>         0.1092
     46 H14         0.2288   -0.6195    4.9275 H         1 <0>         0.0741
     47 H15         0.3122    0.5216    7.0217 H         1 <0>         0.0807
     48 H16         1.0116    1.9431    6.3847 H         1 <0>         0.0968
     49 H17         4.2520   -0.2074    5.7782 H         1 <0>         0.1316
     50 H18         4.6881    1.0715    3.2931 H         1 <0>         0.0899
     51 H19         4.4649   -0.6930    3.2534 H         1 <0>         0.0896
     52 H20         2.7468   -0.5310    1.5827 H         1 <0>         0.0708
     53 H21         4.0693    0.5294    1.0373 H         1 <0>         0.0770
     54 H22        -2.5577    1.6543    3.8189 H         1 <0>         0.1217
     55 H23        -3.3211    3.1851    5.5883 H         1 <0>         0.1233
     56 H24         0.3706    5.3272    5.3138 H         1 <0>         0.1205
     57 H25         1.1285    3.7839    3.5530 H         1 <0>         0.1167
     58 H26        -1.4355    7.2436    6.3062 H         1 <0>         0.0482
     59 H27        -1.2977    6.6355    7.9734 H         1 <0>         0.0661
     60 H28        -0.0903    6.1667    6.7525 H         1 <0>         0.0686
     61 H29        -3.6391    4.0288    6.9236 H         1 <0>         0.0779
     62 H30        -3.0505    4.9453    8.3314 H         1 <0>         0.0562
     63 H31        -3.9260    5.7824    7.0272 H         1 <0>         0.0519
     64 H32         0.3878   -0.3372    0.7982 H         1 <0>         0.0621
     65 H33        -0.9125    0.0804   -0.3434 H         1 <0>         0.0594
     66 H34         0.7434   -0.1863   -0.9394 H         1 <0>         0.0582
     67 H35        -1.2765    3.5972   -2.0210 H         1 <0>         0.3781
@<TRIPOS>BOND
     1    1    2 1
     2    1   36 1
     3    1   37 1
     4    1   38 1
     5    2    3 3
     6    3    4 1
     7    4    9 1
     8    4    5 1
     9    4   35 1
    10    5    6 1
    11    5   39 1
    12    5   40 1
    13    6    7 1
    14    6   41 1
    15    6   42 1
    16    7    8 1
    17    7   23 1
    18    7    9 1
    19    9   10 1
    20    9   34 1
    21   10   11 1
    22   10   43 1
    23   10   44 1
    24   11   12 1
    25   11   13 1
    26   11   25 1
    27   13   23 1
    28   13   14 2
    29   14   20 1
    30   14   15 1
    31   15   16 1
    32   15   45 1
    33   15   46 1
    34   16   17 1
    35   16   47 1
    36   16   48 1
    37   17   18 2
    38   17   19 1
    39   19   20 2
    40   19   49 1
    41   20   21 1
    42   21   22 1
    43   21   50 1
    44   21   51 1
    45   22   23 1
    46   22   52 1
    47   22   53 1
    48   23   24 1
    49   25   30 ar
    50   25   26 ar
    51   26   27 ar
    52   26   54 1
    53   27   28 ar
    54   27   55 1
    55   28   29 ar
    56   28   31 1
    57   29   30 ar
    58   29   56 1
    59   30   57 1
    60   31   32 1
    61   31   33 1
    62   32   58 1
    63   32   59 1
    64   32   60 1
    65   33   61 1
    66   33   62 1
    67   33   63 1
    68   34   64 1
    69   34   65 1
    70   34   66 1
    71   35   67 1
@<TRIPOS>MOLECULE
ZINC02022527
   54    55     0     0     0
SMALL
USER_CHARGES

@<TRIPOS>ATOM
      1 C1         -3.0730    2.2881   -4.2693 C.3       1 <0>        -0.1569
      2 C2         -2.3049    1.5870   -3.1471 C.3       1 <0>        -0.1270
      3 C3         -2.8110    2.0874   -1.7927 C.3       1 <0>        -0.1231
      4 C4         -2.0429    1.3862   -0.6705 C.3       1 <0>        -0.1174
      5 C5         -2.5490    1.8867    0.6839 C.3       1 <0>        -0.1006
      6 C6         -2.2117    3.3722    0.8391 C.3       1 <0>        -0.1451
      7 C7         -2.6658    3.8518    2.2196 C.3       1 <0>        -0.0114
      8 C8         -2.3347    1.6429    3.1595 C.3       1 <0>        -0.0001
      9 C9         -1.8707    1.0973    1.8070 C.3       1 <0>        -0.1442
     10 C10        -2.2939    3.5901    4.5974 C.3       1 <0>        -0.0052
     11 C11        -2.1583    5.1140    4.5919 C.3       1 <0>        -0.1459
     12 C12        -2.4764    5.6593    5.9856 C.3       1 <0>        -0.1543
     13 C13        -2.3428    7.1604    5.9803 C.2       1 <0>         0.3987
     14 O1         -2.0245    7.7371    4.9623 O.2       1 <0>        -0.4456
     15 C14        -2.5986    7.9263    7.2106 C.ar      1 <0>        -0.1885
     16 C15        -3.0878    7.2813    8.3513 C.ar      1 <0>        -0.0705
     17 C16        -3.3195    8.0047    9.5018 C.ar      1 <0>        -0.1389
     18 C17        -3.0801    9.3679    9.5265 C.ar      1 <0>        -0.0729
     19 C18        -2.6016   10.0143    8.4004 C.ar      1 <0>        -0.1345
     20 C19        -2.3594    9.3036    7.2436 C.ar      1 <0>        -0.0178
     21 C20        -1.8387   10.0095    6.0182 C.3       1 <0>        -0.1264
     22 H1         -4.1363    2.0676   -4.1746 H         1 <0>         0.0549
     23 H2         -2.9175    3.3647   -4.1985 H         1 <0>         0.0540
     24 H3         -2.7125    1.9316   -5.2342 H         1 <0>         0.0581
     25 H4         -1.2417    1.8075   -3.2417 H         1 <0>         0.0621
     26 H5         -2.4605    0.5104   -3.2179 H         1 <0>         0.0631
     27 H6         -3.8743    1.8669   -1.6981 H         1 <0>         0.0644
     28 H7         -2.6555    3.1639   -1.7219 H         1 <0>         0.0632
     29 H8         -2.1984    0.3097   -0.7413 H         1 <0>         0.0733
     30 H9         -0.9796    1.6067   -0.7651 H         1 <0>         0.0688
     31 H10        -3.6287    1.7492    0.7427 H         1 <0>         0.0884
     32 H11        -1.1354    3.5132    0.7407 H         1 <0>         0.0881
     33 H12        -2.7264    3.9447    0.0675 H         1 <0>         0.1133
     34 H13        -3.7442    3.7233    2.3122 H         1 <0>         0.1295
     35 H14        -2.4142    4.9057    2.3388 H         1 <0>         0.1342
     36 H15        -3.4146    1.5248    3.2476 H         1 <0>         0.1293
     37 H16        -1.8426    1.0924    3.9613 H         1 <0>         0.1282
     38 H17        -2.1418    0.0446    1.7270 H         1 <0>         0.1118
     39 H18        -0.7890    1.2025    1.7239 H         1 <0>         0.0880
     40 H19        -3.3133    3.3170    4.8704 H         1 <0>         0.1315
     41 H20        -1.5979    3.1659    5.3211 H         1 <0>         0.1302
     42 H21        -1.1389    5.3871    4.3190 H         1 <0>         0.0944
     43 H22        -2.8542    5.5382    3.8682 H         1 <0>         0.0968
     44 H23        -3.4115    5.4088    6.2361 H         1 <0>         0.0981
     45 H24        -1.7805    5.2352    6.7093 H         1 <0>         0.1100
     46 H25        -3.2793    6.2186    8.3321 H         1 <0>         0.1290
     47 H26        -3.6933    7.5074   10.3846 H         1 <0>         0.1322
     48 H27        -3.2682    9.9300   10.4293 H         1 <0>         0.1326
     49 H28        -2.4176   11.0782    8.4274 H         1 <0>         0.1332
     50 H29        -2.6709   10.2515    5.3572 H         1 <0>         0.0784
     51 H30        -1.3321   10.9277    6.3156 H         1 <0>         0.0652
     52 H31        -1.1365    9.3600    5.4956 H         1 <0>         0.0893
     53 N1         -1.9588    3.0696    3.2558 N.4       1 <0>        -0.3931
     54 H32        -0.9467    3.1581    3.1071 H         1 <0>         0.4272
@<TRIPOS>BOND
     1    1    2 1
     2    1   22 1
     3    1   23 1
     4    1   24 1
     5    2    3 1
     6    2   25 1
     7    2   26 1
     8    3    4 1
     9    3   27 1
    10    3   28 1
    11    4    5 1
    12    4   29 1
    13    4   30 1
    14    5    9 1
    15    5    6 1
    16    5   31 1
    17    6    7 1
    18    6   32 1
    19    6   33 1
    20    7   34 1
    21    7   35 1
    22    7   53 1
    23    8    9 1
    24    8   36 1
    25    8   37 1
    26    8   53 1
    27    9   38 1
    28    9   39 1
    29   10   11 1
    30   10   40 1
    31   10   41 1
    32   10   53 1
    33   11   12 1
    34   11   42 1
    35   11   43 1
    36   12   13 1
    37   12   44 1
    38   12   45 1
    39   13   14 2
    40   13   15 1
    41   15   20 ar
    42   15   16 ar
    43   16   17 ar
    44   16   46 1
    45   17   18 ar
    46   17   47 1
    47   18   19 ar
    48   18   48 1
    49   19   20 ar
    50   19   49 1
    51   20   21 1
    52   21   50 1
    53   21   51 1
    54   21   52 1
    55   53   54 1
@<TRIPOS>MOLECULE
ZINC03833821
   54    57     0     0     0
SMALL
NO_CHARGES

@<TRIPOS>ATOM
      1 C1         -0.7520    1.6588   -0.1667 C.3       1 <0>        -0.1663
      2 C2         -0.9770    0.1457   -0.1413 C.3       1 <0>        -0.0388
      3 C3         -2.2972   -0.1663    0.5373 C.3       1 <0>        -0.1261
      4 C4         -2.2689    0.5080    1.9180 C.3       1 <0>         0.1082
      5 H1         -3.1924    0.2731    2.4472 H         1 <0>         0.0604
      6 C5         -1.0827    0.0350    2.7533 C.3       1 <0>        -0.0524
      7 H2         -1.2058   -1.0229    2.9849 H         1 <0>         0.0866
      8 C6          0.2486    0.2394    2.0127 C.3       1 <0>        -0.0814
      9 H3          0.4066    1.3018    1.8270 H         1 <0>         0.1028
     10 C7          0.1391   -0.5386    0.6930 C.3       1 <0>        -0.0780
     11 H4         -0.1092   -1.5841    0.8759 H         1 <0>         0.0846
     12 C8          1.3459   -0.4177   -0.2439 C.3       1 <0>        -0.1120
     13 C9          0.7399   -0.7462   -1.6357 C.3       1 <0>        -0.1478
     14 C10        -0.7736   -0.4308   -1.5386 C.3       1 <0>         0.1037
     15 C11        -1.1639    0.5826   -2.5834 C.2       1 <0>         0.3356
     16 O1         -0.3311    1.3258   -3.0444 O.2       1 <0>        -0.4139
     17 C12        -2.5933    0.6686   -3.0529 C.3       1 <0>         0.0292
     18 O2         -2.7101    1.6977   -4.0376 O.3       1 <0>        -0.5558
     19 O3         -1.5397   -1.6267   -1.6970 O.3       1 <0>        -0.5395
     20 C13         1.3968   -0.3125    2.8596 C.3       1 <0>        -0.1141
     21 C14         1.5075    0.4888    4.1606 C.3       1 <0>        -0.0960
     22 C15         0.1584    0.4521    4.8538 C.2       1 <0>        -0.0243
     23 C16         0.1019    0.0895    6.1279 C.2       1 <0>        -0.2310
     24 C17        -1.1894    0.0201    6.8291 C.2       1 <0>         0.4075
     25 O4         -1.2417   -0.2722    8.0092 O.2       1 <0>        -0.4610
     26 C18        -2.4174    0.3120    6.0704 C.2       1 <0>        -0.2221
     27 C19        -2.3362    0.6803    4.8015 C.2       1 <0>        -0.0651
     28 C20        -1.0322    0.8343    4.0586 C.3       1 <0>        -0.0103
     29 C21        -0.8801    2.3122    3.6932 C.3       1 <0>        -0.1338
     30 O5         -2.1793    1.9234    1.7436 O.3       1 <0>        -0.5459
     31 H5          0.1094    1.8876   -0.7941 H         1 <0>         0.0526
     32 H6         -1.6367    2.1510   -0.5706 H         1 <0>         0.0495
     33 H7         -0.5684    2.0159    0.8467 H         1 <0>         0.1148
     34 H8         -3.1217    0.2324   -0.0537 H         1 <0>         0.0675
     35 H9         -2.4094   -1.2444    0.6529 H         1 <0>         0.0847
     36 H10         1.7470    0.5957   -0.2274 H         1 <0>         0.0739
     37 H11         2.1152   -1.1425    0.0225 H         1 <0>         0.0724
     38 H12         1.2032   -0.1244   -2.4017 H         1 <0>         0.0846
     39 H13         0.8881   -1.8006   -1.8689 H         1 <0>         0.0802
     40 H14        -2.8910   -0.2856   -3.4876 H         1 <0>         0.0817
     41 H15        -3.2403    0.9002   -2.2069 H         1 <0>         0.0808
     42 H16        -3.6054    1.8095   -4.3853 H         1 <0>         0.3862
     43 H17        -1.4500   -2.0388   -2.5672 H         1 <0>         0.3798
     44 H18         1.2044   -1.3596    3.0935 H         1 <0>         0.0668
     45 H19         2.3302   -0.2310    2.3027 H         1 <0>         0.0752
     46 H20         2.2645    0.0418    4.8049 H         1 <0>         0.0800
     47 H21         1.7776    1.5206    3.9355 H         1 <0>         0.0861
     48 H22         1.0116   -0.1573    6.6552 H         1 <0>         0.1356
     49 H23        -3.3822    0.2255    6.5481 H         1 <0>         0.1372
     50 H24        -3.2561    0.8801    4.2721 H         1 <0>         0.1262
     51 H25        -1.8492    2.7154    3.3993 H         1 <0>         0.0948
     52 H26        -0.5039    2.8628    4.5554 H         1 <0>         0.0440
     53 H27        -0.1789    2.4114    2.8646 H         1 <0>         0.0739
     54 H28        -2.9172    2.3063    1.2496 H         1 <0>         0.3686
@<TRIPOS>BOND
     1    1    2 1
     2    1   31 1
     3    1   32 1
     4    1   33 1
     5    2   10 1
     6    2   14 1
     7    2    3 1
     8    3    4 1
     9    3   34 1
    10    3   35 1
    11    4    5 1
    12    4    6 1
    13    4   30 1
    14    6    7 1
    15    6   28 1
    16    6    8 1
    17    8    9 1
    18    8   10 1
    19    8   20 1
    20   10   11 1
    21   10   12 1
    22   12   13 1
    23   12   36 1
    24   12   37 1
    25   13   14 1
    26   13   38 1
    27   13   39 1
    28   14   15 1
    29   14   19 1
    30   15   16 2
    31   15   17 1
    32   17   18 1
    33   17   40 1
    34   17   41 1
    35   18   42 1
    36   19   43 1
    37   20   21 1
    38   20   44 1
    39   20   45 1
    40   21   22 1
    41   21   46 1
    42   21   47 1
    43   22   28 1
    44   22   23 2
    45   23   24 1
    46   23   48 1
    47   24   25 2
    48   24   26 1
    49   26   27 2
    50   26   49 1
    51   27   28 1
    52   27   50 1
    53   28   29 1
    54   29   51 1
    55   29   52 1
    56   29   53 1
    57   30   54 1
@<TRIPOS>MOLECULE
ZINC03861599
   61    65     0     0     0
SMALL
USER_CHARGES

@<TRIPOS>ATOM
      1 C1         -0.0184    1.5028    0.0103 C.3       1 <0>        -0.1834
      2 C2          0.0021   -0.0041    0.0020 C.2       1 <0>         0.2952
      3 O1          1.0609   -0.5963   -0.0113 O.2       1 <0>        -0.4628
      4 S1         -1.4241   -0.8535    0.0111 S.3       1 <0>        -0.0865
      5 C3         -0.9005   -2.5903   -0.0033 C.3       1 <0>        -0.0601
      6 H1         -0.2231   -2.7735    0.8309 H         1 <0>         0.1085
      7 C4         -0.1848   -2.8979   -1.3203 C.3       1 <0>        -0.0972
      8 C5         -1.1754   -2.7526   -2.4610 C.2       1 <0>        -0.0183
      9 C6         -0.8008   -2.0328   -3.5185 C.2       1 <0>        -0.2315
     10 C7         -1.7119   -1.8719   -4.6568 C.2       1 <0>         0.3896
     11 O2         -1.5963   -0.9548   -5.4427 O.2       1 <0>        -0.4548
     12 C8         -2.8054   -2.9124   -4.7998 C.3       1 <0>        -0.1675
     13 C9         -3.4907   -3.0448   -3.4405 C.3       1 <0>        -0.1034
     14 C10        -2.5067   -3.4292   -2.3500 C.3       1 <0>        -0.0255
     15 C11        -3.1324   -3.1361   -0.9805 C.3       1 <0>        -0.0732
     16 H2         -3.3553   -2.0713   -0.9129 H         1 <0>         0.0859
     17 C12        -2.1284   -3.4962    0.1260 C.3       1 <0>        -0.0598
     18 H3         -1.8316   -4.5409    0.0333 H         1 <0>         0.1084
     19 C13        -2.8065   -3.2536    1.4620 C.3       1 <0>        -0.0867
     20 H4         -3.1622   -2.2252    1.5250 H         1 <0>         0.0929
     21 C14        -1.9786   -3.6091    2.7028 C.3       1 <0>        -0.1134
     22 C15        -3.0641   -3.8464    3.7912 C.3       1 <0>        -0.1439
     23 C16        -4.3520   -4.2185    3.0328 C.3       1 <0>         0.1193
     24 C17        -3.9981   -4.2470    1.5548 C.3       1 <0>        -0.0467
     25 C18        -5.0436   -3.7809    0.5608 C.3       1 <0>        -0.1049
     26 C19        -4.4313   -3.9253   -0.8461 C.3       1 <0>        -0.1212
     27 C20        -3.5271   -5.6532    1.1784 C.3       1 <0>        -0.1475
     28 C21        -5.4589   -3.1890    3.3175 C.3       1 <0>        -0.1503
     29 C22        -6.2810   -3.8924    4.4267 C.3       1 <0>        -0.1865
     30 C23        -5.5352   -5.1989    4.6547 C.2       1 <0>         0.4823
     31 O3         -5.5324   -5.8644    5.6632 O.2       1 <0>        -0.4395
     32 O4         -4.8739   -5.4684    3.5007 O.3       1 <0>        -0.3359
     33 C24        -2.2779   -4.9398   -2.4307 C.3       1 <0>        -0.1534
     34 H5          1.0042    1.8801    0.0026 H         1 <0>         0.0923
     35 H6         -0.5455    1.8639   -0.8728 H         1 <0>         0.0982
     36 H7         -0.5286    1.8543    0.9071 H         1 <0>         0.0977
     37 H8          0.6390   -2.1980   -1.4605 H         1 <0>         0.0924
     38 H9          0.1995   -3.9176   -1.2978 H         1 <0>         0.0984
     39 H10         0.1736   -1.5675   -3.5370 H         1 <0>         0.1313
     40 H11        -3.5282   -2.5897   -5.5493 H         1 <0>         0.0938
     41 H12        -2.3710   -3.8689   -5.0905 H         1 <0>         0.1002
     42 H13        -3.9536   -2.0925   -3.1816 H         1 <0>         0.0719
     43 H14        -4.2653   -3.8089   -3.5059 H         1 <0>         0.0853
     44 H15        -1.3988   -4.5162    2.5325 H         1 <0>         0.0749
     45 H16        -1.3274   -2.7808    2.9820 H         1 <0>         0.0735
     46 H17        -2.7654   -4.6639    4.4474 H         1 <0>         0.0789
     47 H18        -3.2196   -2.9365    4.3710 H         1 <0>         0.0819
     48 H19        -5.9363   -4.4010    0.6426 H         1 <0>         0.0727
     49 H20        -5.2965   -2.7376    0.7498 H         1 <0>         0.0726
     50 H21        -5.1455   -3.5623   -1.5851 H         1 <0>         0.0725
     51 H22        -4.2282   -4.9789   -1.0382 H         1 <0>         0.0787
     52 H23        -2.7398   -5.9681    1.8633 H         1 <0>         0.0589
     53 H24        -4.3652   -6.3470    1.2446 H         1 <0>         0.0640
     54 H25        -3.1408   -5.6463    0.1592 H         1 <0>         0.0689
     55 H26        -5.0346   -2.2537    3.6826 H         1 <0>         0.0947
     56 H27        -6.0691   -3.0196    2.4303 H         1 <0>         0.0996
     57 H28        -6.2891   -3.2921    5.3365 H         1 <0>         0.1070
     58 H29        -7.2978   -4.0862    4.0853 H         1 <0>         0.1151
     59 H30        -1.6274   -5.2529   -1.6141 H         1 <0>         0.0630
     60 H31        -3.2342   -5.4569   -2.3522 H         1 <0>         0.0727
     61 H32        -1.8090   -5.1859   -3.3835 H         1 <0>         0.0606
@<TRIPOS>BOND
     1    1    2 1
     2    1   34 1
     3    1   35 1
     4    1   36 1
     5    2    3 2
     6    2    4 1
     7    4    5 1
     8    5    6 1
     9    5   17 1
    10    5    7 1
    11    7    8 1
    12    7   37 1
    13    7   38 1
    14    8   14 1
    15    8    9 2
    16    9   10 1
    17    9   39 1
    18   10   11 2
    19   10   12 1
    20   12   13 1
    21   12   40 1
    22   12   41 1
    23   13   14 1
    24   13   42 1
    25   13   43 1
    26   14   15 1
    27   14   33 1
    28   15   16 1
    29   15   26 1
    30   15   17 1
    31   17   18 1
    32   17   19 1
    33   19   20 1
    34   19   24 1
    35   19   21 1
    36   21   22 1
    37   21   44 1
    38   21   45 1
    39   22   23 1
    40   22   46 1
    41   22   47 1
    42   23   32 1
    43   23   24 1
    44   23   28 1
    45   24   25 1
    46   24   27 1
    47   25   26 1
    48   25   48 1
    49   25   49 1
    50   26   50 1
    51   26   51 1
    52   27   52 1
    53   27   53 1
    54   27   54 1
    55   28   29 1
    56   28   55 1
    57   28   56 1
    58   29   30 1
    59   29   57 1
    60   29   58 1
    61   30   31 2
    62   30   32 1
    63   33   59 1
    64   33   60 1
    65   33   61 1
@<TRIPOS>MOLECULE
ZINC62001395
   76    80     0     0     0
SMALL
USER_CHARGES

@<TRIPOS>ATOM
      1 C1          0.2065    1.5132    0.1145 C.3       1 <0>        -0.1570
      2 C2          0.0028    0.0010    0.0021 C.3       1 <0>        -0.0855
      3 H1         -1.0635   -0.2244    0.0211 H         1 <0>         0.0772
      4 C3          0.6922   -0.6952    1.1772 C.3       1 <0>        -0.1017
      5 C4          0.0063   -0.2904    2.4835 C.3       1 <0>        -0.1408
      6 C5          0.6854   -0.9762    3.6409 C.2       1 <0>         0.5151
      7 O1          1.6254   -1.7159    3.4407 O.2       1 <0>        -0.5356
      8 N1          0.2481   -0.7675    4.8986 N.am      1 <0>        -0.7073
      9 C6          0.9082   -1.4342    6.0237 C.3       1 <0>         0.0768
     10 C7          0.0153   -2.0459    7.1051 C.3       1 <0>        -0.1933
     11 C8          0.8058   -0.7690    7.3978 C.3       1 <0>        -0.1894
     12 C9          0.6063   -0.4986   -1.3121 C.3       1 <0>        -0.0706
     13 H2          1.6563   -0.2135   -1.3773 H         1 <0>         0.0695
     14 C10         0.4602   -2.0371   -1.4192 C.3       1 <0>        -0.1254
     15 C11        -0.3312   -2.3120   -2.7271 C.3       1 <0>        -0.0992
     16 C12        -0.0549   -1.0587   -3.5646 C.3       1 <0>        -0.0764
     17 H3          0.9542   -1.0915   -3.9755 H         1 <0>         0.0660
     18 C13        -0.1692    0.0656   -2.4979 C.3       1 <0>        -0.0558
     19 C14         0.3718    1.3393   -3.1171 C.3       1 <0>        -0.1074
     20 C15        -0.5558    1.7088   -4.2870 C.3       1 <0>        -0.1166
     21 C16        -0.6421    0.5777   -5.3057 C.3       1 <0>        -0.0715
     22 H4          0.3403    0.4327   -5.7553 H         1 <0>         0.0724
     23 C17        -1.0610   -0.7592   -4.6601 C.3       1 <0>        -0.0662
     24 H5         -2.0560   -0.6543   -4.2276 H         1 <0>         0.0880
     25 C18        -1.0472   -1.8687   -5.7126 C.3       1 <0>         0.1113
     26 H6         -0.0433   -1.9649   -6.1260 H         1 <0>         0.0533
     27 C19        -2.0290   -1.5206   -6.8332 C.3       1 <0>        -0.1481
     28 C20        -1.6154   -0.1986   -7.4832 C.3       1 <0>        -0.0723
     29 H7         -2.3134    0.0478   -8.2833 H         1 <0>         0.0728
     30 C21        -1.6405    0.9388   -6.4064 C.3       1 <0>        -0.0499
     31 C22        -1.2237    2.2591   -7.0584 C.3       1 <0>        -0.1086
     32 C23         0.1793    2.1123   -7.6511 C.3       1 <0>        -0.1536
     33 C24         0.1743    1.0033   -8.7054 C.3       1 <0>         0.1058
     34 H8         -0.5284    1.2592   -9.4984 H         1 <0>         0.0543
     35 C25        -0.2046   -0.3350   -8.0599 C.3       1 <0>        -0.1106
     36 O2          1.4852    0.8649   -9.2570 O.3       1 <0>        -0.5704
     37 C26        -3.0388    1.0813   -5.8018 C.3       1 <0>        -0.1471
     38 O3         -1.4336   -3.1042   -5.1074 O.3       1 <0>        -0.5596
     39 C27        -1.6361    0.2623   -2.1102 C.3       1 <0>        -0.1509
     40 H9          1.2731    1.7341    0.1549 H         1 <0>         0.0534
     41 H10        -0.2337    2.0046   -0.7531 H         1 <0>         0.0650
     42 H11        -0.2747    1.8782    1.0219 H         1 <0>         0.0513
     43 H12         0.6235   -1.7757    1.0504 H         1 <0>         0.0736
     44 H13         1.7407   -0.3992    1.2105 H         1 <0>         0.0682
     45 H14         0.0750    0.7900    2.6103 H         1 <0>         0.0948
     46 H15        -1.0422   -0.5864    2.4503 H         1 <0>         0.0926
     47 H16        -0.5037   -0.1759    5.0588 H         1 <0>         0.4015
     48 H17         1.8362   -1.9533    5.7838 H         1 <0>         0.1374
     49 H18        -1.0634   -1.9523    6.9793 H         1 <0>         0.0969
     50 H19         0.3555   -2.9678    7.5767 H         1 <0>         0.1029
     51 H20         1.6661   -0.8509    8.0620 H         1 <0>         0.1041
     52 H21         0.2471    0.1645    7.4646 H         1 <0>         0.0973
     53 H22         1.4439   -2.5036   -1.4722 H         1 <0>         0.0591
     54 H23        -0.0908   -2.4213   -0.5608 H         1 <0>         0.0643
     55 H24         0.0489   -3.2023   -3.2281 H         1 <0>         0.0658
     56 H25        -1.3968   -2.4101   -2.5197 H         1 <0>         0.0655
     57 H26         0.3728    2.1399   -2.3775 H         1 <0>         0.0673
     58 H27         1.3841    1.1719   -3.4851 H         1 <0>         0.0604
     59 H28        -1.5532    1.9167   -3.8995 H         1 <0>         0.0692
     60 H29        -0.1717    2.6028   -4.7783 H         1 <0>         0.0625
     61 H30        -2.0203   -2.3121   -7.5826 H         1 <0>         0.0636
     62 H31        -3.0328   -1.4235   -6.4195 H         1 <0>         0.0750
     63 H32        -1.9284    2.5118   -7.8505 H         1 <0>         0.0625
     64 H33        -1.2205    3.0499   -6.3082 H         1 <0>         0.0707
     65 H34         0.4782    3.0526   -8.1143 H         1 <0>         0.0629
     66 H35         0.8835    1.8574   -6.8591 H         1 <0>         0.0749
     67 H36         0.4927   -0.5826   -7.2594 H         1 <0>         0.0775
     68 H37        -0.1934   -1.1268   -8.8089 H         1 <0>         0.0688
     69 H38         1.8179    1.6650   -9.6861 H         1 <0>         0.3759
     70 H39        -3.0300    1.8680   -5.0474 H         1 <0>         0.0597
     71 H40        -3.7496    1.3386   -6.5869 H         1 <0>         0.0533
     72 H41        -3.3328    0.1386   -5.3401 H         1 <0>         0.0624
     73 H42        -1.4471   -3.8540   -5.7179 H         1 <0>         0.3730
     74 H43        -1.7098    1.0404   -1.3504 H         1 <0>         0.0584
     75 H44        -2.2079    0.5580   -2.9898 H         1 <0>         0.0605
     76 H45        -2.0356   -0.6713   -1.7141 H         1 <0>         0.0561
@<TRIPOS>BOND
     1    1    2 1
     2    1   40 1
     3    1   41 1
     4    1   42 1
     5    2    3 1
     6    2    4 1
     7    2   12 1
     8    4    5 1
     9    4   43 1
    10    4   44 1
    11    5    6 1
    12    5   45 1
    13    5   46 1
    14    6    7 2
    15    6    8 am
    16    8    9 1
    17    8   47 1
    18    9   11 1
    19    9   10 1
    20    9   48 1
    21   10   11 1
    22   10   49 1
    23   10   50 1
    24   11   51 1
    25   11   52 1
    26   12   13 1
    27   12   18 1
    28   12   14 1
    29   14   15 1
    30   14   53 1
    31   14   54 1
    32   15   16 1
    33   15   55 1
    34   15   56 1
    35   16   17 1
    36   16   23 1
    37   16   18 1
    38   18   19 1
    39   18   39 1
    40   19   20 1
    41   19   57 1
    42   19   58 1
    43   20   21 1
    44   20   59 1
    45   20   60 1
    46   21   22 1
    47   21   30 1
    48   21   23 1
    49   23   24 1
    50   23   25 1
    51   25   26 1
    52   25   27 1
    53   25   38 1
    54   27   28 1
    55   27   61 1
    56   27   62 1
    57   28   29 1
    58   28   35 1
    59   28   30 1
    60   30   31 1
    61   30   37 1
    62   31   32 1
    63   31   63 1
    64   31   64 1
    65   32   33 1
    66   32   65 1
    67   32   66 1
    68   33   34 1
    69   33   35 1
    70   33   36 1
    71   35   67 1
    72   35   68 1
    73   36   69 1
    74   37   70 1
    75   37   71 1
    76   37   72 1
    77   38   73 1
    78   39   74 1
    79   39   75 1
    80   39   76 1
@<TRIPOS>MOLECULE
ZINC66099623
   94    99     0     0     0
SMALL
USER_CHARGES

@<TRIPOS>ATOM
      1 C1          0.2065    1.5132    0.1145 C.3       1 <0>        -0.1565
      2 C2          0.0028    0.0010    0.0021 C.3       1 <0>        -0.0850
      3 H1         -1.0635   -0.2244    0.0211 H         1 <0>         0.0766
      4 C3          0.6922   -0.6952    1.1772 C.3       1 <0>        -0.1014
      5 C4          0.0063   -0.2904    2.4835 C.3       1 <0>        -0.1395
      6 C5          0.6854   -0.9762    3.6409 C.2       1 <0>         0.5141
      7 O1          1.6254   -1.7159    3.4407 O.2       1 <0>        -0.5384
      8 N1          0.2481   -0.7675    4.8986 N.am      1 <0>        -0.6180
      9 C6         -0.8939    0.1208    5.1631 C.3       1 <0>         0.1123
     10 C7         -1.9000   -0.6287    6.0431 C.3       1 <0>         0.0394
     11 N2         -1.2163   -1.1348    7.2407 N.3       1 <0>        -0.5315
     12 C8         -0.1764   -2.1107    6.8883 C.3       1 <0>         0.0375
     13 C9          0.8964   -1.4267    6.0424 C.3       1 <0>         0.1166
     14 C10        -2.1770   -1.7096    8.1919 C.3       1 <0>         0.0945
     15 C11        -1.4821   -1.9918    9.4990 C.ar      1 <0>        -0.0812
     16 C12        -0.8815   -3.2186    9.7117 C.ar      1 <0>        -0.1158
     17 C13        -0.2441   -3.4775   10.9107 C.ar      1 <0>        -0.1201
     18 C14        -0.2068   -2.5095   11.8968 C.ar      1 <0>        -0.1184
     19 C15        -0.8065   -1.2824   11.6837 C.ar      1 <0>        -0.1204
     20 C16        -1.4403   -1.0219   10.4831 C.ar      1 <0>        -0.0974
     21 C17         0.6063   -0.4986   -1.3121 C.3       1 <0>        -0.0703
     22 H2          1.6563   -0.2135   -1.3773 H         1 <0>         0.0694
     23 C18         0.4602   -2.0371   -1.4192 C.3       1 <0>        -0.1252
     24 C19        -0.3312   -2.3120   -2.7271 C.3       1 <0>        -0.0990
     25 C20        -0.0549   -1.0587   -3.5646 C.3       1 <0>        -0.0764
     26 H3          0.9542   -1.0915   -3.9755 H         1 <0>         0.0659
     27 C21        -0.1692    0.0656   -2.4979 C.3       1 <0>        -0.0556
     28 C22         0.3718    1.3393   -3.1171 C.3       1 <0>        -0.1074
     29 C23        -0.5558    1.7088   -4.2870 C.3       1 <0>        -0.1165
     30 C24        -0.6421    0.5777   -5.3057 C.3       1 <0>        -0.0715
     31 H4          0.3403    0.4327   -5.7553 H         1 <0>         0.0723
     32 C25        -1.0610   -0.7592   -4.6601 C.3       1 <0>        -0.0661
     33 H5         -2.0560   -0.6543   -4.2276 H         1 <0>         0.0879
     34 C26        -1.0472   -1.8687   -5.7126 C.3       1 <0>         0.1113
     35 H6         -0.0433   -1.9649   -6.1260 H         1 <0>         0.0533
     36 C27        -2.0290   -1.5206   -6.8332 C.3       1 <0>        -0.1481
     37 C28        -1.6154   -0.1986   -7.4832 C.3       1 <0>        -0.0723
     38 H7         -2.3134    0.0478   -8.2833 H         1 <0>         0.0728
     39 C29        -1.6405    0.9388   -6.4064 C.3       1 <0>        -0.0499
     40 C30        -1.2237    2.2591   -7.0584 C.3       1 <0>        -0.1085
     41 C31         0.1793    2.1123   -7.6511 C.3       1 <0>        -0.1535
     42 C32         0.1743    1.0033   -8.7054 C.3       1 <0>         0.1058
     43 H8         -0.5284    1.2592   -9.4984 H         1 <0>         0.0543
     44 C33        -0.2046   -0.3350   -8.0599 C.3       1 <0>        -0.1106
     45 O2          1.4852    0.8649   -9.2570 O.3       1 <0>        -0.5704
     46 C34        -3.0388    1.0813   -5.8018 C.3       1 <0>        -0.1471
     47 O3         -1.4336   -3.1042   -5.1074 O.3       1 <0>        -0.5597
     48 C35        -1.6361    0.2623   -2.1102 C.3       1 <0>        -0.1506
     49 H9          1.2731    1.7341    0.1549 H         1 <0>         0.0534
     50 H10        -0.2337    2.0046   -0.7531 H         1 <0>         0.0649
     51 H11        -0.2747    1.8782    1.0219 H         1 <0>         0.0511
     52 H12         0.6235   -1.7757    1.0504 H         1 <0>         0.0725
     53 H13         1.7407   -0.3992    1.2105 H         1 <0>         0.0679
     54 H14         0.0750    0.7900    2.6103 H         1 <0>         0.0940
     55 H15        -1.0422   -0.5864    2.4503 H         1 <0>         0.0901
     56 H16        -0.5495    1.0156    5.6814 H         1 <0>         0.0790
     57 H17        -1.3672    0.3990    4.2214 H         1 <0>         0.0906
     58 H18        -2.6996    0.0498    6.3402 H         1 <0>         0.0902
     59 H19        -2.3206   -1.4644    5.4838 H         1 <0>         0.0404
     60 H20         0.2740   -2.5069    7.7984 H         1 <0>         0.0934
     61 H21        -0.6210   -2.9258    6.3173 H         1 <0>         0.0379
     62 H22         1.6063   -2.1711    5.6818 H         1 <0>         0.0954
     63 H23         1.4163   -0.6835    6.6469 H         1 <0>         0.0739
     64 H24        -2.9906   -1.0035    8.3580 H         1 <0>         0.0861
     65 H25        -2.5788   -2.6380    7.7862 H         1 <0>         0.0442
     66 H26        -0.9107   -3.9749    8.9413 H         1 <0>         0.1178
     67 H27         0.2245   -4.4363   11.0771 H         1 <0>         0.1218
     68 H28         0.2906   -2.7120   12.8338 H         1 <0>         0.1215
     69 H29        -0.7777   -0.5262   12.4543 H         1 <0>         0.1223
     70 H30        -1.9056   -0.0619   10.3152 H         1 <0>         0.1223
     71 H31         1.4439   -2.5036   -1.4722 H         1 <0>         0.0589
     72 H32        -0.0908   -2.4213   -0.5608 H         1 <0>         0.0638
     73 H33         0.0489   -3.2023   -3.2281 H         1 <0>         0.0656
     74 H34        -1.3968   -2.4101   -2.5197 H         1 <0>         0.0653
     75 H35         0.3728    2.1399   -2.3775 H         1 <0>         0.0674
     76 H36         1.3841    1.1719   -3.4851 H         1 <0>         0.0603
     77 H37        -1.5532    1.9167   -3.8995 H         1 <0>         0.0692
     78 H38        -0.1717    2.6028   -4.7783 H         1 <0>         0.0625
     79 H39        -2.0203   -2.3121   -7.5826 H         1 <0>         0.0635
     80 H40        -3.0328   -1.4235   -6.4195 H         1 <0>         0.0750
     81 H41        -1.9284    2.5118   -7.8505 H         1 <0>         0.0625
     82 H42        -1.2205    3.0499   -6.3082 H         1 <0>         0.0708
     83 H43         0.4782    3.0526   -8.1143 H         1 <0>         0.0629
     84 H44         0.8835    1.8574   -6.8591 H         1 <0>         0.0749
     85 H45         0.4927   -0.5826   -7.2594 H         1 <0>         0.0774
     86 H46        -0.1934   -1.1268   -8.8089 H         1 <0>         0.0688
     87 H47         1.8179    1.6650   -9.6861 H         1 <0>         0.3759
     88 H48        -3.0300    1.8680   -5.0474 H         1 <0>         0.0598
     89 H49        -3.7496    1.3386   -6.5869 H         1 <0>         0.0533
     90 H50        -3.3328    0.1386   -5.3401 H         1 <0>         0.0623
     91 H51        -1.4471   -3.8540   -5.7179 H         1 <0>         0.3729
     92 H52        -1.7098    1.0404   -1.3504 H         1 <0>         0.0584
     93 H53        -2.2079    0.5580   -2.9898 H         1 <0>         0.0604
     94 H54        -2.0356   -0.6713   -1.7141 H         1 <0>         0.0558
@<TRIPOS>BOND
     1    1    2 1
     2    1   49 1
     3    1   50 1
     4    1   51 1
     5    2    3 1
     6    2    4 1
     7    2   21 1
     8    4    5 1
     9    4   52 1
    10    4   53 1
    11    5    6 1
    12    5   54 1
    13    5   55 1
    14    6    7 2
    15    6    8 am
    16    8   13 1
    17    8    9 1
    18    9   10 1
    19    9   56 1
    20    9   57 1
    21   10   11 1
    22   10   58 1
    23   10   59 1
    24   11   12 1
    25   11   14 1
    26   12   13 1
    27   12   60 1
    28   12   61 1
    29   13   62 1
    30   13   63 1
    31   14   15 1
    32   14   64 1
    33   14   65 1
    34   15   20 ar
    35   15   16 ar
    36   16   17 ar
    37   16   66 1
    38   17   18 ar
    39   17   67 1
    40   18   19 ar
    41   18   68 1
    42   19   20 ar
    43   19   69 1
    44   20   70 1
    45   21   22 1
    46   21   27 1
    47   21   23 1
    48   23   24 1
    49   23   71 1
    50   23   72 1
    51   24   25 1
    52   24   73 1
    53   24   74 1
    54   25   26 1
    55   25   32 1
    56   25   27 1
    57   27   28 1
    58   27   48 1
    59   28   29 1
    60   28   75 1
    61   28   76 1
    62   29   30 1
    63   29   77 1
    64   29   78 1
    65   30   31 1
    66   30   39 1
    67   30   32 1
    68   32   33 1
    69   32   34 1
    70   34   35 1
    71   34   36 1
    72   34   47 1
    73   36   37 1
    74   36   79 1
    75   36   80 1
    76   37   38 1
    77   37   44 1
    78   37   39 1
    79   39   40 1
    80   39   46 1
    81   40   41 1
    82   40   81 1
    83   40   82 1
    84   41   42 1
    85   41   83 1
    86   41   84 1
    87   42   43 1
    88   42   44 1
    89   42   45 1
    90   44   85 1
    91   44   86 1
    92   45   87 1
    93   46   88 1
    94   46   89 1
    95   46   90 1
    96   47   91 1
    97   48   92 1
    98   48   93 1
    99   48   94 1
@<TRIPOS>MOLECULE
ZINC66099623
   95   100     0     0     0
SMALL
USER_CHARGES

@<TRIPOS>ATOM
      1 C1         -0.2212    1.5072    0.1531 C.3       1 <0>        -0.1580
      2 C2          0.0016    0.0010    0.0027 C.3       1 <0>        -0.0840
      3 H1          0.5215   -0.1976   -0.9345 H         1 <0>         0.0777
      4 C3         -1.3498   -0.7165   -0.0018 C.3       1 <0>        -0.1053
      5 C4         -2.1447   -0.2991   -1.2407 C.3       1 <0>        -0.1418
      6 C5         -3.4757   -1.0058   -1.2451 C.2       1 <0>         0.5215
      7 O1         -3.7605   -1.7681   -0.3459 O.2       1 <0>        -0.5062
      8 N1         -4.3496   -0.7906   -2.2483 N.am      1 <0>        -0.6378
      9 C6         -4.0231    0.1250   -3.3525 C.3       1 <0>         0.0852
     10 C7         -4.2896   -0.5973   -4.6773 C.3       1 <0>        -0.0224
     11 N2         -5.6704   -1.0967   -4.6922 N.4       1 <0>        -0.3825
     12 C8         -5.8462   -2.1122   -3.6463 C.3       1 <0>        -0.0249
     13 C9         -5.6546   -1.4693   -2.2734 C.3       1 <0>         0.0890
     14 C10        -5.9597   -1.6919   -6.0037 C.3       1 <0>         0.0449
     15 C11        -7.4109   -2.0939   -6.0638 C.ar      1 <0>        -0.1639
     16 C12        -7.7953   -3.3580   -5.6573 C.ar      1 <0>        -0.0984
     17 C13        -9.1264   -3.7268   -5.7124 C.ar      1 <0>        -0.1125
     18 C14       -10.0732   -2.8313   -6.1735 C.ar      1 <0>        -0.0826
     19 C15        -9.6889   -1.5669   -6.5791 C.ar      1 <0>        -0.1125
     20 C16        -8.3584   -1.1966   -6.5200 C.ar      1 <0>        -0.0930
     21 C17         0.8459   -0.5090    1.1723 C.3       1 <0>        -0.0715
     22 H2          0.3732   -0.2502    2.1197 H         1 <0>         0.0706
     23 C18         1.0357   -2.0430    1.0685 C.3       1 <0>        -0.1240
     24 C19         2.5681   -2.2933    1.0317 C.3       1 <0>        -0.0997
     25 C20         3.1358   -1.0444    1.7148 C.3       1 <0>        -0.0764
     26 H3          2.9879   -1.1011    2.7932 H         1 <0>         0.0671
     27 C21         2.2516    0.0786    1.1050 C.3       1 <0>        -0.0562
     28 C22         2.4977    1.3405    1.9084 C.3       1 <0>        -0.1075
     29 C23         3.9687    1.7373    1.6975 C.3       1 <0>        -0.1169
     30 C24         4.9117    0.6122    2.1096 C.3       1 <0>        -0.0723
     31 H4          4.8124    0.4442    3.1820 H         1 <0>         0.0733
     32 C25         4.5826   -0.7160    1.3974 C.3       1 <0>        -0.0654
     33 H5          4.7037   -0.5876    0.3217 H         1 <0>         0.0873
     34 C26         5.5046   -1.8218    1.9133 C.3       1 <0>         0.1110
     35 H6          5.3624   -1.9417    2.9873 H         1 <0>         0.0541
     36 C27         6.9603   -1.4452    1.6304 C.3       1 <0>        -0.1482
     37 C28         7.2959   -0.1318    2.3400 C.3       1 <0>        -0.0730
     38 H7          8.3338    0.1349    2.1405 H         1 <0>         0.0741
     39 C29         6.3582    1.0021    1.8026 C.3       1 <0>        -0.0498
     40 C30         6.6940    2.3138    2.5159 C.3       1 <0>        -0.1090
     41 C31         6.5085    2.1339    4.0240 C.3       1 <0>        -0.1534
     42 C32         7.4413    1.0291    4.5246 C.3       1 <0>         0.1052
     43 H8          8.4752    1.3053    4.3178 H         1 <0>         0.0552
     44 C33         7.0925   -0.3015    3.8471 C.3       1 <0>        -0.1104
     45 O2          7.2661    0.8597    5.9326 O.3       1 <0>        -0.5703
     46 C34         6.5311    1.1775    0.2925 C.3       1 <0>        -0.1469
     47 O3          5.1928   -3.0493    1.2515 O.3       1 <0>        -0.5618
     48 C35         2.6458    0.3108   -0.3550 C.3       1 <0>        -0.1502
     49 H9          0.7426    2.0125    0.2156 H         1 <0>         0.0691
     50 H10        -0.7722    1.8810   -0.7099 H         1 <0>         0.0479
     51 H11        -0.7926    1.7011    1.0608 H         1 <0>         0.0549
     52 H12        -1.1888   -1.7944   -0.0195 H         1 <0>         0.0756
     53 H13        -1.9072   -0.4470    0.8953 H         1 <0>         0.0711
     54 H14        -2.3056    0.7788   -1.2230 H         1 <0>         0.1006
     55 H15        -1.5873   -0.5686   -2.1378 H         1 <0>         0.0959
     56 H16        -4.6495    1.0147   -3.2879 H         1 <0>         0.0976
     57 H17        -2.9722    0.4083   -3.2948 H         1 <0>         0.1322
     58 H18        -4.1452    0.0969   -5.5052 H         1 <0>         0.1457
     59 H19        -3.5992   -1.4344   -4.7801 H         1 <0>         0.1350
     60 H20        -6.8489   -2.5343   -3.7145 H         1 <0>         0.1438
     61 H21        -5.1087   -2.9035   -3.7804 H         1 <0>         0.1331
     62 H22        -5.6817   -2.2394   -1.5025 H         1 <0>         0.1353
     63 H23        -6.4484   -0.7432   -2.0980 H         1 <0>         0.0926
     64 H24        -5.7519   -0.9632   -6.7873 H         1 <0>         0.1390
     65 H25        -5.3327   -2.5714   -6.1499 H         1 <0>         0.1357
     66 H26        -7.0556   -4.0576   -5.2970 H         1 <0>         0.1310
     67 H27        -9.4266   -4.7146   -5.3955 H         1 <0>         0.1369
     68 H28       -11.1130   -3.1196   -6.2172 H         1 <0>         0.1366
     69 H29       -10.4286   -0.8674   -6.9397 H         1 <0>         0.1367
     70 H30        -8.0586   -0.2075   -6.8334 H         1 <0>         0.1315
     71 H31         0.5972   -2.5338    1.9374 H         1 <0>         0.0596
     72 H32         0.5736   -2.4162    0.1546 H         1 <0>         0.0607
     73 H33         2.8259   -3.1911    1.5935 H         1 <0>         0.0674
     74 H34         2.9226   -2.3654    0.0035 H         1 <0>         0.0656
     75 H35         1.8441    2.1382    1.5555 H         1 <0>         0.0660
     76 H36         2.3131    1.1490    2.9655 H         1 <0>         0.0614
     77 H37         4.1282    1.9688    0.6444 H         1 <0>         0.0690
     78 H38         4.1882    2.6230    2.2936 H         1 <0>         0.0641
     79 H39         7.6173   -2.2341    1.9968 H         1 <0>         0.0648
     80 H40         7.1021   -1.3244    0.5565 H         1 <0>         0.0749
     81 H41         7.7283    2.5869    2.3068 H         1 <0>         0.0638
     82 H42         6.0304    3.1017    2.1594 H         1 <0>         0.0702
     83 H43         6.7456    3.0680    4.5332 H         1 <0>         0.0638
     84 H44         5.4747    1.8587    4.2326 H         1 <0>         0.0739
     85 H45         6.0547   -0.5693    4.0456 H         1 <0>         0.0764
     86 H46         7.7479   -1.0907    4.2154 H         1 <0>         0.0698
     87 H47         7.4590    1.6528    6.4512 H         1 <0>         0.3770
     88 H48         5.8612    1.9612   -0.0613 H         1 <0>         0.0588
     89 H49         7.5623    1.4554    0.0747 H         1 <0>         0.0546
     90 H50         6.2929    0.2410   -0.2117 H         1 <0>         0.0616
     91 H51         5.7400   -3.7963    1.5300 H         1 <0>         0.3746
     92 H52         2.0126    1.0878   -0.7831 H         1 <0>         0.0563
     93 H53         3.6887    0.6238   -0.4044 H         1 <0>         0.0631
     94 H54         2.5169   -0.6139   -0.9176 H         1 <0>         0.0547
     95 H55        -6.3056   -0.3306   -4.5258 H         1 <0>         0.4229
@<TRIPOS>BOND
     1    1    2 1
     2    1   49 1
     3    1   50 1
     4    1   51 1
     5    2    3 1
     6    2    4 1
     7    2   21 1
     8    4    5 1
     9    4   52 1
    10    4   53 1
    11    5    6 1
    12    5   54 1
    13    5   55 1
    14    6    7 2
    15    6    8 am
    16    8   13 1
    17    8    9 1
    18    9   10 1
    19    9   56 1
    20    9   57 1
    21   10   11 1
    22   10   58 1
    23   10   59 1
    24   11   12 1
    25   11   14 1
    26   11   95 1
    27   12   13 1
    28   12   60 1
    29   12   61 1
    30   13   62 1
    31   13   63 1
    32   14   15 1
    33   14   64 1
    34   14   65 1
    35   15   20 ar
    36   15   16 ar
    37   16   17 ar
    38   16   66 1
    39   17   18 ar
    40   17   67 1
    41   18   19 ar
    42   18   68 1
    43   19   20 ar
    44   19   69 1
    45   20   70 1
    46   21   22 1
    47   21   27 1
    48   21   23 1
    49   23   24 1
    50   23   71 1
    51   23   72 1
    52   24   25 1
    53   24   73 1
    54   24   74 1
    55   25   26 1
    56   25   32 1
    57   25   27 1
    58   27   28 1
    59   27   48 1
    60   28   29 1
    61   28   75 1
    62   28   76 1
    63   29   30 1
    64   29   77 1
    65   29   78 1
    66   30   31 1
    67   30   39 1
    68   30   32 1
    69   32   33 1
    70   32   34 1
    71   34   35 1
    72   34   36 1
    73   34   47 1
    74   36   37 1
    75   36   79 1
    76   36   80 1
    77   37   38 1
    78   37   44 1
    79   37   39 1
    80   39   40 1
    81   39   46 1
    82   40   41 1
    83   40   81 1
    84   40   82 1
    85   41   42 1
    86   41   83 1
    87   41   84 1
    88   42   43 1
    89   42   44 1
    90   42   45 1
    91   44   85 1
    92   44   86 1
    93   45   87 1
    94   46   88 1
    95   46   89 1
    96   46   90 1
    97   47   91 1
    98   48   92 1
    99   48   93 1
   100   48   94 1
@<TRIPOS>MOLECULE
ZINC04026402
   44    47     0     0     0
SMALL
USER_CHARGES

@<TRIPOS>ATOM
      1 C1         -0.0187    1.5258    0.0104 C.3       1 <0>        -0.1340
      2 C2          0.0021   -0.0041    0.0020 C.3       1 <0>        -0.0589
      3 C3         -1.4169   -0.5413    0.0692 C.3       1 <0>        -0.1023
      4 C4         -2.1076    0.1485    1.2556 C.3       1 <0>        -0.1018
      5 C5         -1.2709    0.0296    2.5140 C.2       1 <0>        -0.0549
      6 C6         -1.9067   -0.2571    3.6487 C.2       1 <0>        -0.1365
      7 C7         -3.4047   -0.4598    3.6618 C.3       1 <0>        -0.0815
      8 C8         -3.7272   -1.6637    4.5522 C.3       1 <0>        -0.1661
      9 C9         -3.0416   -1.5182    5.8839 C.2       1 <0>         0.3870
     10 O1         -3.6019   -1.9098    6.8880 O.2       1 <0>        -0.4713
     11 C10        -1.7656   -0.9375    5.9887 C.2       1 <0>        -0.2509
     12 C11        -1.1846   -0.3580    4.9166 C.2       1 <0>         0.0277
     13 C12         0.2114    0.2116    4.9799 C.3       1 <0>        -0.0963
     14 C13         0.9462   -0.2175    3.7108 C.3       1 <0>        -0.1110
     15 C14         0.2209    0.2403    2.4569 C.3       1 <0>        -0.0467
     16 H1          0.4221    1.2999    2.2993 H         1 <0>         0.0943
     17 C15         0.7504   -0.5305    1.2551 C.3       1 <0>        -0.0815
     18 H2          0.5904   -1.6018    1.3766 H         1 <0>         0.0817
     19 C16         2.2113   -0.2199    0.9021 C.3       1 <0>        -0.1142
     20 C17         2.2981   -0.6003   -0.5998 C.3       1 <0>        -0.1573
     21 C18         0.8577   -0.5068   -1.1587 C.3       1 <0>         0.1111
     22 H3          0.5143   -1.4893   -1.4826 H         1 <0>         0.0583
     23 O2          0.8085    0.4186   -2.2465 O.3       1 <0>        -0.5597
     24 H4          1.0039    1.9031    0.0027 H         1 <0>         0.0559
     25 H5         -0.5459    1.8868   -0.8726 H         1 <0>         0.0624
     26 H6         -0.5289    1.8773    0.9072 H         1 <0>         0.0582
     27 H7         -1.9460   -0.3087   -0.8549 H         1 <0>         0.0721
     28 H8         -1.3985   -1.6197    0.2262 H         1 <0>         0.0664
     29 H9         -2.2538    1.2029    1.0211 H         1 <0>         0.0855
     30 H10        -3.0781   -0.3177    1.4254 H         1 <0>         0.0853
     31 H11        -3.8909    0.4307    4.0603 H         1 <0>         0.0804
     32 H12        -3.7571   -0.6496    2.6480 H         1 <0>         0.0938
     33 H13        -4.8049   -1.7223    4.7048 H         1 <0>         0.0944
     34 H14        -3.3824   -2.5761    4.0657 H         1 <0>         0.0986
     35 H15        -1.2455   -0.9552    6.9351 H         1 <0>         0.1345
     36 H16         0.1647    1.2994    5.0299 H         1 <0>         0.0889
     37 H17         0.7297   -0.1774    5.8564 H         1 <0>         0.0849
     38 H18         1.9481    0.2117    3.7182 H         1 <0>         0.0769
     39 H19         1.0271   -1.3044    3.6975 H         1 <0>         0.0676
     40 H20         2.4250    0.8395    1.0442 H         1 <0>         0.0721
     41 H21         2.8896   -0.8337    1.4948 H         1 <0>         0.0684
     42 H22         2.9493    0.0981   -1.1255 H         1 <0>         0.0741
     43 H23         2.6756   -1.6172   -0.7069 H         1 <0>         0.0681
     44 H24         1.3337    0.1523   -3.0135 H         1 <0>         0.3763
@<TRIPOS>BOND
     1    1    2 1
     2    1   24 1
     3    1   25 1
     4    1   26 1
     5    2   17 1
     6    2   21 1
     7    2    3 1
     8    3    4 1
     9    3   27 1
    10    3   28 1
    11    4    5 1
    12    4   29 1
    13    4   30 1
    14    5   15 1
    15    5    6 2
    16    6   12 1
    17    6    7 1
    18    7    8 1
    19    7   31 1
    20    7   32 1
    21    8    9 1
    22    8   33 1
    23    8   34 1
    24    9   10 2
    25    9   11 1
    26   11   12 2
    27   11   35 1
    28   12   13 1
    29   13   14 1
    30   13   36 1
    31   13   37 1
    32   14   15 1
    33   14   38 1
    34   14   39 1
    35   15   16 1
    36   15   17 1
    37   17   18 1
    38   17   19 1
    39   19   20 1
    40   19   40 1
    41   19   41 1
    42   20   21 1
    43   20   42 1
    44   20   43 1
    45   21   22 1
    46   21   23 1
    47   23   44 1
@<TRIPOS>MOLECULE
ZINC04026403
   44    47     0     0     0
SMALL
USER_CHARGES

@<TRIPOS>ATOM
      1 C1         -0.0187    1.5258    0.0104 C.3       1 <0>        -0.1272
      2 C2          0.0021   -0.0041    0.0020 C.3       1 <0>        -0.0438
      3 C3         -1.4070   -0.5979   -0.1042 C.3       1 <0>        -0.1077
      4 C4         -2.2109   -0.2716    1.1517 C.3       1 <0>        -0.1001
      5 C5         -1.4750   -0.8416    2.3493 C.2       1 <0>        -0.0508
      6 C6         -2.1528   -1.6044    3.2007 C.2       1 <0>        -0.1363
      7 C7         -3.6142   -1.9158    2.9768 C.3       1 <0>        -0.0784
      8 C8         -3.8507   -3.3975    3.2855 C.3       1 <0>        -0.1656
      9 C9         -3.2714   -3.7431    4.6306 C.2       1 <0>         0.3873
     10 O1         -3.8446   -4.5486    5.3363 O.2       1 <0>        -0.4714
     11 C10        -2.0802   -3.1519    5.0872 C.2       1 <0>        -0.2514
     12 C11        -1.5045   -2.1459    4.3962 C.2       1 <0>         0.0278
     13 C12        -0.1926   -1.5329    4.8206 C.3       1 <0>        -0.0957
     14 C13         0.6713   -1.3603    3.5726 C.3       1 <0>        -0.1133
     15 C14        -0.0237   -0.5142    2.5157 C.3       1 <0>        -0.0430
     16 H1          0.0350    0.5224    2.8476 H         1 <0>         0.0807
     17 C15         0.7332   -0.5798    1.2245 C.3       1 <0>        -0.0717
     18 H2          1.6749   -0.0453    1.3488 H         1 <0>         0.0773
     19 C16         1.0583   -2.0241    0.8042 C.3       1 <0>        -0.1177
     20 C17         1.4645   -1.8797   -0.6814 C.3       1 <0>        -0.1596
     21 C18         0.8207   -0.5753   -1.1885 C.3       1 <0>         0.1035
     22 H3          0.1609   -0.7857   -2.0302 H         1 <0>         0.0581
     23 O2          1.8343    0.3536   -1.5782 O.3       1 <0>        -0.5613
     24 H4          1.0039    1.9031    0.0027 H         1 <0>         0.0670
     25 H5         -0.5459    1.8868   -0.8726 H         1 <0>         0.0553
     26 H6         -0.5289    1.8773    0.9072 H         1 <0>         0.0534
     27 H7         -1.9111   -0.1786   -0.9750 H         1 <0>         0.0692
     28 H8         -1.3357   -1.6797   -0.2167 H         1 <0>         0.0685
     29 H9         -2.3041    0.8092    1.2579 H         1 <0>         0.0837
     30 H10        -3.2014   -0.7212    1.0810 H         1 <0>         0.0864
     31 H11        -4.2248   -1.3021    3.6391 H         1 <0>         0.0799
     32 H12        -3.8771   -1.7117    1.9389 H         1 <0>         0.0921
     33 H13        -4.9218   -3.5994    3.2904 H         1 <0>         0.0945
     34 H14        -3.3730   -4.0073    2.5186 H         1 <0>         0.0984
     35 H15        -1.6220   -3.5061    5.9988 H         1 <0>         0.1342
     36 H16        -0.3717   -0.5619    5.2823 H         1 <0>         0.0886
     37 H17         0.3101   -2.1916    5.5288 H         1 <0>         0.0850
     38 H18         1.6081   -0.8789    3.8531 H         1 <0>         0.0760
     39 H19         0.8900   -2.3425    3.1536 H         1 <0>         0.0722
     40 H20         1.8867   -2.4185    1.3927 H         1 <0>         0.0693
     41 H21         0.1787   -2.6603    0.9022 H         1 <0>         0.0688
     42 H22         2.5494   -1.8188   -0.7676 H         1 <0>         0.0738
     43 H23         1.0909   -2.7281   -1.2548 H         1 <0>         0.0676
     44 H24         2.3796    0.0532   -2.3181 H         1 <0>         0.3763
@<TRIPOS>BOND
     1    1    2 1
     2    1   24 1
     3    1   25 1
     4    1   26 1
     5    2   17 1
     6    2   21 1
     7    2    3 1
     8    3    4 1
     9    3   27 1
    10    3   28 1
    11    4    5 1
    12    4   29 1
    13    4   30 1
    14    5   15 1
    15    5    6 2
    16    6   12 1
    17    6    7 1
    18    7    8 1
    19    7   31 1
    20    7   32 1
    21    8    9 1
    22    8   33 1
    23    8   34 1
    24    9   10 2
    25    9   11 1
    26   11   12 2
    27   11   35 1
    28   12   13 1
    29   13   14 1
    30   13   36 1
    31   13   37 1
    32   14   15 1
    33   14   38 1
    34   14   39 1
    35   15   16 1
    36   15   17 1
    37   17   18 1
    38   17   19 1
    39   19   20 1
    40   19   40 1
    41   19   41 1
    42   20   21 1
    43   20   42 1
    44   20   43 1
    45   21   22 1
    46   21   23 1
    47   23   44 1
@<TRIPOS>MOLECULE
ZINC05529906
   44    47     0     0     0
SMALL
USER_CHARGES
17-hydroxy-13-methyl-2,6,7,8,11,12,14,15,16,17-decahydro-1H-cyclopenta[a]phenanthren-3-one
@<TRIPOS>ATOM
      1 C1         -1.1080    3.0711    1.0768 C.3       1 <0>        -0.1294
      2 C2         -0.7543    1.5913    1.2383 C.3       1 <0>        -0.0563
      3 C3         -0.0127    1.0858    0.0080 C.3       1 <0>        -0.1066
      4 C4         -0.7831    1.6081   -1.2110 C.3       1 <0>        -0.0854
      5 C5         -2.2700    1.5198   -1.0332 C.2       1 <0>        -0.0424
      6 C6         -3.0632    1.9012   -2.0479 C.2       1 <0>        -0.1511
      7 C7         -2.4624    2.3559   -3.3559 C.3       1 <0>        -0.0762
      8 C8         -3.2668    1.7275   -4.4994 C.3       1 <0>        -0.1557
      9 C9         -4.7356    1.9676   -4.2801 C.2       1 <0>         0.3858
     10 O1         -5.4562    2.1355   -5.2434 O.2       1 <0>        -0.4730
     11 C10        -5.2965    2.0036   -2.9951 C.2       1 <0>        -0.2587
     12 C11        -4.5136    1.9475   -1.8855 C.2       1 <0>         0.0337
     13 C12        -5.1539    1.9590   -0.5221 C.3       1 <0>        -0.0988
     14 C13        -4.0789    2.0431    0.5688 C.3       1 <0>        -0.1127
     15 C14        -2.9657    1.0655    0.2186 C.3       1 <0>        -0.0431
     16 H1         -3.4601    0.1286   -0.0381 H         1 <0>         0.0740
     17 C15        -2.0438    0.7338    1.3383 C.3       1 <0>        -0.0808
     18 H2         -1.7733   -0.3203    1.2776 H         1 <0>         0.0755
     19 C16        -2.5090    1.0497    2.7626 C.3       1 <0>        -0.1129
     20 C17        -1.1894    1.0254    3.5811 C.3       1 <0>        -0.1577
     21 C18        -0.0560    1.3363    2.5733 C.3       1 <0>         0.1104
     22 H3          0.6181    0.4839    2.4893 H         1 <0>         0.0585
     23 O2          0.6653    2.4995    2.9839 O.3       1 <0>        -0.5596
     24 H4         -1.7545    3.1974    0.2084 H         1 <0>         0.0619
     25 H5         -1.6267    3.4202    1.9697 H         1 <0>         0.0550
     26 H6         -0.1949    3.6498    0.9374 H         1 <0>         0.0590
     27 H7          0.0021   -0.0041    0.0020 H         1 <0>         0.0678
     28 H8          1.0061    1.4731    0.0004 H         1 <0>         0.0725
     29 H9         -0.5097    2.6494   -1.3811 H         1 <0>         0.0845
     30 H10        -0.4974    1.0234   -2.0855 H         1 <0>         0.0798
     31 H11        -2.5127    3.4426   -3.4252 H         1 <0>         0.0799
     32 H12        -1.4234    2.0318   -3.4153 H         1 <0>         0.0875
     33 H13        -2.9902    2.1399   -5.3674 H         1 <0>         0.0847
     34 H14        -3.0764    0.6547   -4.5295 H         1 <0>         0.0986
     35 H15        -6.3684    2.0769   -2.8854 H         1 <0>         0.1327
     36 H16        -5.8174    2.8201   -0.4422 H         1 <0>         0.0906
     37 H17        -5.7337    1.0458   -0.3880 H         1 <0>         0.0900
     38 H18        -3.6783    3.0559    0.6126 H         1 <0>         0.0744
     39 H19        -4.5123    1.7774    1.5330 H         1 <0>         0.0817
     40 H20        -2.9784    2.0325    2.8059 H         1 <0>         0.0758
     41 H21        -3.1898    0.2797    3.1255 H         1 <0>         0.0669
     42 H22        -1.0304    0.0460    4.0322 H         1 <0>         0.0691
     43 H23        -1.2224    1.7923    4.3550 H         1 <0>         0.0739
     44 H24         1.1297    2.3974    3.8259 H         1 <0>         0.3761
@<TRIPOS>BOND
     1    1    2 1
     2    1   24 1
     3    1   25 1
     4    1   26 1
     5    2   17 1
     6    2   21 1
     7    2    3 1
     8    3    4 1
     9    3   27 1
    10    3   28 1
    11    4    5 1
    12    4   29 1
    13    4   30 1
    14    5   15 1
    15    5    6 2
    16    6   12 1
    17    6    7 1
    18    7    8 1
    19    7   31 1
    20    7   32 1
    21    8    9 1
    22    8   33 1
    23    8   34 1
    24    9   10 2
    25    9   11 1
    26   11   12 2
    27   11   35 1
    28   12   13 1
    29   13   14 1
    30   13   36 1
    31   13   37 1
    32   14   15 1
    33   14   38 1
    34   14   39 1
    35   15   16 1
    36   15   17 1
    37   17   18 1
    38   17   19 1
    39   19   20 1
    40   19   40 1
    41   19   41 1
    42   20   21 1
    43   20   42 1
    44   20   43 1
    45   21   22 1
    46   21   23 1
    47   23   44 1
@<TRIPOS>MOLECULE
ZINC05529907
   44    47     0     0     0
SMALL
USER_CHARGES
17-hydroxy-13-methyl-2,6,7,8,11,12,14,15,16,17-decahydro-1H-cyclopenta[a]phenanthren-3-one
@<TRIPOS>ATOM
      1 C1         -5.2135    2.7274   -3.0917 C.3       1 <0>        -0.1351
      2 C2         -4.5030    1.7471   -2.1562 C.3       1 <0>        -0.0476
      3 C3         -5.0508    1.9423   -0.7651 C.3       1 <0>        -0.1018
      4 C4         -4.3644    1.0085    0.2321 C.3       1 <0>        -0.1020
      5 C5         -2.8682    1.2454    0.1331 C.2       1 <0>        -0.0555
      6 C6         -2.1954    1.4917    1.2528 C.2       1 <0>        -0.1354
      7 C7         -2.9076    1.6185    2.5787 C.3       1 <0>        -0.0787
      8 C8         -2.2695    2.7648    3.3696 C.3       1 <0>        -0.1571
      9 C9         -0.7747    2.5957    3.4049 C.2       1 <0>         0.3864
     10 O1         -0.1631    2.9125    4.4054 O.2       1 <0>        -0.4702
     11 C10        -0.0723    2.0779    2.3029 C.2       1 <0>        -0.2505
     12 C11        -0.7328    1.5792    1.2376 C.2       1 <0>         0.0268
     13 C12        -0.0127    1.0858    0.0080 C.3       1 <0>        -0.0958
     14 C13        -0.7659    1.5990   -1.2183 C.3       1 <0>        -0.1122
     15 C14        -2.2214    1.1550   -1.2120 C.3       1 <0>        -0.0498
     16 H1         -2.2514    0.1079   -1.5136 H         1 <0>         0.0831
     17 C15        -2.9864    1.9666   -2.2646 C.3       1 <0>        -0.0701
     18 H2         -2.7139    3.0216   -2.2339 H         1 <0>         0.0900
     19 C16        -2.6458    1.3213   -3.6370 C.3       1 <0>        -0.1218
     20 C17        -3.7215    0.2470   -3.8859 C.3       1 <0>        -0.1600
     21 C18        -4.7003    0.3174   -2.6900 C.3       1 <0>         0.1069
     22 H3         -4.4329   -0.4171   -1.9304 H         1 <0>         0.0628
     23 O2         -6.0463    0.1204   -3.1278 O.3       1 <0>        -0.5588
     24 H4         -4.8881    2.5519   -4.1171 H         1 <0>         0.0560
     25 H5         -6.2912    2.5796   -3.0222 H         1 <0>         0.0638
     26 H6         -4.9674    3.7491   -2.8022 H         1 <0>         0.0509
     27 H7         -4.8878    2.9755   -0.4583 H         1 <0>         0.0673
     28 H8         -6.1211    1.7361   -0.7700 H         1 <0>         0.0736
     29 H9         -4.7074    1.2307    1.2426 H         1 <0>         0.0864
     30 H10        -4.5922   -0.0283   -0.0155 H         1 <0>         0.0809
     31 H11        -3.9623    1.8343    2.4082 H         1 <0>         0.0922
     32 H12        -2.8078    0.6882    3.1379 H         1 <0>         0.0802
     33 H13        -2.4908    3.6359    2.9312 H         1 <0>         0.0896
     34 H14        -2.6581    2.7619    4.3880 H         1 <0>         0.0948
     35 H15         1.0076    2.0786    2.3092 H         1 <0>         0.1343
     36 H16         0.0021   -0.0041    0.0020 H         1 <0>         0.0883
     37 H17         1.0080    1.4682    0.0003 H         1 <0>         0.0855
     38 H18        -0.7267    2.6883   -1.2294 H         1 <0>         0.0693
     39 H19        -0.2821    1.2182   -2.1177 H         1 <0>         0.0773
     40 H20        -2.6795    2.0748   -4.4240 H         1 <0>         0.0684
     41 H21        -1.6579    0.8623   -3.6004 H         1 <0>         0.0697
     42 H22        -4.2513    0.4572   -4.8151 H         1 <0>         0.0752
     43 H23        -3.2602   -0.7394   -3.9335 H         1 <0>         0.0652
     44 H24        -6.2044   -0.7409   -3.5379 H         1 <0>         0.3774
@<TRIPOS>BOND
     1    1    2 1
     2    1   24 1
     3    1   25 1
     4    1   26 1
     5    2   17 1
     6    2   21 1
     7    2    3 1
     8    3    4 1
     9    3   27 1
    10    3   28 1
    11    4    5 1
    12    4   29 1
    13    4   30 1
    14    5   15 1
    15    5    6 2
    16    6   12 1
    17    6    7 1
    18    7    8 1
    19    7   31 1
    20    7   32 1
    21    8    9 1
    22    8   33 1
    23    8   34 1
    24    9   10 2
    25    9   11 1
    26   11   12 2
    27   11   35 1
    28   12   13 1
    29   13   14 1
    30   13   36 1
    31   13   37 1
    32   14   15 1
    33   14   38 1
    34   14   39 1
    35   15   16 1
    36   15   17 1
    37   17   18 1
    38   17   19 1
    39   19   20 1
    40   19   40 1
    41   19   41 1
    42   20   21 1
    43   20   42 1
    44   20   43 1
    45   21   22 1
    46   21   23 1
    47   23   44 1
@<TRIPOS>MOLECULE
ZINC04475232
   51    54     0     0     0
SMALL
USER_CHARGES

@<TRIPOS>ATOM
      1 C1          0.1266    1.4493   -0.0038 C.3       1 <0>        -0.1352
      2 C2          0.0875   -0.0572   -0.0003 C.2       1 <0>        -0.0540
      3 C3         -1.0796   -0.6912   -0.0005 C.2       1 <0>        -0.2202
      4 C4         -2.4342   -0.0965   -0.0188 C.2       1 <0>         0.3900
      5 O1         -2.7031    1.0704   -0.2053 O.2       1 <0>        -0.4430
      6 C5         -3.4386   -1.2188    0.2584 C.3       1 <0>        -0.1690
      7 C6         -2.5457   -2.2885    0.9098 C.3       1 <0>        -0.0677
      8 H1         -2.2811   -1.9406    1.9299 H         1 <0>         0.0796
      9 C7         -1.2987   -2.1921    0.0027 C.3       1 <0>        -0.0145
     10 C8         -0.1792   -3.0135    0.5805 C.3       1 <0>        -0.1022
     11 C9         -0.6632   -4.3944    1.0290 C.3       1 <0>        -0.1119
     12 C10        -2.0729   -4.7310    0.5752 C.3       1 <0>        -0.0661
     13 H2         -2.0936   -4.8527   -0.5133 H         1 <0>         0.0832
     14 C11        -3.0947   -3.6799    0.9903 C.3       1 <0>        -0.0679
     15 H3         -3.3359   -3.8761    2.0558 H         1 <0>         0.0675
     16 C12        -4.4026   -3.8468    0.2244 C.3       1 <0>        -0.1101
     17 C13        -4.7228   -5.3326    0.0451 C.3       1 <0>        -0.0967
     18 C14        -4.0187   -6.1197    1.1264 C.2       1 <0>        -0.0155
     19 C15        -4.7138   -6.8171    2.0158 C.2       1 <0>        -0.2401
     20 C16        -4.0460   -7.5731    3.0723 C.2       1 <0>         0.3875
     21 O2         -4.7043   -8.2473    3.8390 O.2       1 <0>        -0.4656
     22 C17        -2.5488   -7.5196    3.2195 C.3       1 <0>        -0.1692
     23 C18        -2.0072   -6.2352    2.5879 C.3       1 <0>        -0.1060
     24 C19        -2.5092   -6.0886    1.1582 C.3       1 <0>        -0.0356
     25 C20        -1.9540   -7.2105    0.2790 C.3       1 <0>        -0.1403
     26 C21        -1.5881   -2.5953   -1.4442 C.3       1 <0>        -0.1461
     27 H4          1.1634    1.7858   -0.0030 H         1 <0>         0.0662
     28 H5         -0.3762    1.8237   -0.8954 H         1 <0>         0.0786
     29 H6         -0.3789    1.8280    0.8845 H         1 <0>         0.0741
     30 H7          1.0085   -0.6213    0.0025 H         1 <0>         0.1257
     31 H8         -4.1981   -0.8774    0.9655 H         1 <0>         0.0924
     32 H9         -3.9008   -1.5678   -0.6566 H         1 <0>         0.1096
     33 H10         0.6151   -3.1335   -0.1709 H         1 <0>         0.0637
     34 H11         0.2606   -2.4884    1.4407 H         1 <0>         0.0646
     35 H12         0.0326   -5.1531    0.6461 H         1 <0>         0.0663
     36 H13        -0.6153   -4.4386    2.1262 H         1 <0>         0.0669
     37 H14        -5.2081   -3.3733    0.7815 H         1 <0>         0.0707
     38 H15        -4.3134   -3.3878   -0.7568 H         1 <0>         0.0723
     39 H16        -5.7987   -5.4809    0.1298 H         1 <0>         0.0776
     40 H17        -4.3798   -5.6622   -0.9330 H         1 <0>         0.0840
     41 H18        -5.7928   -6.8279    1.9574 H         1 <0>         0.1302
     42 H19        -2.2955   -7.5260    4.2855 H         1 <0>         0.0948
     43 H20        -2.0961   -8.3922    2.7522 H         1 <0>         0.1027
     44 H21        -2.3273   -5.3764    3.1818 H         1 <0>         0.0726
     45 H22        -0.9138   -6.2741    2.5900 H         1 <0>         0.0829
     46 H23        -0.8658   -7.1519    0.2593 H         1 <0>         0.0673
     47 H24        -2.2587   -8.1750    0.6852 H         1 <0>         0.0592
     48 H25        -2.3420   -7.1040   -0.7341 H         1 <0>         0.0615
     49 H26        -0.8000   -2.2125   -2.0927 H         1 <0>         0.0582
     50 H27        -1.6236   -3.6822   -1.5183 H         1 <0>         0.0695
     51 H28        -2.5469   -2.1786   -1.7527 H         1 <0>         0.0576
@<TRIPOS>BOND
     1    1    2 1
     2    1   27 1
     3    1   28 1
     4    1   29 1
     5    2    3 2
     6    2   30 1
     7    3    9 1
     8    3    4 1
     9    4    5 2
    10    4    6 1
    11    6    7 1
    12    6   31 1
    13    6   32 1
    14    7    8 1
    15    7   14 1
    16    7    9 1
    17    9   10 1
    18    9   26 1
    19   10   11 1
    20   10   33 1
    21   10   34 1
    22   11   12 1
    23   11   35 1
    24   11   36 1
    25   12   13 1
    26   12   24 1
    27   12   14 1
    28   14   15 1
    29   14   16 1
    30   16   17 1
    31   16   37 1
    32   16   38 1
    33   17   18 1
    34   17   39 1
    35   17   40 1
    36   18   24 1
    37   18   19 2
    38   19   20 1
    39   19   41 1
    40   20   21 2
    41   20   22 1
    42   22   23 1
    43   22   42 1
    44   22   43 1
    45   23   24 1
    46   23   44 1
    47   23   45 1
    48   24   25 1
    49   25   46 1
    50   25   47 1
    51   25   48 1
    52   26   49 1
    53   26   50 1
    54   26   51 1
@<TRIPOS>MOLECULE
ZINC04475234
   51    54     0     0     0
SMALL
USER_CHARGES

@<TRIPOS>ATOM
      1 C1         -0.0184    1.5028    0.0103 C.3       1 <0>        -0.1353
      2 C2          0.0021   -0.0041    0.0020 C.2       1 <0>        -0.0539
      3 C3         -1.1385   -0.6835    0.0093 C.2       1 <0>        -0.2180
      4 C4         -2.5201   -0.1466    0.0096 C.2       1 <0>         0.3902
      5 O1         -2.8416    1.0081   -0.1703 O.2       1 <0>        -0.4423
      6 C5         -3.4731   -1.3136    0.2977 C.3       1 <0>        -0.1677
      7 C6         -2.5201   -2.3335    0.9395 C.3       1 <0>        -0.0708
      8 H1         -2.2472   -1.9480    1.9512 H         1 <0>         0.0789
      9 C7         -1.3045   -2.1857    0.0028 C.3       1 <0>        -0.0196
     10 C8         -0.1586   -3.0188    0.5126 C.3       1 <0>        -0.1038
     11 C9         -0.6143   -4.4932    0.5645 C.3       1 <0>        -0.1091
     12 C10        -1.8242   -4.6466    1.4643 C.3       1 <0>        -0.0637
     13 H2         -1.4904   -4.2669    2.4567 H         1 <0>         0.0651
     14 C11        -2.9975   -3.7534    1.0802 C.3       1 <0>        -0.0563
     15 H3         -3.6813   -3.7654    1.9734 H         1 <0>         0.0643
     16 C12        -3.8431   -4.2273   -0.0784 C.3       1 <0>        -0.1112
     17 C13        -3.5792   -5.6842   -0.4472 C.3       1 <0>        -0.0916
     18 C14        -3.4005   -6.4537    0.8374 C.2       1 <0>        -0.0155
     19 C15        -4.2433   -7.4203    1.1787 C.2       1 <0>        -0.2416
     20 C16        -4.0933   -8.1386    2.4421 C.2       1 <0>         0.3883
     21 O2         -4.7922   -9.1057    2.6718 O.2       1 <0>        -0.4658
     22 C17        -3.0911   -7.6792    3.4685 C.3       1 <0>        -0.1678
     23 C18        -2.6654   -6.2395    3.1862 C.3       1 <0>        -0.1062
     24 C19        -2.2347   -6.0868    1.7223 C.3       1 <0>        -0.0273
     25 C20        -1.0806   -7.0505    1.4396 C.3       1 <0>        -0.1410
     26 C21        -1.6030   -2.5786   -1.4441 C.3       1 <0>        -0.1454
     27 H4          1.0042    1.8801    0.0026 H         1 <0>         0.0663
     28 H5         -0.5455    1.8639   -0.8728 H         1 <0>         0.0785
     29 H6         -0.5286    1.8543    0.9071 H         1 <0>         0.0738
     30 H7          0.9446   -0.5313   -0.0098 H         1 <0>         0.1258
     31 H8         -4.2363   -1.0050    1.0173 H         1 <0>         0.0916
     32 H9         -3.9337   -1.6870   -0.6070 H         1 <0>         0.1084
     33 H10         0.6993   -2.9298   -0.1571 H         1 <0>         0.0678
     34 H11         0.1282   -2.6935    1.5145 H         1 <0>         0.0660
     35 H12        -0.8231   -4.8621   -0.4313 H         1 <0>         0.0703
     36 H13         0.2379   -5.0489    0.9770 H         1 <0>         0.0669
     37 H14        -4.9021   -4.1735    0.2433 H         1 <0>         0.0574
     38 H15        -3.7661   -3.6025   -0.9501 H         1 <0>         0.0786
     39 H16        -4.4283   -6.0801   -0.9998 H         1 <0>         0.0780
     40 H17        -2.6768   -5.7519   -1.0495 H         1 <0>         0.0842
     41 H18        -5.0513   -7.6824    0.5115 H         1 <0>         0.1307
     42 H19        -3.5597   -7.7222    4.4604 H         1 <0>         0.0954
     43 H20        -2.2292   -8.3432    3.4742 H         1 <0>         0.1038
     44 H21        -3.5008   -5.5648    3.3838 H         1 <0>         0.0713
     45 H22        -1.8293   -5.9700    3.8342 H         1 <0>         0.0796
     46 H23        -0.2379   -6.8080    2.0869 H         1 <0>         0.0669
     47 H24        -1.4052   -8.0729    1.6333 H         1 <0>         0.0586
     48 H25        -0.7765   -6.9572    0.3970 H         1 <0>         0.0644
     49 H26        -0.7619   -2.2973   -2.0778 H         1 <0>         0.0586
     50 H27        -1.7583   -3.6558   -1.5034 H         1 <0>         0.0691
     51 H28        -2.5015   -2.0628   -1.7827 H         1 <0>         0.0550
@<TRIPOS>BOND
     1    1    2 1
     2    1   27 1
     3    1   28 1
     4    1   29 1
     5    2    3 2
     6    2   30 1
     7    3    9 1
     8    3    4 1
     9    4    5 2
    10    4    6 1
    11    6    7 1
    12    6   31 1
    13    6   32 1
    14    7    8 1
    15    7   14 1
    16    7    9 1
    17    9   10 1
    18    9   26 1
    19   10   11 1
    20   10   33 1
    21   10   34 1
    22   11   12 1
    23   11   35 1
    24   11   36 1
    25   12   13 1
    26   12   24 1
    27   12   14 1
    28   14   15 1
    29   14   16 1
    30   16   17 1
    31   16   37 1
    32   16   38 1
    33   17   18 1
    34   17   39 1
    35   17   40 1
    36   18   24 1
    37   18   19 2
    38   19   20 1
    39   19   41 1
    40   20   21 2
    41   20   22 1
    42   22   23 1
    43   22   42 1
    44   22   43 1
    45   23   24 1
    46   23   44 1
    47   23   45 1
    48   24   25 1
    49   25   46 1
    50   25   47 1
    51   25   48 1
    52   26   49 1
    53   26   50 1
    54   26   51 1
@<TRIPOS>MOLECULE
ZINC04475235
   51    54     0     0     0
SMALL
USER_CHARGES

@<TRIPOS>ATOM
      1 C1         -0.0184    1.5028    0.0103 C.3       1 <0>        -0.1334
      2 C2          0.0021   -0.0041    0.0020 C.2       1 <0>        -0.0532
      3 C3         -1.1437   -0.6865    0.0093 C.2       1 <0>        -0.2116
      4 C4         -2.4987   -0.1061    0.0105 C.2       1 <0>         0.3897
      5 O1         -2.7671    1.0739   -0.0795 O.2       1 <0>        -0.4460
      6 C5         -3.4986   -1.2425    0.1495 C.3       1 <0>        -0.1810
      7 C6         -2.6567   -2.4154    0.7318 C.3       1 <0>        -0.0649
      8 H1         -3.0910   -3.3884    0.5115 H         1 <0>         0.1016
      9 C7         -1.3161   -2.1830    0.0029 C.3       1 <0>        -0.0123
     10 C8         -0.1729   -2.9564    0.6004 C.3       1 <0>        -0.1049
     11 C9         -0.0654   -2.8530    2.1109 C.3       1 <0>        -0.1071
     12 C10        -1.3920   -3.0179    2.8397 C.3       1 <0>        -0.0593
     13 H2         -1.2181   -2.5767    3.8629 H         1 <0>         0.0612
     14 C11        -2.4721   -2.1558    2.2224 C.3       1 <0>        -0.0708
     15 H3         -2.1458   -1.0993    2.3272 H         1 <0>         0.0681
     16 C12        -3.7937   -2.2800    2.9746 C.3       1 <0>        -0.1151
     17 C13        -4.2542   -3.7382    2.9711 C.3       1 <0>        -0.0976
     18 C14        -3.1691   -4.5773    3.6190 C.2       1 <0>        -0.0138
     19 C15        -3.5177   -5.3654    4.6323 C.2       1 <0>        -0.2438
     20 C16        -2.5366   -6.2231    5.3004 C.2       1 <0>         0.3875
     21 O2         -2.7964   -6.7853    6.3472 O.2       1 <0>        -0.4613
     22 C17        -1.1945   -6.4062    4.6234 C.3       1 <0>        -0.1670
     23 C18        -0.7465   -5.0605    4.0667 C.3       1 <0>        -0.1085
     24 C19        -1.7654   -4.4686    3.0933 C.3       1 <0>        -0.0175
     25 C20        -1.7000   -5.2988    1.8142 C.3       1 <0>        -0.1490
     26 C21        -1.4835   -2.6375   -1.4545 C.3       1 <0>        -0.1460
     27 H4          1.0042    1.8801    0.0026 H         1 <0>         0.0652
     28 H5         -0.5455    1.8639   -0.8728 H         1 <0>         0.0785
     29 H6         -0.5286    1.8543    0.9071 H         1 <0>         0.0756
     30 H7          0.9446   -0.5313   -0.0098 H         1 <0>         0.1248
     31 H8         -4.2969   -0.9592    0.8383 H         1 <0>         0.0964
     32 H9         -3.9247   -1.5058   -0.8177 H         1 <0>         0.1045
     33 H10        -0.2149   -3.9934    0.2761 H         1 <0>         0.0750
     34 H11         0.7647   -2.5568    0.1697 H         1 <0>         0.0567
     35 H12         0.6477   -3.6062    2.4748 H         1 <0>         0.0684
     36 H13         0.3616   -1.8710    2.3711 H         1 <0>         0.0606
     37 H14        -3.6552   -1.9504    4.0084 H         1 <0>         0.0671
     38 H15        -4.5542   -1.6554    2.5073 H         1 <0>         0.0747
     39 H16        -5.1779   -3.8304    3.5442 H         1 <0>         0.0770
     40 H17        -4.4245   -4.0720    1.9501 H         1 <0>         0.0864
     41 H18        -4.5477   -5.3720    4.9695 H         1 <0>         0.1315
     42 H19        -0.4632   -6.7594    5.3582 H         1 <0>         0.0922
     43 H20        -1.2750   -7.1447    3.8265 H         1 <0>         0.1022
     44 H21        -0.6083   -4.3592    4.8891 H         1 <0>         0.0679
     45 H22         0.2000   -5.1861    3.5424 H         1 <0>         0.0819
     46 H23        -0.6867   -5.2699    1.4136 H         1 <0>         0.0704
     47 H24        -1.9736   -6.3303    2.0362 H         1 <0>         0.0571
     48 H25        -2.3930   -4.8892    1.0793 H         1 <0>         0.0649
     49 H26        -0.5873   -2.3820   -2.0199 H         1 <0>         0.0577
     50 H27        -1.6360   -3.7164   -1.4834 H         1 <0>         0.0626
     51 H28        -2.3458   -2.1367   -1.8945 H         1 <0>         0.0567
@<TRIPOS>BOND
     1    1    2 1
     2    1   27 1
     3    1   28 1
     4    1   29 1
     5    2    3 2
     6    2   30 1
     7    3    9 1
     8    3    4 1
     9    4    5 2
    10    4    6 1
    11    6    7 1
    12    6   31 1
    13    6   32 1
    14    7    8 1
    15    7   14 1
    16    7    9 1
    17    9   10 1
    18    9   26 1
    19   10   11 1
    20   10   33 1
    21   10   34 1
    22   11   12 1
    23   11   35 1
    24   11   36 1
    25   12   13 1
    26   12   24 1
    27   12   14 1
    28   14   15 1
    29   14   16 1
    30   16   17 1
    31   16   37 1
    32   16   38 1
    33   17   18 1
    34   17   39 1
    35   17   40 1
    36   18   24 1
    37   18   19 2
    38   19   20 1
    39   19   41 1
    40   20   21 2
    41   20   22 1
    42   22   23 1
    43   22   42 1
    44   22   43 1
    45   23   24 1
    46   23   44 1
    47   23   45 1
    48   24   25 1
    49   25   46 1
    50   25   47 1
    51   25   48 1
    52   26   49 1
    53   26   50 1
    54   26   51 1
@<TRIPOS>MOLECULE
ZINC13783217
   51    54     0     0     0
SMALL
USER_CHARGES

@<TRIPOS>ATOM
      1 C1         -0.0246    1.5012   -0.0652 C.3       1 <0>        -0.1446
      2 C2          0.0021   -0.0041    0.0020 C.2       1 <0>        -0.0544
      3 C3         -1.1391   -0.6875    0.1100 C.2       1 <0>        -0.2100
      4 C4         -1.2761   -2.1485    0.2273 C.2       1 <0>         0.3914
      5 O1         -0.3675   -2.9523    0.2498 O.2       1 <0>        -0.4493
      6 C5         -2.7592   -2.4702    0.3160 C.3       1 <0>        -0.1794
      7 C6         -3.4400   -1.2429   -0.3645 C.3       1 <0>        -0.0670
      8 H1         -4.4754   -1.1126   -0.0498 H         1 <0>         0.0980
      9 C7         -2.5321   -0.1077    0.1414 C.3       1 <0>        -0.0144
     10 C8         -2.6648    1.1552   -0.6785 C.3       1 <0>        -0.1298
     11 C9         -2.4155    0.8605   -2.1550 C.3       1 <0>        -0.1221
     12 C10        -3.4580   -0.1552   -2.6463 C.3       1 <0>        -0.0606
     13 H2         -4.4594    0.2515   -2.5057 H         1 <0>         0.0814
     14 C11        -3.3200   -1.4716   -1.8764 C.3       1 <0>        -0.0731
     15 H3         -2.3360   -1.8923   -2.0835 H         1 <0>         0.0671
     16 C12        -4.3674   -2.5138   -2.2603 C.3       1 <0>        -0.1116
     17 C13        -4.7868   -2.4171   -3.7195 C.3       1 <0>        -0.0935
     18 C14        -3.6671   -1.8028   -4.5220 C.2       1 <0>        -0.0198
     19 C15        -3.1040   -2.4721   -5.5226 C.2       1 <0>        -0.2427
     20 C16        -2.0096   -1.8893   -6.2966 C.2       1 <0>         0.3872
     21 O2         -1.5248   -2.5065   -7.2219 O.2       1 <0>        -0.4644
     22 C17        -1.4837   -0.5201   -5.9450 C.3       1 <0>        -0.1698
     23 C18        -1.7207   -0.2654   -4.4524 C.3       1 <0>        -0.1089
     24 C19        -3.1973   -0.3758   -4.1420 C.3       1 <0>        -0.0304
     25 C20        -3.9843    0.6549   -4.9540 C.3       1 <0>        -0.1414
     26 C21        -2.9009    0.2201    1.5896 C.3       1 <0>        -0.1431
     27 H4         -0.5743    1.8934    0.7904 H         1 <0>         0.0784
     28 H5          0.9959    1.8838   -0.0478 H         1 <0>         0.0662
     29 H6         -0.5146    1.8151   -0.9868 H         1 <0>         0.0910
     30 H7          0.9447   -0.5298   -0.0372 H         1 <0>         0.1230
     31 H8         -2.9864   -3.3862   -0.2293 H         1 <0>         0.0949
     32 H9         -3.0720   -2.5543    1.3567 H         1 <0>         0.1045
     33 H10        -3.6693    1.5603   -0.5564 H         1 <0>         0.0681
     34 H11        -1.9384    1.8893   -0.3299 H         1 <0>         0.0880
     35 H12        -2.5045    1.7818   -2.7308 H         1 <0>         0.0693
     36 H13        -1.4152    0.4460   -2.2803 H         1 <0>         0.0722
     37 H14        -3.9585   -3.5074   -2.0769 H         1 <0>         0.0661
     38 H15        -5.2472   -2.3763   -1.6316 H         1 <0>         0.0714
     39 H16        -5.0038   -3.4144   -4.1023 H         1 <0>         0.0769
     40 H17        -5.6773   -1.7940   -3.8015 H         1 <0>         0.0844
     41 H18        -3.4602   -3.4618   -5.7673 H         1 <0>         0.1302
     42 H19        -0.4157   -0.4735   -6.1582 H         1 <0>         0.0953
     43 H20        -2.0080    0.2341   -6.5318 H         1 <0>         0.1037
     44 H21        -1.1571   -0.9898   -3.8645 H         1 <0>         0.0718
     45 H22        -1.3973    0.7441   -4.1985 H         1 <0>         0.0837
     46 H23        -3.6652    1.6588   -4.6737 H         1 <0>         0.0673
     47 H24        -3.7992    0.4984   -6.0167 H         1 <0>         0.0599
     48 H25        -5.0491    0.5419   -4.7501 H         1 <0>         0.0619
     49 H26        -2.2071    0.9636    1.9819 H         1 <0>         0.0585
     50 H27        -3.9159    0.6158    1.6254 H         1 <0>         0.0628
     51 H28        -2.8425   -0.6855    2.1934 H         1 <0>         0.0559
@<TRIPOS>BOND
     1    1    2 1
     2    1   27 1
     3    1   28 1
     4    1   29 1
     5    2    3 2
     6    2   30 1
     7    3    9 1
     8    3    4 1
     9    4    5 2
    10    4    6 1
    11    6    7 1
    12    6   31 1
    13    6   32 1
    14    7    8 1
    15    7   14 1
    16    7    9 1
    17    9   10 1
    18    9   26 1
    19   10   11 1
    20   10   33 1
    21   10   34 1
    22   11   12 1
    23   11   35 1
    24   11   36 1
    25   12   13 1
    26   12   24 1
    27   12   14 1
    28   14   15 1
    29   14   16 1
    30   16   17 1
    31   16   37 1
    32   16   38 1
    33   17   18 1
    34   17   39 1
    35   17   40 1
    36   18   24 1
    37   18   19 2
    38   19   20 1
    39   19   41 1
    40   20   21 2
    41   20   22 1
    42   22   23 1
    43   22   42 1
    44   22   43 1
    45   23   24 1
    46   23   44 1
    47   23   45 1
    48   24   25 1
    49   25   46 1
    50   25   47 1
    51   25   48 1
    52   26   49 1
    53   26   50 1
    54   26   51 1
@<TRIPOS>MOLECULE
ZINC34802036
   53    55     0     0     0
SMALL
USER_CHARGES

@<TRIPOS>ATOM
      1 C1          0.1982    0.4969   -1.5632 C.3       1 <0>        -0.1374
      2 C2         -0.0998    0.6096   -0.0668 C.3       1 <0>        -0.0109
      3 C3         -0.1595    2.0856    0.3316 C.3       1 <0>        -0.1582
      4 C4         -1.4437   -0.0555    0.2372 C.3       1 <0>        -0.1558
      5 C5         -2.0834    0.6191    1.4523 C.3       1 <0>         0.0784
      6 C6         -3.4729    0.0255    1.6926 C.3       1 <0>         0.0596
      7 N1         -4.0854    0.6715    2.8561 N.pl3     1 <0>        -0.5204
      8 C7         -3.8925    0.1572    4.0832 C.2       1 <0>         0.4349
      9 N2         -4.4023    0.6732    5.1669 N.2       1 <0>        -0.5918
     10 C8         -5.1719    1.7778    5.1317 C.2       1 <0>         0.5324
     11 O1         -5.6409    2.2483    6.1537 O.2       1 <0>        -0.4789
     12 C9         -5.4302    2.4014    3.8216 C.ar      1 <0>        -0.2085
     13 C10        -4.8518    1.8072    2.6848 C.ar      1 <0>         0.1914
     14 C11        -5.0676    2.3666    1.4331 C.ar      1 <0>        -0.1660
     15 C12        -5.8425    3.5018    1.3168 C.ar      1 <0>        -0.0528
     16 C13        -6.4085    4.0912    2.4381 C.ar      1 <0>        -0.1502
     17 C14        -6.2141    3.5447    3.6885 C.ar      1 <0>        -0.0227
     18 C15        -1.2084    0.3846    2.6853 C.3       1 <0>         0.4591
     19 F1          0.0793    0.8750    2.4434 F         1 <0>        -0.1408
     20 F2         -1.7623    1.0508    3.7838 F         1 <0>        -0.1673
     21 F3         -1.1421   -0.9863    2.9562 F         1 <0>        -0.1689
     22 O2         -2.2003    2.0228    1.2112 O.3       1 <0>        -0.5134
     23 C16         0.9894   -0.0781    0.7154 C.ar      1 <0>        -0.0518
     24 C17         0.7094   -1.2316    1.4228 C.ar      1 <0>        -0.1611
     25 C18         1.7097   -1.8638    2.1411 C.ar      1 <0>         0.0760
     26 C19         2.9920   -1.3412    2.1521 C.ar      1 <0>        -0.1253
     27 C20         3.2747   -0.1883    1.4458 C.ar      1 <0>        -0.1698
     28 C21         2.2745    0.4432    0.7210 C.ar      1 <0>         0.1180
     29 O3          2.5526    1.5749    0.0209 O.3       1 <0>        -0.3023
     30 C22         3.8976    2.0551    0.0717 C.3       1 <0>         0.0208
     31 F4          1.4346   -2.9915    2.8323 F         1 <0>        -0.1384
     32 H1          1.1100    1.0475   -1.7947 H         1 <0>         0.0713
     33 H2          0.3296   -0.5519   -1.8296 H         1 <0>         0.0549
     34 H3         -0.6328    0.9148   -2.1316 H         1 <0>         0.0602
     35 H4         -0.9790    2.5719   -0.1977 H         1 <0>         0.0585
     36 H5         -0.3230    2.1655    1.4063 H         1 <0>         0.0929
     37 H6          0.7808    2.5709    0.0700 H         1 <0>         0.0636
     38 H7         -2.1032    0.0474   -0.6246 H         1 <0>         0.1037
     39 H8         -1.2860   -1.1129    0.4498 H         1 <0>         0.1006
     40 H9         -4.0963    0.1925    0.8142 H         1 <0>         0.1265
     41 H10        -3.3837   -1.0452    1.8765 H         1 <0>         0.1234
     42 H11        -3.2837   -0.7300    4.1763 H         1 <0>         0.1936
     43 H12        -4.6307    1.9155    0.5545 H         1 <0>         0.1298
     44 H13        -6.0101    3.9367    0.3425 H         1 <0>         0.1360
     45 H14        -7.0123    4.9800    2.3295 H         1 <0>         0.1346
     46 H15        -6.6567    4.0058    4.5591 H         1 <0>         0.1423
     47 H16        -2.7428    2.2460    0.4424 H         1 <0>         0.3885
     48 H17        -0.2904   -1.6398    1.4156 H         1 <0>         0.1542
     49 H18         3.7714   -1.8351    2.7134 H         1 <0>         0.1369
     50 H19         4.2748    0.2193    1.4549 H         1 <0>         0.1376
     51 H20         4.1655    2.2765    1.1048 H         1 <0>         0.0560
     52 H21         4.5704    1.2937   -0.3230 H         1 <0>         0.0557
     53 H22         3.9827    2.9613   -0.5280 H         1 <0>         0.1016
@<TRIPOS>BOND
     1    1    2 1
     2    1   32 1
     3    1   33 1
     4    1   34 1
     5    2    3 1
     6    2    4 1
     7    2   23 1
     8    3   35 1
     9    3   36 1
    10    3   37 1
    11    4    5 1
    12    4   38 1
    13    4   39 1
    14    5    6 1
    15    5   18 1
    16    5   22 1
    17    6    7 1
    18    6   40 1
    19    6   41 1
    20    7   13 1
    21    7    8 1
    22    8    9 2
    23    8   42 1
    24    9   10 1
    25   10   11 2
    26   10   12 1
    27   12   17 ar
    28   12   13 ar
    29   13   14 ar
    30   14   15 ar
    31   14   43 1
    32   15   16 ar
    33   15   44 1
    34   16   17 ar
    35   16   45 1
    36   17   46 1
    37   18   19 1
    38   18   20 1
    39   18   21 1
    40   22   47 1
    41   23   28 ar
    42   23   24 ar
    43   24   25 ar
    44   24   48 1
    45   25   26 ar
    46   25   31 1
    47   26   27 ar
    48   26   49 1
    49   27   28 ar
    50   27   50 1
    51   28   29 1
    52   29   30 1
    53   30   51 1
    54   30   52 1
    55   30   53 1
@<TRIPOS>MOLECULE
ZINC34802037
   53    55     0     0     0
SMALL
USER_CHARGES

@<TRIPOS>ATOM
      1 C1          0.9141   -0.2785    0.9036 C.3       1 <0>        -0.1554
      2 C2         -0.0669   -0.5958   -0.2268 C.3       1 <0>        -0.0126
      3 C3          0.3005   -1.9400   -0.8585 C.3       1 <0>        -0.1358
      4 C4         -1.4877   -0.6682    0.3361 C.3       1 <0>        -0.1525
      5 C5         -1.6409    0.3514    1.4666 C.3       1 <0>         0.0786
      6 C6         -3.0196    0.1948    2.1112 C.3       1 <0>         0.0600
      7 N1         -3.2023    1.2305    3.1311 N.pl3     1 <0>        -0.5195
      8 C7         -2.6837    1.0563    4.3592 C.2       1 <0>         0.4394
      9 N2         -2.8024    1.9301    5.3199 N.2       1 <0>        -0.5948
     10 C8         -3.4650    3.0894    5.1456 C.2       1 <0>         0.5329
     11 O1         -3.5668    3.8963    6.0535 O.2       1 <0>        -0.4804
     12 C9         -4.0631    3.3544    3.8249 C.ar      1 <0>        -0.2087
     13 C10        -3.9010    2.3807    2.8222 C.ar      1 <0>         0.1901
     14 C11        -4.4456    2.5944    1.5636 C.ar      1 <0>        -0.1779
     15 C12        -5.1356    3.7609    1.3071 C.ar      1 <0>        -0.0498
     16 C13        -5.2910    4.7237    2.2940 C.ar      1 <0>        -0.1509
     17 C14        -4.7662    4.5253    3.5531 C.ar      1 <0>        -0.0245
     18 C15        -1.5004    1.7657    0.9002 C.3       1 <0>         0.4634
     19 F1         -2.4253    1.9482   -0.1334 F         1 <0>        -0.1682
     20 F2         -1.7426    2.6999    1.9131 F         1 <0>        -0.1691
     21 F3         -0.2047    1.9424    0.4031 F         1 <0>        -0.1476
     22 O2         -0.6276    0.1289    2.4493 O.3       1 <0>        -0.5197
     23 C16         0.0045    0.4869   -1.2726 C.ar      1 <0>        -0.0653
     24 C17        -1.1388    0.8759   -1.9439 C.ar      1 <0>        -0.1383
     25 C18        -1.0736    1.8708   -2.9043 C.ar      1 <0>         0.0710
     26 C19         0.1372    2.4772   -3.1938 C.ar      1 <0>        -0.1218
     27 C20         1.2817    2.0903   -2.5242 C.ar      1 <0>        -0.1753
     28 C21         1.2168    1.0973   -1.5575 C.ar      1 <0>         0.1279
     29 O3          2.3414    0.7195   -0.8938 O.3       1 <0>        -0.2947
     30 C22         3.5547    1.3910   -1.2386 C.3       1 <0>         0.0152
     31 F4         -2.1923    2.2502   -3.5599 F         1 <0>        -0.1397
     32 H1          1.9356   -0.3915    0.5406 H         1 <0>         0.0702
     33 H2          0.7598    0.7462    1.2416 H         1 <0>         0.0919
     34 H3          0.7456   -0.9642    1.7340 H         1 <0>         0.0589
     35 H4          0.1643   -2.7352   -0.1256 H         1 <0>         0.0622
     36 H5         -0.3426   -2.1250   -1.7190 H         1 <0>         0.0557
     37 H6          1.3414   -1.9175   -1.1811 H         1 <0>         0.0650
     38 H7         -2.2037   -0.4443   -0.4546 H         1 <0>         0.0975
     39 H8         -1.6748   -1.6701    0.7226 H         1 <0>         0.1035
     40 H9         -3.7912    0.2963    1.3480 H         1 <0>         0.1209
     41 H10        -3.0944   -0.7889    2.5748 H         1 <0>         0.1272
     42 H11        -2.1407    0.1447    4.5608 H         1 <0>         0.1991
     43 H12        -4.3293    1.8512    0.7887 H         1 <0>         0.1369
     44 H13        -5.5592    3.9267    0.3276 H         1 <0>         0.1356
     45 H14        -5.8339    5.6316    2.0765 H         1 <0>         0.1348
     46 H15        -4.8896    5.2766    4.3190 H         1 <0>         0.1423
     47 H16        -0.6562   -0.7499    2.8518 H         1 <0>         0.3931
     48 H17        -2.0836    0.4033   -1.7195 H         1 <0>         0.1435
     49 H18         0.1867    3.2528   -3.9438 H         1 <0>         0.1364
     50 H19         2.2259    2.5631   -2.7505 H         1 <0>         0.1373
     51 H20         3.7707    1.2317   -2.2950 H         1 <0>         0.0550
     52 H21         3.4463    2.4585   -1.0469 H         1 <0>         0.0555
     53 H22         4.3728    0.9951   -0.6368 H         1 <0>         0.1015
@<TRIPOS>BOND
     1    1    2 1
     2    1   32 1
     3    1   33 1
     4    1   34 1
     5    2    3 1
     6    2    4 1
     7    2   23 1
     8    3   35 1
     9    3   36 1
    10    3   37 1
    11    4    5 1
    12    4   38 1
    13    4   39 1
    14    5    6 1
    15    5   18 1
    16    5   22 1
    17    6    7 1
    18    6   40 1
    19    6   41 1
    20    7   13 1
    21    7    8 1
    22    8    9 2
    23    8   42 1
    24    9   10 1
    25   10   11 2
    26   10   12 1
    27   12   17 ar
    28   12   13 ar
    29   13   14 ar
    30   14   15 ar
    31   14   43 1
    32   15   16 ar
    33   15   44 1
    34   16   17 ar
    35   16   45 1
    36   17   46 1
    37   18   19 1
    38   18   20 1
    39   18   21 1
    40   22   47 1
    41   23   28 ar
    42   23   24 ar
    43   24   25 ar
    44   24   48 1
    45   25   26 ar
    46   25   31 1
    47   26   27 ar
    48   26   49 1
    49   27   28 ar
    50   27   50 1
    51   28   29 1
    52   29   30 1
    53   30   51 1
    54   30   52 1
    55   30   53 1
@<TRIPOS>MOLECULE
ZINC06188047
   47    49     0     0     0
SMALL
USER_CHARGES
6-(4-hydroxy-1-piperidyl)-3-methyl-5-[[3-(trifluoromethyl)phenyl]methyl]-1H-pyrimidine-2,4-dione
@<TRIPOS>ATOM
      1 C1         -2.6455    6.7272   -4.0041 C.3       1 <0>         0.0783
      2 N1         -3.0394    5.5025   -3.3033 N.am      1 <0>        -0.5547
      3 C2         -2.6998    5.3343   -2.0101 C.2       1 <0>         0.5551
      4 O1         -2.0674    6.1969   -1.4248 O.2       1 <0>        -0.5020
      5 C3         -3.0789    4.1601   -1.3408 C.2       1 <0>        -0.2378
      6 C4         -3.7835    3.2061   -2.0210 C.2       1 <0>         0.3694
      7 N2         -4.1129    3.4212   -3.3372 N.am      1 <0>        -0.6602
      8 H1         -4.6159    2.7498   -3.8243 H         1 <0>         0.4295
      9 C5         -3.7375    4.5556   -3.9561 C.2       1 <0>         0.7016
     10 O2         -4.0340    4.7276   -5.1226 O.2       1 <0>        -0.5358
     11 N3         -4.1623    2.0470   -1.3934 N.pl3     1 <0>        -0.4828
     12 C6         -5.4977    2.1834   -0.7978 C.3       1 <0>         0.0550
     13 C7         -5.8259    0.9285    0.0144 C.3       1 <0>        -0.1509
     14 C8         -5.7791   -0.2952   -0.9048 C.3       1 <0>         0.1013
     15 C9         -4.3933   -0.3866   -1.5497 C.3       1 <0>        -0.1087
     16 C10        -4.1066    0.9064   -2.3165 C.3       1 <0>         0.0442
     17 O3         -6.0290   -1.4764   -0.1405 O.3       1 <0>        -0.5624
     18 C11        -2.7091    3.9513    0.1051 C.3       1 <0>         0.0036
     19 C12        -1.3161    3.3826    0.1903 C.ar      1 <0>        -0.0779
     20 C13        -1.1265    2.0132    0.1785 C.ar      1 <0>        -0.0742
     21 C14         0.1507    1.4916    0.2623 C.ar      1 <0>        -0.1247
     22 C15         1.2395    2.3394    0.3470 C.ar      1 <0>        -0.0759
     23 C16         1.0503    3.7086    0.3530 C.ar      1 <0>        -0.1849
     24 C17        -0.2276    4.2302    0.2744 C.ar      1 <0>        -0.0562
     25 C18         2.2371    4.6327    0.4447 C.3       1 <0>         0.5073
     26 F1          3.4125    3.8770    0.5128 F         1 <0>        -0.1787
     27 F2          2.2763    5.4551   -0.6864 F         1 <0>        -0.1759
     28 F3          2.1243    5.4241    1.5929 F         1 <0>        -0.1762
     29 H2         -1.6693    6.5829   -4.4670 H         1 <0>         0.0757
     30 H3         -3.3820    6.9582   -4.7738 H         1 <0>         0.0922
     31 H4         -2.5923    7.5516   -3.2931 H         1 <0>         0.0964
     32 H5         -5.5161    3.0548   -0.1433 H         1 <0>         0.0975
     33 H6         -6.2372    2.3078   -1.5888 H         1 <0>         0.0526
     34 H7         -6.8234    1.0234    0.4435 H         1 <0>         0.0815
     35 H8         -5.0952    0.8108    0.8146 H         1 <0>         0.0895
     36 H9         -6.5369   -0.1972   -1.6822 H         1 <0>         0.0550
     37 H10        -4.3673   -1.2314   -2.2381 H         1 <0>         0.0857
     38 H11        -3.6396   -0.5247   -0.7745 H         1 <0>         0.0880
     39 H12        -4.8527    1.0367   -3.1005 H         1 <0>         0.0495
     40 H13        -3.1147    0.8501   -2.7649 H         1 <0>         0.0976
     41 H14        -6.8913   -1.4867    0.2971 H         1 <0>         0.3822
     42 H15        -3.4135    3.2573    0.5637 H         1 <0>         0.0958
     43 H16        -2.7448    4.9055    0.6307 H         1 <0>         0.0908
     44 H17        -1.9767    1.3509    0.1079 H         1 <0>         0.1370
     45 H18         0.2985    0.4218    0.2573 H         1 <0>         0.1331
     46 H19         2.2378    1.9319    0.4080 H         1 <0>         0.1357
     47 H20        -0.3754    5.3001    0.2791 H         1 <0>         0.1388
@<TRIPOS>BOND
     1    1    2 1
     2    1   29 1
     3    1   30 1
     4    1   31 1
     5    2    9 am
     6    2    3 am
     7    3    4 2
     8    3    5 1
     9    5    6 2
    10    5   18 1
    11    6    7 1
    12    6   11 1
    13    7    8 1
    14    7    9 am
    15    9   10 2
    16   11   16 1
    17   11   12 1
    18   12   13 1
    19   12   32 1
    20   12   33 1
    21   13   14 1
    22   13   34 1
    23   13   35 1
    24   14   15 1
    25   14   17 1
    26   14   36 1
    27   15   16 1
    28   15   37 1
    29   15   38 1
    30   16   39 1
    31   16   40 1
    32   17   41 1
    33   18   19 1
    34   18   42 1
    35   18   43 1
    36   19   24 ar
    37   19   20 ar
    38   20   21 ar
    39   20   44 1
    40   21   22 ar
    41   21   45 1
    42   22   23 ar
    43   22   46 1
    44   23   24 ar
    45   23   25 1
    46   24   47 1
    47   25   26 1
    48   25   27 1
    49   25   28 1
@<TRIPOS>MOLECULE
ZINC16079265
   56    59     0     0     0
SMALL
USER_CHARGES
6-(4-benzyl-1-piperidyl)-5-[(2-bromophenyl)methyl]-3-methyl-1H-pyrimidine-2,4-dione
@<TRIPOS>ATOM
      1 C1          4.1798   -1.9549   -5.3711 C.3       1 <0>         0.0768
      2 N1          3.6532   -1.4109   -4.1169 N.am      1 <0>        -0.5562
      3 C2          4.4977   -1.1223   -3.1073 C.2       1 <0>         0.5451
      4 O1          5.6950   -1.3131   -3.2356 O.2       1 <0>        -0.4850
      5 C3          3.9905   -0.6012   -1.9066 C.2       1 <0>        -0.2386
      6 C4          2.6439   -0.3970   -1.7879 C.2       1 <0>         0.3715
      7 N2          1.8187   -0.7100   -2.8407 N.am      1 <0>        -0.6751
      8 H1          0.7329   -0.5578   -2.7526 H         1 <0>         0.4551
      9 C5          2.3306   -1.2033   -3.9833 C.2       1 <0>         0.7016
     10 O2          1.5863   -1.4697   -4.9070 O.2       1 <0>        -0.5433
     11 N3          2.1209    0.1106   -0.6261 N.pl3     1 <0>        -0.4808
     12 C6          0.8106   -0.4849   -0.3346 C.3       1 <0>         0.0416
     13 C7          0.3252   -0.0071    1.0358 C.3       1 <0>        -0.1109
     14 C8          0.2227    1.5207    1.0314 C.3       1 <0>        -0.0843
     15 C9          1.5888    2.1150    0.6776 C.3       1 <0>        -0.1150
     16 C10         2.0376    1.5756   -0.6824 C.3       1 <0>         0.0531
     17 C11        -0.2037    2.0086    2.4173 C.3       1 <0>        -0.0770
     18 C12        -0.4232    3.4991    2.3796 C.ar      1 <0>        -0.0809
     19 C13         0.6225    4.3590    2.6589 C.ar      1 <0>        -0.1168
     20 C14         0.4222    5.7262    2.6201 C.ar      1 <0>        -0.1181
     21 C15        -0.8261    6.2334    2.3113 C.ar      1 <0>        -0.1244
     22 C16        -1.8730    5.3734    2.0367 C.ar      1 <0>        -0.1179
     23 C17        -1.6717    4.0062    2.0713 C.ar      1 <0>        -0.1189
     24 C18         4.9171   -0.2710   -0.7650 C.3       1 <0>        -0.0103
     25 C19         5.1405   -1.5034    0.0731 C.ar      1 <0>        -0.0468
     26 C20         4.1750   -1.9107    0.9747 C.ar      1 <0>        -0.1042
     27 C21         4.3773   -3.0442    1.7393 C.ar      1 <0>        -0.1120
     28 C22         5.5503   -3.7648    1.6111 C.ar      1 <0>        -0.1188
     29 C23         6.5186   -3.3552    0.7141 C.ar      1 <0>        -0.0967
     30 C24         6.3141   -2.2239   -0.0555 C.ar      1 <0>        -0.0838
     31 Br1         7.6384   -1.6632   -1.2834 Br        1 <0>        -0.0271
     32 H2          5.2727   -2.0555   -5.2969 H         1 <0>         0.1055
     33 H3          3.9295   -1.2754   -6.1992 H         1 <0>         0.0773
     34 H4          3.7326   -2.9422   -5.5589 H         1 <0>         0.0769
     35 H5          0.0888   -0.1785   -1.1060 H         1 <0>         0.0458
     36 H6          0.8990   -1.5813   -0.3300 H         1 <0>         0.0909
     37 H7         -0.6629   -0.4420    1.2469 H         1 <0>         0.0788
     38 H8          1.0391   -0.3262    1.8094 H         1 <0>         0.0811
     39 H9         -0.5237    1.8398    0.2891 H         1 <0>         0.0725
     40 H10         1.5109    3.2113    0.6317 H         1 <0>         0.0818
     41 H11         2.3223    1.8314    1.4467 H         1 <0>         0.0800
     42 H12         3.0255    1.9897   -0.9327 H         1 <0>         0.0923
     43 H13         1.3100    1.8722   -1.4522 H         1 <0>         0.0494
     44 H14        -1.1380    1.5077    2.7109 H         1 <0>         0.0748
     45 H15         0.5842    1.7724    3.1477 H         1 <0>         0.0764
     46 H16         1.5967    3.9627    2.9042 H         1 <0>         0.1217
     47 H17         1.2402    6.3981    2.8343 H         1 <0>         0.1214
     48 H18        -0.9834    7.3015    2.2842 H         1 <0>         0.1204
     49 H19        -2.8483    5.7697    1.7954 H         1 <0>         0.1206
     50 H20        -2.4896    3.3344    1.8571 H         1 <0>         0.1194
     51 H21         5.8800    0.0805   -1.1642 H         1 <0>         0.0978
     52 H22         4.4675    0.5181   -0.1443 H         1 <0>         0.0947
     53 H23         3.2606   -1.3454    1.0786 H         1 <0>         0.1380
     54 H24         3.6210   -3.3645    2.4406 H         1 <0>         0.1246
     55 H25         5.7101   -4.6477    2.2122 H         1 <0>         0.1272
     56 H26         7.4350   -3.9179    0.6143 H         1 <0>         0.1291
@<TRIPOS>BOND
     1    1    2 1
     2    1   32 1
     3    1   33 1
     4    1   34 1
     5    2    9 am
     6    2    3 am
     7    3    4 2
     8    3    5 1
     9    5    6 2
    10    5   24 1
    11    6    7 1
    12    6   11 1
    13    7    8 1
    14    7    9 am
    15    9   10 2
    16   11   16 1
    17   11   12 1
    18   12   13 1
    19   12   35 1
    20   12   36 1
    21   13   14 1
    22   13   37 1
    23   13   38 1
    24   14   15 1
    25   14   17 1
    26   14   39 1
    27   15   16 1
    28   15   40 1
    29   15   41 1
    30   16   42 1
    31   16   43 1
    32   17   18 1
    33   17   44 1
    34   17   45 1
    35   18   23 ar
    36   18   19 ar
    37   19   20 ar
    38   19   46 1
    39   20   21 ar
    40   20   47 1
    41   21   22 ar
    42   21   48 1
    43   22   23 ar
    44   22   49 1
    45   23   50 1
    46   24   25 1
    47   24   51 1
    48   24   52 1
    49   25   30 ar
    50   25   26 ar
    51   26   27 ar
    52   26   53 1
    53   27   28 ar
    54   27   54 1
    55   28   29 ar
    56   28   55 1
    57   29   30 ar
    58   29   56 1
    59   30   31 1
@<TRIPOS>MOLECULE
ZINC06382755
   56    59     0     0     0
SMALL
USER_CHARGES
6-(4-benzyl-1-piperidyl)-5-[(3-chlorophenyl)methyl]-3-methyl-1H-pyrimidine-2,4-dione
@<TRIPOS>ATOM
      1 C1          5.1719   -1.8678   -5.4533 C.3       1 <0>         0.0777
      2 N1          4.3812   -1.4231   -4.3030 N.am      1 <0>        -0.5553
      3 C2          5.0021   -1.0891   -3.1546 C.2       1 <0>         0.5551
      4 O1          6.2167   -1.1563   -3.0720 O.2       1 <0>        -0.5021
      5 C3          4.2425   -0.6571   -2.0561 C.2       1 <0>        -0.2391
      6 C4          2.8817   -0.5967   -2.1724 C.2       1 <0>         0.3705
      7 N2          2.2900   -0.9474   -3.3616 N.am      1 <0>        -0.6601
      8 H1          1.3253   -0.9029   -3.4518 H         1 <0>         0.4292
      9 C5          3.0413   -1.3521   -4.4022 C.2       1 <0>         0.7017
     10 O2          2.5012   -1.6584   -5.4474 O.2       1 <0>        -0.5389
     11 N3          2.1144   -0.1842   -1.1132 N.pl3     1 <0>        -0.4799
     12 C6          0.8448   -0.9205   -1.0647 C.3       1 <0>         0.0421
     13 C7          0.0814   -0.5405    0.2060 C.3       1 <0>        -0.1094
     14 C8         -0.1816    0.9679    0.2059 C.3       1 <0>        -0.0852
     15 C9          1.1536    1.7108    0.1060 C.3       1 <0>        -0.1137
     16 C10         1.8860    1.2656   -1.1619 C.3       1 <0>         0.0532
     17 C11        -0.8910    1.3634    1.5025 C.3       1 <0>        -0.0752
     18 C12        -1.2588    2.8239    1.4485 C.ar      1 <0>        -0.0817
     19 C13        -0.3752    3.7770    1.9194 C.ar      1 <0>        -0.1169
     20 C14        -0.7108    5.1169    1.8659 C.ar      1 <0>        -0.1181
     21 C15        -1.9339    5.5031    1.3503 C.ar      1 <0>        -0.1242
     22 C16        -2.8194    4.5496    0.8838 C.ar      1 <0>        -0.1179
     23 C17        -2.4820    3.2100    0.9333 C.ar      1 <0>        -0.1187
     24 C18         4.9170   -0.2715   -0.7648 C.3       1 <0>         0.0046
     25 C19         5.1405   -1.5042    0.0728 C.ar      1 <0>        -0.0636
     26 C20         4.1746   -1.9117    0.9743 C.ar      1 <0>        -0.1018
     27 C21         4.3767   -3.0450    1.7394 C.ar      1 <0>        -0.1128
     28 C22         5.5494   -3.7656    1.6114 C.ar      1 <0>        -0.1149
     29 C23         6.5184   -3.3554    0.7134 C.ar      1 <0>        -0.0366
     30 C24         6.3132   -2.2238   -0.0561 C.ar      1 <0>        -0.0981
     31 Cl1         7.9916   -4.2596    0.5524 Cl        1 <0>        -0.0730
     32 H2          4.5062   -2.0937   -6.2864 H         1 <0>         0.1002
     33 H3          5.8644   -1.0783   -5.7453 H         1 <0>         0.0816
     34 H4          5.7336   -2.7624   -5.1842 H         1 <0>         0.0814
     35 H5          1.0461   -1.9917   -1.0609 H         1 <0>         0.0902
     36 H6          0.2445   -0.6669   -1.9385 H         1 <0>         0.0459
     37 H7          0.6753   -0.8063    1.0805 H         1 <0>         0.0811
     38 H8         -0.8680   -1.0754    0.2339 H         1 <0>         0.0785
     39 H9         -0.8080    1.2284   -0.6473 H         1 <0>         0.0723
     40 H10         0.9704    2.7844    0.0624 H         1 <0>         0.0818
     41 H11         1.7644    1.4805    0.9789 H         1 <0>         0.0800
     42 H12         2.8435    1.7821   -1.2286 H         1 <0>         0.0925
     43 H13         1.2807    1.5087   -2.0352 H         1 <0>         0.0493
     44 H14        -1.7947    0.7653    1.6192 H         1 <0>         0.0744
     45 H15        -0.2267    1.1871    2.3485 H         1 <0>         0.0763
     46 H16         0.5787    3.4750    2.3260 H         1 <0>         0.1218
     47 H17        -0.0188    5.8619    2.2301 H         1 <0>         0.1215
     48 H18        -2.1974    6.5497    1.3116 H         1 <0>         0.1205
     49 H19        -3.7749    4.8513    0.4809 H         1 <0>         0.1207
     50 H20        -3.1740    2.4651    0.5692 H         1 <0>         0.1195
     51 H21         5.8760    0.1988   -0.9821 H         1 <0>         0.0886
     52 H22         4.2843    0.4286   -0.2193 H         1 <0>         0.0946
     53 H23         3.2601   -1.3465    1.0779 H         1 <0>         0.1340
     54 H24         3.6203   -3.3649    2.4407 H         1 <0>         0.1289
     55 H25         5.7092   -4.6485    2.2125 H         1 <0>         0.1295
     56 H26         7.0695   -1.9029   -0.7571 H         1 <0>         0.1381
@<TRIPOS>BOND
     1    1    2 1
     2    1   32 1
     3    1   33 1
     4    1   34 1
     5    2    9 am
     6    2    3 am
     7    3    4 2
     8    3    5 1
     9    5    6 2
    10    5   24 1
    11    6    7 1
    12    6   11 1
    13    7    8 1
    14    7    9 am
    15    9   10 2
    16   11   16 1
    17   11   12 1
    18   12   13 1
    19   12   35 1
    20   12   36 1
    21   13   14 1
    22   13   37 1
    23   13   38 1
    24   14   15 1
    25   14   17 1
    26   14   39 1
    27   15   16 1
    28   15   40 1
    29   15   41 1
    30   16   42 1
    31   16   43 1
    32   17   18 1
    33   17   44 1
    34   17   45 1
    35   18   23 ar
    36   18   19 ar
    37   19   20 ar
    38   19   46 1
    39   20   21 ar
    40   20   47 1
    41   21   22 ar
    42   21   48 1
    43   22   23 ar
    44   22   49 1
    45   23   50 1
    46   24   25 1
    47   24   51 1
    48   24   52 1
    49   25   30 ar
    50   25   26 ar
    51   26   27 ar
    52   26   53 1
    53   27   28 ar
    54   27   54 1
    55   28   29 ar
    56   28   55 1
    57   29   30 ar
    58   29   31 1
    59   30   56 1
@<TRIPOS>MOLECULE
ZINC05276265
   62    65     0     0     0
SMALL
USER_CHARGES
(17-acetyl-6,10,13-trimethyl-3-oxo-2,6,7,8,9,11,12,14,15,16-decahydro-1H-cyclopenta[a]phenanthren-17-yl) acetate
@<TRIPOS>ATOM
      1 C1         -2.4708    5.4937    3.8655 C.3       1 <0>        -0.1518
      2 C2         -3.0808    4.5941    2.7988 C.3       1 <0>        -0.0623
      3 H1         -3.1106    5.1245    1.8466 H         1 <0>         0.0903
      4 C3         -2.2270    3.3350    2.6431 C.3       1 <0>        -0.1075
      5 C4         -2.9204    2.2822    1.8063 C.3       1 <0>        -0.0585
      6 H2         -3.2140    1.4730    2.5296 H         1 <0>         0.0647
      7 C5         -4.2188    2.7160    1.1394 C.3       1 <0>        -0.0637
      8 H3         -4.7048    1.7645    0.8208 H         1 <0>         0.0658
      9 C6         -4.0309    3.4995   -0.1435 C.3       1 <0>        -0.1103
     10 C7         -3.1285    2.7353   -1.1348 C.3       1 <0>        -0.1045
     11 C8         -1.7969    2.4901   -0.4662 C.3       1 <0>        -0.0313
     12 C9         -2.0166    1.6313    0.7946 C.3       1 <0>        -0.0741
     13 H4         -2.4795    0.6633    0.4859 H         1 <0>         0.0795
     14 C10        -0.5721    1.3273    1.2143 C.3       1 <0>        -0.1177
     15 C11         0.1025    0.9960   -0.1483 C.3       1 <0>        -0.1320
     16 C12        -0.7991    1.6176   -1.2459 C.3       1 <0>         0.0790
     17 C13         0.0161    2.4741   -2.1759 C.2       1 <0>         0.3605
     18 O1          1.0613    2.9478   -1.8000 O.2       1 <0>        -0.4355
     19 C14        -0.4717    2.7409   -3.5766 C.3       1 <0>        -0.1993
     20 O2         -1.5019    0.5842   -1.9772 O.3       1 <0>        -0.3314
     21 C15        -0.7524   -0.3090   -2.6421 C.2       1 <0>         0.4526
     22 O3          0.4481   -0.1786   -2.6836 O.2       1 <0>        -0.5026
     23 C16        -1.4081   -1.4744   -3.3370 C.3       1 <0>        -0.1486
     24 C17        -1.1069    3.8229   -0.1858 C.3       1 <0>        -0.1568
     25 C18        -5.2092    3.3415    2.1089 C.3       1 <0>        -0.0297
     26 C19        -4.4702    4.1381    3.1649 C.2       1 <0>        -0.0089
     27 C20        -5.0328    4.3721    4.3394 C.2       1 <0>        -0.2402
     28 C21        -6.3597    3.8418    4.6634 C.2       1 <0>         0.3848
     29 O4         -6.9177    4.2140    5.6773 O.2       1 <0>        -0.4657
     30 C22        -7.0338    2.8468    3.7585 C.3       1 <0>        -0.1586
     31 C23        -6.0129    2.2349    2.8002 C.3       1 <0>        -0.1084
     32 C24        -6.1733    4.2796    1.3801 C.3       1 <0>        -0.1421
     33 H5         -2.4112    4.9503    4.8085 H         1 <0>         0.0600
     34 H6         -1.4702    5.7964    3.5567 H         1 <0>         0.0634
     35 H7         -3.0943    6.3784    3.9946 H         1 <0>         0.0601
     36 H8         -2.0884    2.9191    3.6564 H         1 <0>         0.0592
     37 H9         -1.2495    3.5898    2.2750 H         1 <0>         0.0801
     38 H10        -4.9959    3.6151   -0.6577 H         1 <0>         0.0680
     39 H11        -3.6272    4.4835    0.0568 H         1 <0>         0.0685
     40 H12        -2.9920    3.3332   -2.0370 H         1 <0>         0.0668
     41 H13        -3.5995    1.7857   -1.3943 H         1 <0>         0.0776
     42 H14        -0.5425    0.4565    1.8727 H         1 <0>         0.0718
     43 H15        -0.0981    2.1785    1.6905 H         1 <0>         0.0787
     44 H16         0.1575   -0.0848   -0.2801 H         1 <0>         0.0748
     45 H17         1.0993    1.4310   -0.1887 H         1 <0>         0.0933
     46 H18        -1.3833    2.3466   -3.6929 H         1 <0>         0.0746
     47 H19        -0.5167    3.8165   -3.7469 H         1 <0>         0.0954
     48 H20         0.2141    2.2880   -4.2926 H         1 <0>         0.0954
     49 H21        -1.6567   -1.1940   -4.3606 H         1 <0>         0.1063
     50 H22        -0.7235   -2.3225   -3.3487 H         1 <0>         0.1045
     51 H23        -2.3184   -1.7496   -2.8044 H         1 <0>         0.0954
     52 H24        -0.9391    4.3499   -1.1250 H         1 <0>         0.0562
     53 H25        -1.7384    4.4294    0.4634 H         1 <0>         0.0791
     54 H26        -0.1506    3.6409    0.3045 H         1 <0>         0.0693
     55 H27        -4.5517    4.9774    5.0932 H         1 <0>         0.1330
     56 H28        -7.7509    3.3057    3.2340 H         1 <0>         0.0941
     57 H29        -7.4678    2.0474    4.3729 H         1 <0>         0.0976
     58 H30        -6.5302    1.6410    2.0444 H         1 <0>         0.0800
     59 H31        -5.3301    1.5896    3.3561 H         1 <0>         0.0719
     60 H32        -6.7279    3.7181    0.6282 H         1 <0>         0.0669
     61 H33        -6.8704    4.7130    2.0973 H         1 <0>         0.0579
     62 H34        -5.6086    5.0761    0.8955 H         1 <0>         0.0646
@<TRIPOS>BOND
     1    1    2 1
     2    1   33 1
     3    1   34 1
     4    1   35 1
     5    2    3 1
     6    2   26 1
     7    2    4 1
     8    4    5 1
     9    4   36 1
    10    4   37 1
    11    5    6 1
    12    5   12 1
    13    5    7 1
    14    7    8 1
    15    7    9 1
    16    7   25 1
    17    9   10 1
    18    9   38 1
    19    9   39 1
    20   10   11 1
    21   10   40 1
    22   10   41 1
    23   11   16 1
    24   11   12 1
    25   11   24 1
    26   12   13 1
    27   12   14 1
    28   14   15 1
    29   14   42 1
    30   14   43 1
    31   15   16 1
    32   15   44 1
    33   15   45 1
    34   16   17 1
    35   16   20 1
    36   17   18 2
    37   17   19 1
    38   19   46 1
    39   19   47 1
    40   19   48 1
    41   20   21 1
    42   21   22 2
    43   21   23 1
    44   23   49 1
    45   23   50 1
    46   23   51 1
    47   24   52 1
    48   24   53 1
    49   24   54 1
    50   25   31 1
    51   25   26 1
    52   25   32 1
    53   26   27 2
    54   27   28 1
    55   27   55 1
    56   28   29 2
    57   28   30 1
    58   30   31 1
    59   30   56 1
    60   30   57 1
    61   31   58 1
    62   31   59 1
    63   32   60 1
    64   32   61 1
    65   32   62 1
@<TRIPOS>MOLECULE
ZINC03920027
   65    68     0     0     0
SMALL
NO_CHARGES

@<TRIPOS>ATOM
      1 C1          2.0762   -2.0680   -3.0529 C.3       1 <0>        -0.1442
      2 C2          1.4995   -2.9513   -1.9448 C.3       1 <0>        -0.1154
      3 C3         -0.0052   -2.9451   -2.0293 C.2       1 <0>         0.4591
      4 O1         -0.5593   -2.3003   -2.8879 O.2       1 <0>        -0.4883
      5 O2         -0.7297   -3.6559   -1.1509 O.3       1 <0>        -0.3249
      6 C4         -2.1513   -3.5408   -1.2391 C.3       1 <0>         0.1202
      7 C5         -2.6055   -2.1335   -0.7777 C.3       1 <0>        -0.0974
      8 H1         -3.2065   -1.6609   -1.5546 H         1 <0>         0.0987
      9 C6         -3.4601   -2.3466    0.5016 C.3       1 <0>        -0.1096
     10 C7         -2.9539   -3.6925    1.0321 C.3       1 <0>        -0.0814
     11 H2         -1.9799   -3.5713    1.5060 H         1 <0>         0.0943
     12 C8         -2.8212   -4.5164   -0.2768 C.3       1 <0>        -0.0391
     13 C9         -2.0428   -5.7732    0.0621 C.3       1 <0>        -0.1330
     14 C10        -2.9031   -6.5899    1.0394 C.3       1 <0>         0.0913
     15 H3         -2.3560   -7.4864    1.3310 H         1 <0>         0.0777
     16 C11        -3.2485   -5.7885    2.2909 C.3       1 <0>         0.1559
     17 C12        -3.9008   -4.4364    1.9562 C.3       1 <0>        -0.0967
     18 H4         -4.8492   -4.6111    1.4480 H         1 <0>         0.1158
     19 C13        -4.1210   -3.6270    3.2357 C.3       1 <0>        -0.1403
     20 C14        -5.1070   -4.3626    4.1488 C.3       1 <0>         0.1254
     21 H5         -6.0834   -4.4177    3.6674 H         1 <0>         0.1070
     22 C15        -4.5744   -5.7629    4.3883 C.2       1 <0>        -0.0812
     23 C16        -4.4660   -6.2051    5.6334 C.2       1 <0>        -0.1935
     24 C17        -3.9346   -7.5495    5.9061 C.2       1 <0>         0.4079
     25 O3         -3.8702   -7.9740    7.0448 O.2       1 <0>        -0.4466
     26 C18        -3.4828   -8.3702    4.7698 C.2       1 <0>        -0.2033
     27 C19        -3.6070   -7.9111    3.5344 C.2       1 <0>        -0.0714
     28 C20        -4.2086   -6.6015    3.1642 C.3       1 <0>        -0.0192
     29 C21        -5.4708   -6.8712    2.3426 C.3       1 <0>        -0.1375
     30 F1         -5.2187   -3.6841    5.3671 F         1 <0>        -0.1967
     31 F2         -2.0770   -5.5317    3.0110 F         1 <0>        -0.1879
     32 O4         -4.1137   -6.9750    0.3851 O.3       1 <0>        -0.5419
     33 C22        -4.2105   -4.8881   -0.7989 C.3       1 <0>        -0.1695
     34 C23        -1.3860   -1.2667   -0.4576 C.3       1 <0>        -0.1675
     35 C24        -2.6091   -3.8025   -2.6508 C.2       1 <0>         0.3223
     36 O5         -3.5278   -3.1633   -3.1190 O.2       1 <0>        -0.4291
     37 S1         -1.8562   -4.9655   -3.5653 S.3       1 <0>        -0.1184
     38 C25        -2.7353   -4.9140   -5.1512 C.3       1 <0>         0.0842
     39 F3         -2.3374   -3.7807   -5.8684 F         1 <0>        -0.1808
     40 H6          3.1645   -2.0725   -2.9917 H         1 <0>         0.0725
     41 H7          1.7653   -2.4537   -4.0238 H         1 <0>         0.0664
     42 H8          1.7098   -1.0485   -2.9326 H         1 <0>         0.0641
     43 H9          1.8659   -3.9708   -2.0650 H         1 <0>         0.1087
     44 H10         1.8104   -2.5657   -0.9738 H         1 <0>         0.1070
     45 H11        -3.2755   -1.5528    1.2253 H         1 <0>         0.0808
     46 H12        -4.5197   -2.4041    0.2524 H         1 <0>         0.0779
     47 H13        -1.8589   -6.3516   -0.8433 H         1 <0>         0.0843
     48 H14        -1.0963   -5.5080    0.5331 H         1 <0>         0.0933
     49 H15        -3.1703   -3.5025    3.7542 H         1 <0>         0.0896
     50 H16        -4.5250   -2.6474    2.9802 H         1 <0>         0.0939
     51 H17        -4.7700   -5.5728    6.4545 H         1 <0>         0.1482
     52 H18        -3.0508   -9.3445    4.9440 H         1 <0>         0.1445
     53 H19        -3.2592   -8.5353    2.7245 H         1 <0>         0.1290
     54 H20        -5.2851   -7.6922    1.6501 H         1 <0>         0.1044
     55 H21        -6.2894   -7.1379    3.0111 H         1 <0>         0.0579
     56 H22        -5.7372   -5.9756    1.7813 H         1 <0>         0.0747
     57 H23        -3.9789   -7.5172   -0.4042 H         1 <0>         0.3805
     58 H24        -4.1133   -5.6177   -1.6029 H         1 <0>         0.0573
     59 H25        -4.8005   -5.3166    0.0113 H         1 <0>         0.1163
     60 H26        -4.7075   -3.9948   -1.1772 H         1 <0>         0.0564
     61 H27        -0.8503   -1.0388   -1.3792 H         1 <0>         0.0705
     62 H28        -1.7128   -0.3388    0.0116 H         1 <0>         0.0676
     63 H29        -0.7261   -1.8051    0.2226 H         1 <0>         0.0641
     64 H30        -2.4997   -5.8093   -5.7265 H         1 <0>         0.1340
     65 H31        -3.8093   -4.8708   -4.9700 H         1 <0>         0.1109
@<TRIPOS>BOND
     1    1    2 1
     2    1   40 1
     3    1   41 1
     4    1   42 1
     5    2    3 1
     6    2   43 1
     7    2   44 1
     8    3    4 2
     9    3    5 1
    10    5    6 1
    11    6   12 1
    12    6    7 1
    13    6   35 1
    14    7    8 1
    15    7    9 1
    16    7   34 1
    17    9   10 1
    18    9   45 1
    19    9   46 1
    20   10   11 1
    21   10   17 1
    22   10   12 1
    23   12   13 1
    24   12   33 1
    25   13   14 1
    26   13   47 1
    27   13   48 1
    28   14   15 1
    29   14   16 1
    30   14   32 1
    31   16   28 1
    32   16   17 1
    33   16   31 1
    34   17   18 1
    35   17   19 1
    36   19   20 1
    37   19   49 1
    38   19   50 1
    39   20   21 1
    40   20   22 1
    41   20   30 1
    42   22   28 1
    43   22   23 2
    44   23   24 1
    45   23   51 1
    46   24   25 2
    47   24   26 1
    48   26   27 2
    49   26   52 1
    50   27   28 1
    51   27   53 1
    52   28   29 1
    53   29   54 1
    54   29   55 1
    55   29   56 1
    56   32   57 1
    57   33   58 1
    58   33   59 1
    59   33   60 1
    60   34   61 1
    61   34   62 1
    62   34   63 1
    63   35   36 2
    64   35   37 1
    65   37   38 1
    66   38   39 1
    67   38   64 1
    68   38   65 1
@<TRIPOS>MOLECULE
ZINC12496510
   65    68     0     0     0
SMALL
USER_CHARGES
[(6S,8S,9R,10S,11S,13S,14R,16R,17R)-6,9-difluoro-17-(fluoromethylsulfanylcarbonyl)-11-hydroxy-10,13,16-trimethyl-3-oxo-6,7,8,11,12,14,15,16-octahydrocyclopenta[a]phenanthren-17-yl] propanoate
@<TRIPOS>ATOM
      1 C1          1.9918    4.1841    9.3333 C.3       1 <0>        -0.1444
      2 C2          0.8995    4.3768    8.2793 C.3       1 <0>        -0.1148
      3 C3          0.8983    3.2012    7.3365 C.2       1 <0>         0.4576
      4 O1          1.6897    2.3015    7.4915 O.2       1 <0>        -0.4888
      5 O2          0.0179    3.1536    6.3243 O.3       1 <0>        -0.3283
      6 C4          0.0850    1.9994    5.4460 C.3       1 <0>         0.1084
      7 C5          1.3825    2.0388    4.5900 C.3       1 <0>        -0.0948
      8 H1          1.9887    1.1555    4.7913 H         1 <0>         0.0957
      9 C6          0.9388    2.0503    3.1089 C.3       1 <0>        -0.1331
     10 C7         -0.4721    1.4342    3.1526 C.3       1 <0>        -0.0760
     11 H2         -0.3858    0.3543    3.2726 H         1 <0>         0.0852
     12 C8         -1.0866    2.0348    4.4283 C.3       1 <0>        -0.0180
     13 C9         -1.4336    3.5105    4.2123 C.3       1 <0>        -0.1372
     14 C10        -2.3239    3.6778    2.9849 C.3       1 <0>         0.0904
     15 H3         -2.5965    4.7271    2.8718 H         1 <0>         0.0782
     16 C11        -1.5511    3.2111    1.7454 C.3       1 <0>         0.1569
     17 C12        -1.2425    1.7221    1.8970 C.3       1 <0>        -0.0876
     18 H4         -2.1834    1.1752    1.9582 H         1 <0>         0.1117
     19 C13        -0.4647    1.2204    0.6774 C.3       1 <0>        -0.1435
     20 C14        -1.3300    1.3574   -0.5790 C.3       1 <0>         0.1269
     21 H5         -2.2016    0.7077   -0.4988 H         1 <0>         0.1080
     22 C15        -1.7754    2.8039   -0.6860 C.2       1 <0>        -0.0791
     23 C16        -1.5725    3.4570   -1.8216 C.2       1 <0>        -0.1935
     24 C17        -1.9713    4.8669   -1.9543 C.2       1 <0>         0.4074
     25 O3         -1.8233    5.4591   -3.0070 O.2       1 <0>        -0.4462
     26 C18        -2.5534    5.5454   -0.7840 C.2       1 <0>        -0.2038
     27 C19        -2.7536    4.8710    0.3375 C.2       1 <0>        -0.0706
     28 C20        -2.4318    3.4262    0.5103 C.3       1 <0>        -0.0238
     29 C21        -3.7443    2.6817    0.7629 C.3       1 <0>        -0.1392
     30 F1         -0.5823    1.0080   -1.7087 F         1 <0>        -0.1961
     31 F2         -0.3661    3.9440    1.6189 F         1 <0>        -0.1801
     32 O4         -3.5046    2.8877    3.1386 O.3       1 <0>        -0.5423
     33 C22        -2.2943    1.2310    4.9143 C.3       1 <0>        -0.1597
     34 C23         2.1801    3.3051    4.9081 C.3       1 <0>        -0.1614
     35 C24         0.0302    0.7288    6.2545 C.2       1 <0>         0.3450
     36 O5          0.6846   -0.2349    5.9151 O.2       1 <0>        -0.4200
     37 S1         -0.9553    0.6452    7.6518 S.3       1 <0>        -0.1475
     38 C25        -0.6187   -1.0553    8.1726 C.3       1 <0>         0.0817
     39 F3          0.6527   -1.1223    8.7526 F         1 <0>        -0.1818
     40 H6          1.7987    3.2692    9.8935 H         1 <0>         0.0662
     41 H7          2.9620    4.1113    8.8420 H         1 <0>         0.0642
     42 H8          1.9927    5.0343   10.0153 H         1 <0>         0.0722
     43 H9          1.0926    5.2917    7.7191 H         1 <0>         0.1063
     44 H10        -0.0707    4.4496    8.7707 H         1 <0>         0.1081
     45 H11         1.6066    1.4378    2.5032 H         1 <0>         0.0770
     46 H12         0.9005    3.0707    2.7275 H         1 <0>         0.1007
     47 H13        -0.5144    4.0788    4.0698 H         1 <0>         0.0897
     48 H14        -1.9573    3.8883    5.0904 H         1 <0>         0.0880
     49 H15        -0.1992    0.1732    0.8224 H         1 <0>         0.0927
     50 H16         0.4434    1.8115    0.5584 H         1 <0>         0.0899
     51 H17        -1.1104    2.9502   -2.6559 H         1 <0>         0.1480
     52 H18        -2.8161    6.5914   -0.8404 H         1 <0>         0.1444
     53 H19        -3.1760    5.4004    1.1787 H         1 <0>         0.1316
     54 H20        -3.5288    1.6897    1.1601 H         1 <0>         0.0785
     55 H21        -4.3452    3.2383    1.4821 H         1 <0>         0.1005
     56 H22        -4.2941    2.5865   -0.1735 H         1 <0>         0.0575
     57 H23        -4.0425    3.1292    3.9050 H         1 <0>         0.3829
     58 H24        -3.0421    1.1844    4.1226 H         1 <0>         0.0995
     59 H25        -1.9776    0.2211    5.1748 H         1 <0>         0.0497
     60 H26        -2.7236    1.7149    5.7916 H         1 <0>         0.0715
     61 H27         1.5201    4.1714    4.8616 H         1 <0>         0.0636
     62 H28         2.6048    3.2252    5.9088 H         1 <0>         0.0658
     63 H29         2.9834    3.4209    4.1806 H         1 <0>         0.0672
     64 H30        -1.3672   -1.3672    8.9010 H         1 <0>         0.1305
     65 H31        -0.6579   -1.7152    7.3060 H         1 <0>         0.1120
@<TRIPOS>BOND
     1    1    2 1
     2    1   40 1
     3    1   41 1
     4    1   42 1
     5    2    3 1
     6    2   43 1
     7    2   44 1
     8    3    4 2
     9    3    5 1
    10    5    6 1
    11    6   12 1
    12    6    7 1
    13    6   35 1
    14    7    8 1
    15    7    9 1
    16    7   34 1
    17    9   10 1
    18    9   45 1
    19    9   46 1
    20   10   11 1
    21   10   17 1
    22   10   12 1
    23   12   13 1
    24   12   33 1
    25   13   14 1
    26   13   47 1
    27   13   48 1
    28   14   15 1
    29   14   16 1
    30   14   32 1
    31   16   28 1
    32   16   17 1
    33   16   31 1
    34   17   18 1
    35   17   19 1
    36   19   20 1
    37   19   49 1
    38   19   50 1
    39   20   21 1
    40   20   22 1
    41   20   30 1
    42   22   28 1
    43   22   23 2
    44   23   24 1
    45   23   51 1
    46   24   25 2
    47   24   26 1
    48   26   27 2
    49   26   52 1
    50   27   28 1
    51   27   53 1
    52   28   29 1
    53   29   54 1
    54   29   55 1
    55   29   56 1
    56   32   57 1
    57   33   58 1
    58   33   59 1
    59   33   60 1
    60   34   61 1
    61   34   62 1
    62   34   63 1
    63   35   36 2
    64   35   37 1
    65   37   38 1
    66   38   39 1
    67   38   64 1
    68   38   65 1
@<TRIPOS>MOLECULE
ZINC15894339
   65    68     0     0     0
SMALL
USER_CHARGES
[(6S,8R,9R,10S,11S,13S,14R,16R,17R)-6,9-difluoro-17-(fluoromethylsulfanylcarbonyl)-11-hydroxy-10,13,16-trimethyl-3-oxo-6,7,8,11,12,14,15,16-octahydrocyclopenta[a]phenanthren-17-yl] propanoate
@<TRIPOS>ATOM
      1 C1          0.3918    2.8316   -4.8136 C.3       1 <0>        -0.1424
      2 C2          0.3163    2.9482   -3.2899 C.3       1 <0>        -0.1160
      3 C3          0.3374    1.5707   -2.6791 C.2       1 <0>         0.4505
      4 O1          0.4058    0.5958   -3.3896 O.2       1 <0>        -0.4842
      5 O2          0.2801    1.4268   -1.3458 O.3       1 <0>        -0.3265
      6 C4          0.4511    0.0843   -0.8197 C.3       1 <0>         0.1093
      7 C5          0.1745    0.0708    0.6950 C.3       1 <0>        -0.0747
      8 H1         -0.6521   -0.6037    0.9185 H         1 <0>         0.0855
      9 C6          1.4681   -0.4332    1.3754 C.3       1 <0>        -0.1353
     10 C7          2.1771   -1.2235    0.2595 C.3       1 <0>        -0.0716
     11 H2          1.6890   -2.1910    0.1422 H         1 <0>         0.0893
     12 C8          1.9224   -0.3749   -0.9988 C.3       1 <0>        -0.0352
     13 C9          2.7567    0.8881   -0.9927 C.3       1 <0>        -0.1418
     14 C10         4.2350    0.5465   -0.8277 C.3       1 <0>         0.0828
     15 H3          4.8280    1.4603   -0.8671 H         1 <0>         0.0890
     16 C11         4.4329   -0.1368    0.5304 C.3       1 <0>         0.1626
     17 C12         3.6414   -1.4388    0.5416 C.3       1 <0>        -0.0844
     18 H4          3.7447   -1.8845    1.5310 H         1 <0>         0.0867
     19 C13         4.2629   -2.3880   -0.4914 C.3       1 <0>        -0.1762
     20 C14         5.5853   -2.8957    0.0869 C.3       1 <0>         0.1340
     21 H5          6.1429   -3.4164   -0.6916 H         1 <0>         0.0992
     22 C15         6.4076   -1.7496    0.5987 C.2       1 <0>        -0.0767
     23 C16         7.7019   -1.9839    0.9183 C.2       1 <0>        -0.1923
     24 C17         8.4310   -0.8090    1.4693 C.2       1 <0>         0.4133
     25 O3          9.5751   -0.5404    1.1535 O.2       1 <0>        -0.4387
     26 C18         7.6523    0.0121    2.4373 C.2       1 <0>        -0.2157
     27 C19         6.3622    0.2241    2.0973 C.2       1 <0>        -0.0845
     28 C20         5.8974   -0.3628    0.7940 C.3       1 <0>        -0.0247
     29 C21         6.6089    0.4678   -0.2760 C.3       1 <0>        -0.1754
     30 F1          5.3213   -3.7811    1.1375 F         1 <0>        -0.2024
     31 F2          3.9221    0.7094    1.5204 F         1 <0>        -0.1864
     32 O4          4.6422   -0.3382   -1.8734 O.3       1 <0>        -0.5300
     33 C22         2.1306   -1.1814   -2.2822 C.3       1 <0>        -0.1978
     34 C23        -0.1565    1.4836    1.1800 C.3       1 <0>        -0.1351
     35 C24        -0.4783   -0.8704   -1.5239 C.2       1 <0>         0.3415
     36 O5         -0.1654   -2.0352   -1.6560 O.2       1 <0>        -0.4152
     37 S1         -1.9756   -0.3114   -2.1376 S.3       1 <0>        -0.1487
     38 C25        -2.6197   -1.8487   -2.8432 C.3       1 <0>         0.0840
     39 F3         -3.0625   -2.6852   -1.8129 F         1 <0>        -0.1860
     40 H6         -0.4621    2.2599   -5.1771 H         1 <0>         0.0664
     41 H7          0.3766    3.8280   -5.2554 H         1 <0>         0.0707
     42 H8          1.3148    2.3240   -5.0939 H         1 <0>         0.0631
     43 H9         -0.6067    3.4558   -3.0097 H         1 <0>         0.1075
     44 H10         1.1702    3.5199   -2.9265 H         1 <0>         0.1041
     45 H11         2.0825    0.4062    1.7011 H         1 <0>         0.1039
     46 H12         1.2306   -1.0830    2.2177 H         1 <0>         0.0777
     47 H13         2.4408    1.5250   -0.1665 H         1 <0>         0.0937
     48 H14         2.6140    1.4216   -1.9324 H         1 <0>         0.0693
     49 H15         3.5919   -3.2276   -0.6734 H         1 <0>         0.0843
     50 H16         4.4464   -1.8525   -1.4228 H         1 <0>         0.1591
     51 H17         8.1691   -2.9483    0.7842 H         1 <0>         0.1570
     52 H18         8.0863    0.4080    3.3436 H         1 <0>         0.1560
     53 H19         5.6959    0.7893    2.7322 H         1 <0>         0.1521
     54 H20         6.3885    0.0569   -1.2612 H         1 <0>         0.1052
     55 H21         6.2604    1.4994   -0.2264 H         1 <0>         0.0710
     56 H22         7.6846    0.4390   -0.1026 H         1 <0>         0.0595
     57 H23         4.5436    0.0310   -2.7617 H         1 <0>         0.3788
     58 H24         1.5417   -2.0974   -2.2352 H         1 <0>         0.0829
     59 H25         1.8124   -0.5884   -3.1396 H         1 <0>         0.0798
     60 H26         3.1861   -1.4329   -2.3859 H         1 <0>         0.0928
     61 H27         0.6978    2.1374    1.0047 H         1 <0>         0.0652
     62 H28        -1.0213    1.8616    0.6347 H         1 <0>         0.0641
     63 H29        -0.3820    1.4583    2.2462 H         1 <0>         0.0631
     64 H30        -3.4517   -1.6219   -3.5099 H         1 <0>         0.1289
     65 H31        -1.8307   -2.3496   -3.4041 H         1 <0>         0.1138
@<TRIPOS>BOND
     1    1    2 1
     2    1   40 1
     3    1   41 1
     4    1   42 1
     5    2    3 1
     6    2   43 1
     7    2   44 1
     8    3    4 2
     9    3    5 1
    10    5    6 1
    11    6   12 1
    12    6    7 1
    13    6   35 1
    14    7    8 1
    15    7    9 1
    16    7   34 1
    17    9   10 1
    18    9   45 1
    19    9   46 1
    20   10   11 1
    21   10   17 1
    22   10   12 1
    23   12   13 1
    24   12   33 1
    25   13   14 1
    26   13   47 1
    27   13   48 1
    28   14   15 1
    29   14   16 1
    30   14   32 1
    31   16   28 1
    32   16   17 1
    33   16   31 1
    34   17   18 1
    35   17   19 1
    36   19   20 1
    37   19   49 1
    38   19   50 1
    39   20   21 1
    40   20   22 1
    41   20   30 1
    42   22   28 1
    43   22   23 2
    44   23   24 1
    45   23   51 1
    46   24   25 2
    47   24   26 1
    48   26   27 2
    49   26   52 1
    50   27   28 1
    51   27   53 1
    52   28   29 1
    53   29   54 1
    54   29   55 1
    55   29   56 1
    56   32   57 1
    57   33   58 1
    58   33   59 1
    59   33   60 1
    60   34   61 1
    61   34   62 1
    62   34   63 1
    63   35   36 2
    64   35   37 1
    65   37   38 1
    66   38   39 1
    67   38   64 1
    68   38   65 1
@<TRIPOS>MOLECULE
ZINC15894340
   65    68     0     0     0
SMALL
USER_CHARGES
[(6S,8R,9R,10S,11S,13S,14S,16R,17R)-6,9-difluoro-17-(fluoromethylsulfanylcarbonyl)-11-hydroxy-10,13,16-trimethyl-3-oxo-6,7,8,11,12,14,15,16-octahydrocyclopenta[a]phenanthren-17-yl] propanoate
@<TRIPOS>ATOM
      1 C1         -7.4385   -5.2438   -2.9475 C.3       1 <0>        -0.1439
      2 C2         -6.3234   -4.5875   -2.1309 C.3       1 <0>        -0.1152
      3 C3         -6.5510   -3.0988   -2.0755 C.2       1 <0>         0.4572
      4 O1         -7.5070   -2.6127   -2.6320 O.2       1 <0>        -0.4870
      5 O2         -5.6917   -2.3128   -1.4080 O.3       1 <0>        -0.3256
      6 C4         -5.9035   -0.8849   -1.4964 C.3       1 <0>         0.1075
      7 C5         -5.5213   -0.3563   -2.9034 C.3       1 <0>        -0.0963
      8 H1         -6.2596    0.3682   -3.2450 H         1 <0>         0.1019
      9 C6         -4.1319    0.3281   -2.7525 C.3       1 <0>        -0.1077
     10 C7         -3.6461   -0.1988   -1.3988 C.3       1 <0>        -0.0787
     11 H2         -3.3914   -1.2739   -1.5505 H         1 <0>         0.0916
     12 C8         -4.9335   -0.1410   -0.5537 C.3       1 <0>        -0.0246
     13 C9         -4.6995   -0.7923    0.7840 C.3       1 <0>        -0.1433
     14 C10        -3.4919   -0.1516    1.4956 C.3       1 <0>         0.1046
     15 H3         -3.3232   -0.7649    2.3970 H         1 <0>         0.0715
     16 C11        -2.2457   -0.1839    0.6384 C.3       1 <0>         0.1675
     17 C12        -2.4706    0.4471   -0.7453 C.3       1 <0>        -0.0817
     18 H4         -1.5710    0.2035   -1.3526 H         1 <0>         0.0906
     19 C13        -2.5322    1.9612   -0.6132 C.3       1 <0>        -0.1442
     20 C14        -1.1085    2.4573   -0.3409 C.3       1 <0>         0.1304
     21 H5         -1.1532    3.4742    0.0483 H         1 <0>         0.1021
     22 C15        -0.4112    1.5779    0.6578 C.2       1 <0>        -0.0868
     23 C16         0.8447    1.9519    1.0077 C.2       1 <0>        -0.1907
     24 C17         1.5255    1.0612    1.9867 C.2       1 <0>         0.4134
     25 O3          2.1875    1.4770    2.9156 O.2       1 <0>        -0.4345
     26 C18         1.3206   -0.3904    1.7185 C.2       1 <0>        -0.2179
     27 C19         0.0644   -0.7412    1.3763 C.2       1 <0>        -0.0903
     28 C20        -0.9833    0.3422    1.2665 C.3       1 <0>        -0.0151
     29 C21        -1.2895    0.7022    2.7149 C.3       1 <0>        -0.1580
     30 F1         -0.3851    2.4540   -1.5385 F         1 <0>        -0.2003
     31 F2         -1.9965   -1.5564    0.3773 F         1 <0>        -0.2023
     32 O4         -3.8476    1.1610    1.9128 O.3       1 <0>        -0.5480
     33 C22        -5.4812    1.2770   -0.3964 C.3       1 <0>        -0.1691
     34 C23        -5.4278   -1.5186   -3.8936 C.3       1 <0>        -0.1720
     35 C24        -7.3231   -0.5236   -1.1608 C.2       1 <0>         0.3503
     36 O5         -7.8930    0.3440   -1.7889 O.2       1 <0>        -0.4205
     37 S1         -8.1361   -1.3362    0.1079 S.3       1 <0>        -0.1522
     38 C25        -9.7409   -0.5021    0.0379 C.3       1 <0>         0.0840
     39 F3        -10.4612   -0.9688   -1.0670 F         1 <0>        -0.1807
     40 H6         -7.2738   -6.3206   -2.9875 H         1 <0>         0.0721
     41 H7         -8.4007   -5.0407   -2.4775 H         1 <0>         0.0662
     42 H8         -7.4352   -4.8379   -3.9590 H         1 <0>         0.0642
     43 H9         -5.3611   -4.7906   -2.6009 H         1 <0>         0.1066
     44 H10        -6.3266   -4.9934   -1.1194 H         1 <0>         0.1079
     45 H11        -4.2224    1.4097   -2.7586 H         1 <0>         0.0794
     46 H12        -3.4618    0.0002   -3.5513 H         1 <0>         0.0786
     47 H13        -4.5082   -1.8624    0.6572 H         1 <0>         0.0950
     48 H14        -5.5852   -0.6726    1.4184 H         1 <0>         0.0828
     49 H15        -2.8926    2.4084   -1.5443 H         1 <0>         0.0911
     50 H16        -3.1701    2.2764    0.2076 H         1 <0>         0.1153
     51 H17         1.3163    2.8364    0.6024 H         1 <0>         0.1570
     52 H18         2.1244   -1.1092    1.7951 H         1 <0>         0.1555
     53 H19        -0.1829   -1.7761    1.1767 H         1 <0>         0.1555
     54 H20        -0.3805    1.0562    3.2013 H         1 <0>         0.0591
     55 H21        -2.0455    1.4870    2.7422 H         1 <0>         0.0998
     56 H22        -1.6616   -0.1790    3.2375 H         1 <0>         0.0683
     57 H23        -4.6428    1.1972    2.4618 H         1 <0>         0.3883
     58 H24        -4.7976    1.8646    0.2165 H         1 <0>         0.1030
     59 H25        -5.5781    1.7400   -1.3784 H         1 <0>         0.0685
     60 H26        -6.4584    1.2378    0.0849 H         1 <0>         0.0518
     61 H27        -4.7793   -2.2933   -3.4844 H         1 <0>         0.0605
     62 H28        -6.4223   -1.9306   -4.0653 H         1 <0>         0.0792
     63 H29        -5.0152   -1.1602   -4.8367 H         1 <0>         0.0671
     64 H30       -10.2993   -0.7114    0.9503 H         1 <0>         0.1297
     65 H31        -9.5878    0.5730   -0.0559 H         1 <0>         0.1120
@<TRIPOS>BOND
     1    1    2 1
     2    1   40 1
     3    1   41 1
     4    1   42 1
     5    2    3 1
     6    2   43 1
     7    2   44 1
     8    3    4 2
     9    3    5 1
    10    5    6 1
    11    6   12 1
    12    6    7 1
    13    6   35 1
    14    7    8 1
    15    7    9 1
    16    7   34 1
    17    9   10 1
    18    9   45 1
    19    9   46 1
    20   10   11 1
    21   10   17 1
    22   10   12 1
    23   12   13 1
    24   12   33 1
    25   13   14 1
    26   13   47 1
    27   13   48 1
    28   14   15 1
    29   14   16 1
    30   14   32 1
    31   16   28 1
    32   16   17 1
    33   16   31 1
    34   17   18 1
    35   17   19 1
    36   19   20 1
    37   19   49 1
    38   19   50 1
    39   20   21 1
    40   20   22 1
    41   20   30 1
    42   22   28 1
    43   22   23 2
    44   23   24 1
    45   23   51 1
    46   24   25 2
    47   24   26 1
    48   26   27 2
    49   26   52 1
    50   27   28 1
    51   27   53 1
    52   28   29 1
    53   29   54 1
    54   29   55 1
    55   29   56 1
    56   32   57 1
    57   33   58 1
    58   33   59 1
    59   33   60 1
    60   34   61 1
    61   34   62 1
    62   34   63 1
    63   35   36 2
    64   35   37 1
    65   37   38 1
    66   38   39 1
    67   38   64 1
    68   38   65 1
@<TRIPOS>MOLECULE
ZINC03978019
   58    62     0     0     0
SMALL
USER_CHARGES

@<TRIPOS>ATOM
      1 C1         -0.9119    1.0376    0.3663 C.3       1 <0>        -0.2095
      2 C2          0.1640    0.0617   -0.0349 C.2       1 <0>         0.3566
      3 O1          1.1672   -0.0381    0.6298 O.2       1 <0>        -0.4325
      4 C3         -0.0116   -0.7876   -1.2625 C.3       1 <0>         0.0755
      5 C4          1.3553   -1.3394   -1.7452 C.3       1 <0>        -0.1343
      6 C5          1.1745   -2.8781   -1.8977 C.3       1 <0>        -0.1203
      7 C6         -0.3511   -2.9991   -2.0384 C.3       1 <0>        -0.0703
      8 H1         -0.6287   -2.5517   -3.0150 H         1 <0>         0.0877
      9 C7         -0.8256   -2.0524   -0.9140 C.3       1 <0>        -0.0262
     10 C8         -2.3213   -1.8880   -0.9508 C.3       1 <0>        -0.1077
     11 C9         -3.0430   -3.2346   -1.1012 C.3       1 <0>        -0.1038
     12 C10        -2.1129   -4.4239   -0.9626 C.3       1 <0>        -0.0662
     13 H2         -1.7136   -4.4439    0.0511 H         1 <0>         0.0893
     14 C11        -0.9560   -4.3583   -1.9508 C.3       1 <0>        -0.0425
     15 H3         -1.3901   -4.5808   -2.9515 H         1 <0>         0.0842
     16 C12         0.0212   -5.4731   -1.6756 C.2       1 <0>        -0.0902
     17 C13        -0.5246   -6.7132   -1.6290 C.2       1 <0>        -0.0813
     18 C14        -1.9919   -6.7723   -1.7929 C.2       1 <0>         0.0283
     19 C15        -2.4997   -7.7525   -2.5720 C.2       1 <0>        -0.2194
     20 C16        -3.8648   -7.8694   -2.8642 C.2       1 <0>         0.4167
     21 O2         -4.2983   -8.8775   -3.3821 O.2       1 <0>        -0.4492
     22 C17        -4.7919   -6.7194   -2.5540 C.3       1 <0>        -0.2109
     23 H4         -5.8448   -6.9681   -2.4530 H         1 <0>         0.1328
     24 C18        -4.4275   -5.3592   -3.1563 C.3       1 <0>        -0.1411
     25 C19        -4.2339   -5.6083   -1.6631 C.3       1 <0>        -0.1138
     26 H5         -4.9495   -5.1309   -0.9914 H         1 <0>         0.1261
     27 C20        -2.8393   -5.7560   -1.1016 C.3       1 <0>        -0.0005
     28 C21        -3.0202   -6.2689    0.3353 C.3       1 <0>        -0.1467
     29 Cl1         0.4453   -8.1403   -1.3927 Cl        1 <0>        -0.0531
     30 C22        -0.3534   -2.4926    0.4725 C.3       1 <0>        -0.1629
     31 O3         -0.6530   -0.0574   -2.3034 O.3       1 <0>        -0.3255
     32 C23        -0.0370    1.0533   -2.7376 C.2       1 <0>         0.4517
     33 O4          1.0445    1.3574   -2.2929 O.2       1 <0>        -0.5001
     34 C24        -0.6943    1.9211   -3.7797 C.3       1 <0>        -0.1481
     35 H6         -0.6741    2.0243   -0.0312 H         1 <0>         0.0947
     36 H7         -1.8704    0.7063   -0.0332 H         1 <0>         0.0893
     37 H8         -0.9695    1.0882    1.4536 H         1 <0>         0.0926
     38 H9          1.6195   -0.8987   -2.7047 H         1 <0>         0.0779
     39 H10         2.1260   -1.1273   -1.0059 H         1 <0>         0.0943
     40 H11         1.6658   -3.2237   -2.8107 H         1 <0>         0.0742
     41 H12         1.5536   -3.4123   -1.0369 H         1 <0>         0.0810
     42 H13        -2.6604   -1.3951   -0.0284 H         1 <0>         0.0663
     43 H14        -2.6025   -1.2361   -1.7905 H         1 <0>         0.0812
     44 H15        -3.8349   -3.3030   -0.3435 H         1 <0>         0.0711
     45 H16        -3.5290   -3.2697   -2.0857 H         1 <0>         0.0737
     46 H17         1.0759   -5.2989   -1.5276 H         1 <0>         0.1446
     47 H18        -1.8175   -8.4768   -2.9885 H         1 <0>         0.1383
     48 H19        -3.5351   -5.3072   -3.7803 H         1 <0>         0.1009
     49 H20        -5.2481   -4.7060   -3.4557 H         1 <0>         0.1121
     50 H21        -3.6078   -5.5501    0.9064 H         1 <0>         0.0715
     51 H22        -3.5378   -7.2280    0.3163 H         1 <0>         0.0615
     52 H23        -2.0432   -6.3925    0.8026 H         1 <0>         0.0640
     53 H24        -0.4421   -1.6583    1.1684 H         1 <0>         0.0595
     54 H25        -0.9691   -3.3223    0.8196 H         1 <0>         0.0779
     55 H26         0.6877   -2.8107    0.4177 H         1 <0>         0.0725
     56 H27        -1.6562    1.4900   -4.0574 H         1 <0>         0.0937
     57 H28        -0.8477    2.9216   -3.3753 H         1 <0>         0.1074
     58 H29        -0.0545    1.9793   -4.6602 H         1 <0>         0.1070
@<TRIPOS>BOND
     1    1    2 1
     2    1   35 1
     3    1   36 1
     4    1   37 1
     5    2    3 2
     6    2    4 1
     7    4    9 1
     8    4    5 1
     9    4   31 1
    10    5    6 1
    11    5   38 1
    12    5   39 1
    13    6    7 1
    14    6   40 1
    15    6   41 1
    16    7    8 1
    17    7   14 1
    18    7    9 1
    19    9   10 1
    20    9   30 1
    21   10   11 1
    22   10   42 1
    23   10   43 1
    24   11   12 1
    25   11   44 1
    26   11   45 1
    27   12   13 1
    28   12   27 1
    29   12   14 1
    30   14   15 1
    31   14   16 1
    32   16   17 2
    33   16   46 1
    34   17   18 1
    35   17   29 1
    36   18   27 1
    37   18   19 2
    38   19   20 1
    39   19   47 1
    40   20   21 2
    41   20   22 1
    42   22   23 1
    43   22   25 1
    44   22   24 1
    45   24   25 1
    46   24   48 1
    47   24   49 1
    48   25   26 1
    49   25   27 1
    50   27   28 1
    51   28   50 1
    52   28   51 1
    53   28   52 1
    54   30   53 1
    55   30   54 1
    56   30   55 1
    57   31   32 1
    58   32   33 2
    59   32   34 1
    60   34   56 1
    61   34   57 1
    62   34   58 1
@<TRIPOS>MOLECULE
ZINC03978020
   58    62     0     0     0
SMALL
USER_CHARGES

@<TRIPOS>ATOM
      1 C1         -1.1546    0.8758    0.3876 C.3       1 <0>        -0.2100
      2 C2         -0.0396   -0.0874    0.0715 C.2       1 <0>         0.3543
      3 O1          0.8895   -0.2066    0.8336 O.2       1 <0>        -0.4320
      4 C3         -0.0840   -0.9018   -1.1957 C.3       1 <0>         0.0839
      5 C4          1.3347   -1.3724   -1.5749 C.3       1 <0>        -0.1329
      6 C5          1.2988   -2.9163   -1.5744 C.3       1 <0>        -0.1265
      7 C6         -0.2008   -3.2552   -1.8216 C.3       1 <0>        -0.0706
      8 H1         -0.4578   -4.2660   -1.5048 H         1 <0>         0.0994
      9 C7         -0.9066   -2.1782   -0.9755 C.3       1 <0>        -0.0311
     10 C8         -2.3638   -1.9985   -1.3339 C.3       1 <0>        -0.1056
     11 C9         -2.5465   -1.7516   -2.8324 C.3       1 <0>        -0.1269
     12 C10        -1.9609   -2.9488   -3.5867 C.3       1 <0>        -0.0595
     13 H2         -2.4298   -3.8612   -3.2182 H         1 <0>         0.0848
     14 C11        -0.4614   -3.0322   -3.3117 C.3       1 <0>        -0.0513
     15 H3         -0.0074   -2.0865   -3.6074 H         1 <0>         0.0905
     16 C12         0.1857   -4.1296   -4.1213 C.2       1 <0>        -0.0956
     17 C13        -0.0751   -4.1261   -5.4517 C.2       1 <0>        -0.0820
     18 C14        -0.9831   -3.0351   -5.8803 C.2       1 <0>         0.0347
     19 C15        -0.6344   -2.2815   -6.9365 C.2       1 <0>        -0.2248
     20 C16        -1.3838   -1.1830   -7.3797 C.2       1 <0>         0.4165
     21 O2         -1.0545   -0.5856   -8.3848 O.2       1 <0>        -0.4503
     22 C17        -2.6004   -0.7463   -6.6040 C.3       1 <0>        -0.2041
     23 H4         -3.3887   -0.2744   -7.1904 H         1 <0>         0.1337
     24 C18        -2.3753   -0.2366   -5.1780 C.3       1 <0>        -0.1534
     25 C19        -3.0218   -1.6137   -5.4219 C.3       1 <0>        -0.1129
     26 H5         -4.0921   -1.6872   -5.2293 H         1 <0>         0.1275
     27 C20        -2.2331   -2.8230   -5.0784 C.3       1 <0>        -0.0001
     28 C21        -3.1435   -3.9930   -5.4566 C.3       1 <0>        -0.1469
     29 Cl1         0.5929   -5.2910   -6.5520 Cl        1 <0>        -0.0464
     30 C22        -0.8227   -2.5733    0.5003 C.3       1 <0>        -0.1572
     31 O3         -0.6482   -0.1293   -2.2573 O.3       1 <0>        -0.3178
     32 C23         0.0202    0.9731   -2.6308 C.2       1 <0>         0.4435
     33 O4          1.0972    1.2211   -2.1424 O.2       1 <0>        -0.4962
     34 C24        -0.5725    1.9016   -3.6591 C.3       1 <0>        -0.1637
     35 H6         -0.8804    1.8739    0.0461 H         1 <0>         0.0947
     36 H7         -2.0654    0.5560   -0.1186 H         1 <0>         0.0912
     37 H8         -1.3246    0.8941    1.4641 H         1 <0>         0.0924
     38 H9          1.5978   -1.0050   -2.5668 H         1 <0>         0.0768
     39 H10         2.0560   -1.0150   -0.8400 H         1 <0>         0.0929
     40 H11         1.9183   -3.3136   -2.3784 H         1 <0>         0.0762
     41 H12         1.6252   -3.3062   -0.6103 H         1 <0>         0.0764
     42 H13        -2.9135   -2.8963   -1.0513 H         1 <0>         0.0708
     43 H14        -2.7643   -1.1484   -0.7815 H         1 <0>         0.0695
     44 H15        -3.6074   -1.6545   -3.0628 H         1 <0>         0.0727
     45 H16        -2.0215   -0.8413   -3.1222 H         1 <0>         0.1089
     46 H17         0.8209   -4.8753   -3.6665 H         1 <0>         0.1400
     47 H18         0.2692   -2.5348   -7.4710 H         1 <0>         0.1359
     48 H19        -1.3508   -0.2156   -4.8065 H         1 <0>         0.1048
     49 H20        -3.0216    0.5658   -4.8221 H         1 <0>         0.1142
     50 H21        -4.0702   -3.9316   -4.8860 H         1 <0>         0.0704
     51 H22        -3.3693   -3.9480   -6.5221 H         1 <0>         0.0612
     52 H23        -2.6397   -4.9330   -5.2314 H         1 <0>         0.0621
     53 H24        -1.1744   -1.7471    1.1182 H         1 <0>         0.0586
     54 H25        -1.4454   -3.4502    0.6776 H         1 <0>         0.0744
     55 H26         0.2113   -2.8041    0.7564 H         1 <0>         0.0693
     56 H27        -1.5398    1.5164   -3.9818 H         1 <0>         0.0984
     57 H28        -0.7031    2.8917   -3.2224 H         1 <0>         0.1094
     58 H29         0.0965    1.9683   -4.5170 H         1 <0>         0.1074
@<TRIPOS>BOND
     1    1    2 1
     2    1   35 1
     3    1   36 1
     4    1   37 1
     5    2    3 2
     6    2    4 1
     7    4    9 1
     8    4    5 1
     9    4   31 1
    10    5    6 1
    11    5   38 1
    12    5   39 1
    13    6    7 1
    14    6   40 1
    15    6   41 1
    16    7    8 1
    17    7   14 1
    18    7    9 1
    19    9   10 1
    20    9   30 1
    21   10   11 1
    22   10   42 1
    23   10   43 1
    24   11   12 1
    25   11   44 1
    26   11   45 1
    27   12   13 1
    28   12   27 1
    29   12   14 1
    30   14   15 1
    31   14   16 1
    32   16   17 2
    33   16   46 1
    34   17   18 1
    35   17   29 1
    36   18   27 1
    37   18   19 2
    38   19   20 1
    39   19   47 1
    40   20   21 2
    41   20   22 1
    42   22   23 1
    43   22   25 1
    44   22   24 1
    45   24   25 1
    46   24   48 1
    47   24   49 1
    48   25   26 1
    49   25   27 1
    50   27   28 1
    51   28   50 1
    52   28   51 1
    53   28   52 1
    54   30   53 1
    55   30   54 1
    56   30   55 1
    57   31   32 1
    58   32   33 2
    59   32   34 1
    60   34   56 1
    61   34   57 1
    62   34   58 1
@<TRIPOS>MOLECULE
ZINC03978021
   58    62     0     0     0
SMALL
USER_CHARGES

@<TRIPOS>ATOM
      1 C1         -0.3091    1.0816    0.1209 C.3       1 <0>        -0.2094
      2 C2          0.5017   -0.1449   -0.2094 C.2       1 <0>         0.3567
      3 O1          1.4760   -0.4200    0.4489 O.2       1 <0>        -0.4329
      4 C3          0.0973   -1.0271   -1.3599 C.3       1 <0>         0.0801
      5 C4          1.3094   -1.8572   -1.8580 C.3       1 <0>        -0.1324
      6 C5          0.8703   -3.3505   -1.7944 C.3       1 <0>        -0.1179
      7 C6         -0.6564   -3.2248   -1.8835 C.3       1 <0>        -0.0744
      8 H1         -0.8994   -2.8653   -2.9030 H         1 <0>         0.0880
      9 C7         -0.9220   -2.0751   -0.8880 C.3       1 <0>        -0.0339
     10 C8         -2.3786   -1.6817   -0.9828 C.3       1 <0>        -0.1055
     11 C9         -3.2337   -2.9055   -0.5949 C.3       1 <0>        -0.1129
     12 C10        -2.9658   -4.0751   -1.5284 C.3       1 <0>        -0.0594
     13 H2         -3.2487   -3.7294   -2.5454 H         1 <0>         0.0857
     14 C11        -1.4842   -4.4409   -1.6080 C.3       1 <0>        -0.0389
     15 H3         -1.3817   -5.0985   -2.5024 H         1 <0>         0.0866
     16 C12        -1.0263   -5.2619   -0.4388 C.2       1 <0>        -0.0857
     17 C13        -1.7984   -6.3122   -0.0811 C.2       1 <0>        -0.0828
     18 C14        -3.0369   -6.4921   -0.8640 C.2       1 <0>         0.0306
     19 C15        -3.3854   -7.7534   -1.1968 C.2       1 <0>        -0.2237
     20 C16        -4.4940   -8.0609   -1.9952 C.2       1 <0>         0.4177
     21 O2         -4.8821   -9.2053   -2.0996 O.2       1 <0>        -0.4491
     22 C17        -5.1888   -6.9520   -2.7471 C.3       1 <0>        -0.2077
     23 H4         -6.2145   -7.1517   -3.0494 H         1 <0>         0.1327
     24 C18        -4.3195   -6.1017   -3.6803 C.3       1 <0>        -0.1459
     25 C19        -4.8229   -5.5225   -2.3599 C.3       1 <0>        -0.1187
     26 H5         -5.6190   -4.7810   -2.4243 H         1 <0>         0.1254
     27 C20        -3.8325   -5.2846   -1.2330 C.3       1 <0>         0.0070
     28 C21        -4.6999   -4.9833   -0.0051 C.3       1 <0>        -0.1465
     29 Cl1        -1.3559   -7.3810    1.2220 Cl        1 <0>        -0.0533
     30 C22        -0.5680   -2.4501    0.5520 C.3       1 <0>        -0.1582
     31 O3         -0.4493   -0.2513   -2.4245 O.3       1 <0>        -0.3262
     32 C23         0.3365    0.7018   -2.9498 C.2       1 <0>         0.4518
     33 O4          1.4735    0.8292   -2.5614 O.2       1 <0>        -0.5010
     34 C24        -0.1995    1.6129   -4.0239 C.3       1 <0>        -0.1481
     35 H6          0.1355    1.9519   -0.3617 H         1 <0>         0.0950
     36 H7         -1.3301    0.9495   -0.2372 H         1 <0>         0.0885
     37 H8         -0.3193    1.2305    1.2007 H         1 <0>         0.0927
     38 H9          1.5497   -1.5855   -2.8854 H         1 <0>         0.0771
     39 H10         2.1684   -1.6926   -1.2108 H         1 <0>         0.0933
     40 H11         1.2568   -3.8919   -2.6609 H         1 <0>         0.0745
     41 H12         1.1932   -3.8205   -0.8746 H         1 <0>         0.0788
     42 H13        -2.5941   -0.8597   -0.2994 H         1 <0>         0.0702
     43 H14        -2.6233   -1.3834   -2.0037 H         1 <0>         0.0797
     44 H15        -3.0300   -3.1650    0.4355 H         1 <0>         0.0741
     45 H16        -4.2793   -2.5919   -0.6965 H         1 <0>         0.0734
     46 H17        -0.1057   -5.0495    0.0936 H         1 <0>         0.1395
     47 H18        -2.7773   -8.5634   -0.8251 H         1 <0>         0.1381
     48 H19        -3.2620   -6.3559   -3.7513 H         1 <0>         0.1009
     49 H20        -4.7781   -5.7366   -4.5996 H         1 <0>         0.1114
     50 H21        -5.3306   -4.1180   -0.2093 H         1 <0>         0.0741
     51 H22        -5.3277   -5.8462    0.2169 H         1 <0>         0.0599
     52 H23        -4.0580   -4.7713    0.8500 H         1 <0>         0.0659
     53 H24        -0.7329   -1.5910    1.2022 H         1 <0>         0.0593
     54 H25        -1.1981   -3.2781    0.8772 H         1 <0>         0.0777
     55 H26         0.4791   -2.7486    0.6029 H         1 <0>         0.0701
     56 H27        -1.2344    1.3488   -4.2413 H         1 <0>         0.0936
     57 H28        -0.1528    2.6463   -3.6803 H         1 <0>         0.1073
     58 H29         0.4011    1.5027   -4.9268 H         1 <0>         0.1069
@<TRIPOS>BOND
     1    1    2 1
     2    1   35 1
     3    1   36 1
     4    1   37 1
     5    2    3 2
     6    2    4 1
     7    4    9 1
     8    4    5 1
     9    4   31 1
    10    5    6 1
    11    5   38 1
    12    5   39 1
    13    6    7 1
    14    6   40 1
    15    6   41 1
    16    7    8 1
    17    7   14 1
    18    7    9 1
    19    9   10 1
    20    9   30 1
    21   10   11 1
    22   10   42 1
    23   10   43 1
    24   11   12 1
    25   11   44 1
    26   11   45 1
    27   12   13 1
    28   12   27 1
    29   12   14 1
    30   14   15 1
    31   14   16 1
    32   16   17 2
    33   16   46 1
    34   17   18 1
    35   17   29 1
    36   18   27 1
    37   18   19 2
    38   19   20 1
    39   19   47 1
    40   20   21 2
    41   20   22 1
    42   22   23 1
    43   22   25 1
    44   22   24 1
    45   24   25 1
    46   24   48 1
    47   24   49 1
    48   25   26 1
    49   25   27 1
    50   27   28 1
    51   28   50 1
    52   28   51 1
    53   28   52 1
    54   30   53 1
    55   30   54 1
    56   30   55 1
    57   31   32 1
    58   32   33 2
    59   32   34 1
    60   34   56 1
    61   34   57 1
    62   34   58 1
@<TRIPOS>MOLECULE
ZINC03978022
   58    62     0     0     0
SMALL
USER_CHARGES

@<TRIPOS>ATOM
      1 C1         -0.3508    1.0732    0.1724 C.3       1 <0>        -0.2098
      2 C2          0.4694   -0.1515   -0.1413 C.2       1 <0>         0.3551
      3 O1          1.4143   -0.4396    0.5533 O.2       1 <0>        -0.4336
      4 C3          0.1094   -1.0194   -1.3254 C.3       1 <0>         0.0895
      5 C4          1.3607   -1.7918   -1.7962 C.3       1 <0>        -0.1323
      6 C5          1.0834   -3.2841   -1.5115 C.3       1 <0>        -0.1276
      7 C6         -0.4695   -3.3924   -1.5639 C.3       1 <0>        -0.0698
      8 H1         -0.8088   -4.2649   -0.9952 H         1 <0>         0.0995
      9 C7         -0.9088   -2.0789   -0.9017 C.3       1 <0>        -0.0240
     10 C8         -2.3477   -1.7195   -1.1676 C.3       1 <0>        -0.1027
     11 C9         -2.7374   -1.8047   -2.6340 C.3       1 <0>        -0.1035
     12 C10        -2.3235   -3.1088   -3.2866 C.3       1 <0>        -0.0621
     13 H2         -2.3718   -2.8961   -4.3890 H         1 <0>         0.0656
     14 C11        -0.8741   -3.4602   -3.0312 C.3       1 <0>        -0.0353
     15 H3         -0.2551   -2.7235   -3.5805 H         1 <0>         0.0951
     16 C12        -0.5266   -4.8164   -3.5818 C.2       1 <0>        -0.0918
     17 C13        -1.4245   -5.7000   -3.9974 C.2       1 <0>        -0.0645
     18 C14        -2.8665   -5.4219   -3.9119 C.2       1 <0>         0.0240
     19 C15        -3.7189   -6.2317   -4.5677 C.2       1 <0>        -0.2278
     20 C16        -5.1066   -6.0416   -4.5896 C.2       1 <0>         0.4189
     21 O2         -5.8392   -6.9033   -5.0257 O.2       1 <0>        -0.4496
     22 C17        -5.6773   -4.7396   -4.0829 C.3       1 <0>        -0.2092
     23 H4         -6.7182   -4.7670   -3.7686 H         1 <0>         0.1325
     24 C18        -5.1618   -3.4591   -4.7494 C.3       1 <0>        -0.1442
     25 C19        -4.7269   -3.8139   -3.3317 C.3       1 <0>        -0.1161
     26 H5         -5.1667   -3.2239   -2.5264 H         1 <0>         0.1244
     27 C20        -3.2969   -4.2486   -3.0742 C.3       1 <0>         0.0157
     28 C21        -3.2599   -4.7240   -1.6198 C.3       1 <0>        -0.1530
     29 Cl1        -0.8841   -7.2155   -4.6531 Cl        1 <0>        -0.0643
     30 C22        -0.7679   -2.2657    0.6242 C.3       1 <0>        -0.1660
     31 O3         -0.3908   -0.2036   -2.3833 O.3       1 <0>        -0.3241
     32 C23         0.4271    0.7496   -2.8568 C.2       1 <0>         0.4504
     33 O4          1.5555    0.8416   -2.4348 O.2       1 <0>        -0.5004
     34 C24        -0.0621    1.7049   -3.9146 C.3       1 <0>        -0.1487
     35 H6          0.1159    1.9485   -0.2794 H         1 <0>         0.0946
     36 H7         -1.3565    0.9496   -0.2293 H         1 <0>         0.0892
     37 H8         -0.4050    1.2072    1.2528 H         1 <0>         0.0925
     38 H9          1.5205   -1.6332   -2.8610 H         1 <0>         0.0764
     39 H10         2.2338   -1.4608   -1.2328 H         1 <0>         0.0914
     40 H11         1.5361   -3.9066   -2.2860 H         1 <0>         0.0753
     41 H12         1.4641   -3.5705   -0.5328 H         1 <0>         0.0778
     42 H13        -3.0024   -2.3455   -0.5623 H         1 <0>         0.0760
     43 H14        -2.5080   -0.6821   -0.8300 H         1 <0>         0.0657
     44 H15        -3.8278   -1.6930   -2.7185 H         1 <0>         0.0720
     45 H16        -2.2941   -0.9699   -3.1875 H         1 <0>         0.0806
     46 H17         0.5194   -5.0894   -3.6464 H         1 <0>         0.1301
     47 H18        -3.3135   -7.0746   -5.1071 H         1 <0>         0.1402
     48 H19        -4.4294   -3.5702   -5.5489 H         1 <0>         0.1010
     49 H20        -5.8707   -2.6393   -4.8731 H         1 <0>         0.1112
     50 H21        -3.5323   -3.8995   -0.9610 H         1 <0>         0.0761
     51 H22        -3.9663   -5.5435   -1.4873 H         1 <0>         0.0600
     52 H23        -2.2548   -5.0676   -1.3753 H         1 <0>         0.0667
     53 H24        -1.0787   -1.3528    1.1322 H         1 <0>         0.0604
     54 H25        -1.3975   -3.0943    0.9485 H         1 <0>         0.0739
     55 H26         0.2719   -2.4820    0.8693 H         1 <0>         0.0713
     56 H27        -1.0956    1.4687   -4.1676 H         1 <0>         0.0937
     57 H28        -0.0047    2.7257   -3.5369 H         1 <0>         0.1071
     58 H29         0.5603    1.6113   -4.8046 H         1 <0>         0.1066
@<TRIPOS>BOND
     1    1    2 1
     2    1   35 1
     3    1   36 1
     4    1   37 1
     5    2    3 2
     6    2    4 1
     7    4    9 1
     8    4    5 1
     9    4   31 1
    10    5    6 1
    11    5   38 1
    12    5   39 1
    13    6    7 1
    14    6   40 1
    15    6   41 1
    16    7    8 1
    17    7   14 1
    18    7    9 1
    19    9   10 1
    20    9   30 1
    21   10   11 1
    22   10   42 1
    23   10   43 1
    24   11   12 1
    25   11   44 1
    26   11   45 1
    27   12   13 1
    28   12   27 1
    29   12   14 1
    30   14   15 1
    31   14   16 1
    32   16   17 2
    33   16   46 1
    34   17   18 1
    35   17   29 1
    36   18   27 1
    37   18   19 2
    38   19   20 1
    39   19   47 1
    40   20   21 2
    41   20   22 1
    42   22   23 1
    43   22   25 1
    44   22   24 1
    45   24   25 1
    46   24   48 1
    47   24   49 1
    48   25   26 1
    49   25   27 1
    50   27   28 1
    51   28   50 1
    52   28   51 1
    53   28   52 1
    54   30   53 1
    55   30   54 1
    56   30   55 1
    57   31   32 1
    58   32   33 2
    59   32   34 1
    60   34   56 1
    61   34   57 1
    62   34   58 1
@<TRIPOS>MOLECULE
ZINC03875332
   57    60     0     0     0
SMALL
USER_CHARGES

@<TRIPOS>ATOM
      1 C1          1.7167    1.2309    1.5187 C.3       1 <0>        -0.1455
      2 C2          1.3454   -0.1868    1.0794 C.3       1 <0>        -0.1160
      3 H1          2.1316   -0.6004    0.4477 H         1 <0>         0.0891
      4 C3         -0.0035   -0.1703    0.3097 C.3       1 <0>        -0.1065
      5 C4         -1.0253   -0.5076    1.4012 C.3       1 <0>        -0.0810
      6 H2         -1.1939    0.3572    2.0429 H         1 <0>         0.0898
      7 C5         -2.3489   -1.0698    0.9157 C.3       1 <0>        -0.1006
      8 H3         -2.1727   -1.9725    0.3308 H         1 <0>         0.1130
      9 C6         -3.0706   -0.0302    0.0559 C.3       1 <0>        -0.1154
     10 C7         -4.3873   -0.6154   -0.4645 C.3       1 <0>        -0.0951
     11 C8         -5.1933   -1.0974    0.7271 C.2       1 <0>        -0.0294
     12 C9         -6.4507   -0.6977    0.8564 C.2       1 <0>        -0.2208
     13 C10        -7.2574   -1.1277    2.0090 C.2       1 <0>         0.4077
     14 O1         -8.4233   -0.7949    2.1114 O.2       1 <0>        -0.4562
     15 C11        -6.6219   -1.9706    3.0360 C.2       1 <0>        -0.2091
     16 C12        -5.3670   -2.3631    2.8829 C.2       1 <0>        -0.0691
     17 C13        -4.5212   -2.0131    1.7070 C.3       1 <0>        -0.0316
     18 C14        -3.1875   -1.4118    2.1576 C.3       1 <0>         0.1617
     19 C15        -2.4590   -2.3846    3.0797 C.3       1 <0>         0.0883
     20 H4         -3.0477   -2.5237    3.9864 H         1 <0>         0.0725
     21 C16        -1.0633   -1.8673    3.4626 C.3       1 <0>        -0.1275
     22 C17        -0.2906   -1.6287    2.1842 C.3       1 <0>        -0.0389
     23 C18         1.1308   -1.0889    2.3202 C.3       1 <0>         0.1101
     24 C19         2.1234   -2.2228    2.3194 C.2       1 <0>         0.3354
     25 O2          2.5416   -2.6584    1.2736 O.2       1 <0>        -0.4125
     26 C20         2.5942   -2.8131    3.6236 C.3       1 <0>         0.0292
     27 O3          3.5247   -3.8656    3.3618 O.3       1 <0>        -0.5557
     28 O4          1.2564   -0.3206    3.5186 O.3       1 <0>        -0.5365
     29 C21        -0.2826   -2.9176    1.3599 C.3       1 <0>        -0.1713
     30 O5         -2.3223   -3.6426    2.4156 O.3       1 <0>        -0.5409
     31 F1         -3.4514   -0.2383    2.8722 F         1 <0>        -0.1921
     32 C22        -4.1781   -3.3115    0.9740 C.3       1 <0>        -0.1371
     33 H5          2.6440    1.2029    2.0910 H         1 <0>         0.0522
     34 H6          1.8515    1.8603    0.6390 H         1 <0>         0.0629
     35 H7          0.9191    1.6397    2.1391 H         1 <0>         0.0692
     36 H8         -0.1972    0.8177   -0.1080 H         1 <0>         0.0758
     37 H9         -0.0104   -0.9291   -0.4728 H         1 <0>         0.0749
     38 H10        -3.2795    0.8552    0.6564 H         1 <0>         0.0744
     39 H11        -2.4377    0.2454   -0.7876 H         1 <0>         0.0816
     40 H12        -4.9453    0.1528   -0.9998 H         1 <0>         0.0846
     41 H13        -4.1799   -1.4524   -1.1313 H         1 <0>         0.0881
     42 H14        -6.8864   -0.0507    0.1094 H         1 <0>         0.1389
     43 H15        -7.1785   -2.2675    3.9126 H         1 <0>         0.1407
     44 H16        -4.9291   -2.9744    3.6581 H         1 <0>         0.1272
     45 H17        -1.1524   -0.9285    4.0092 H         1 <0>         0.0906
     46 H18        -0.5482   -2.6072    4.0751 H         1 <0>         0.0741
     47 H19         3.0790   -2.0392    4.2187 H         1 <0>         0.0812
     48 H20         1.7401   -3.2112    4.1715 H         1 <0>         0.0812
     49 H21         3.8701   -4.2922    4.1579 H         1 <0>         0.3864
     50 H22         2.1272    0.0825    3.6379 H         1 <0>         0.3793
     51 H23         0.3951   -2.8035    0.5138 H         1 <0>         0.0588
     52 H24         0.0519   -3.7461    1.9842 H         1 <0>         0.0516
     53 H25        -1.2891   -3.1213    0.9944 H         1 <0>         0.1113
     54 H26        -1.8675   -4.3164    2.9393 H         1 <0>         0.3771
     55 H27        -3.2905   -3.1585    0.3600 H         1 <0>         0.0769
     56 H28        -3.9848   -4.0995    1.7019 H         1 <0>         0.0989
     57 H29        -5.0143   -3.6016    0.3379 H         1 <0>         0.0541
@<TRIPOS>BOND
     1    1    2 1
     2    1   33 1
     3    1   34 1
     4    1   35 1
     5    2    3 1
     6    2   23 1
     7    2    4 1
     8    4    5 1
     9    4   36 1
    10    4   37 1
    11    5    6 1
    12    5   22 1
    13    5    7 1
    14    7    8 1
    15    7   18 1
    16    7    9 1
    17    9   10 1
    18    9   38 1
    19    9   39 1
    20   10   11 1
    21   10   40 1
    22   10   41 1
    23   11   17 1
    24   11   12 2
    25   12   13 1
    26   12   42 1
    27   13   14 2
    28   13   15 1
    29   15   16 2
    30   15   43 1
    31   16   17 1
    32   16   44 1
    33   17   18 1
    34   17   32 1
    35   18   19 1
    36   18   31 1
    37   19   20 1
    38   19   21 1
    39   19   30 1
    40   21   22 1
    41   21   45 1
    42   21   46 1
    43   22   23 1
    44   22   29 1
    45   23   24 1
    46   23   28 1
    47   24   25 2
    48   24   26 1
    49   26   27 1
    50   26   47 1
    51   26   48 1
    52   27   49 1
    53   28   50 1
    54   29   51 1
    55   29   52 1
    56   29   53 1
    57   30   54 1
    58   32   55 1
    59   32   56 1
    60   32   57 1
@<TRIPOS>MOLECULE
ZINC06161074
   56    59     0     0     0
SMALL
USER_CHARGES
5-benzyl-6-(4-benzyl-1-piperidyl)-3-methyl-1H-pyrimidine-2,4-dione
@<TRIPOS>ATOM
      1 C1          5.2070   -1.8632   -5.4307 C.3       1 <0>         0.0779
      2 N1          4.3983   -1.4206   -4.2921 N.am      1 <0>        -0.5553
      3 C2          4.9716   -1.2779   -3.0810 C.2       1 <0>         0.5543
      4 O1          6.1580   -1.5157   -2.9321 O.2       1 <0>        -0.5017
      5 C3          4.1958   -0.8474   -1.9932 C.2       1 <0>        -0.2241
      6 C4          2.8662   -0.5934   -2.1851 C.2       1 <0>         0.3625
      7 N2          2.3227   -0.7531   -3.4366 N.am      1 <0>        -0.6609
      8 H1          1.3809   -0.5707   -3.5802 H         1 <0>         0.4282
      9 C5          3.0895   -1.1606   -4.4646 C.2       1 <0>         0.7012
     10 O2          2.5921   -1.2962   -5.5657 O.2       1 <0>        -0.5405
     11 N3          2.0832   -0.1777   -1.1387 N.pl3     1 <0>        -0.4816
     12 C6          0.8170   -0.9204   -1.1014 C.3       1 <0>         0.0466
     13 C7          0.0353   -0.5357    0.1568 C.3       1 <0>        -0.1100
     14 C8         -0.2356    0.9713    0.1426 C.3       1 <0>        -0.0848
     15 C9          1.0969    1.7206    0.0547 C.3       1 <0>        -0.1128
     16 C10         1.8478    1.2705   -1.2006 C.3       1 <0>         0.0527
     17 C11        -0.9637    1.3720    1.4272 C.3       1 <0>        -0.0755
     18 C12        -1.3384    2.8301    1.3583 C.ar      1 <0>        -0.0812
     19 C13        -0.4660    3.7912    1.8337 C.ar      1 <0>        -0.1168
     20 C14        -0.8079    5.1289    1.7665 C.ar      1 <0>        -0.1183
     21 C15        -2.0263    5.5049    1.2325 C.ar      1 <0>        -0.1244
     22 C16        -2.9007    4.5434    0.7614 C.ar      1 <0>        -0.1180
     23 C17        -2.5570    3.2060    0.8247 C.ar      1 <0>        -0.1188
     24 C18         4.8183   -0.6738   -0.6318 C.3       1 <0>         0.0033
     25 C19         4.8236   -1.9964    0.0905 C.ar      1 <0>        -0.0765
     26 C20         3.7516   -2.3531    0.8872 C.ar      1 <0>        -0.1073
     27 C21         3.7543   -3.5684    1.5459 C.ar      1 <0>        -0.1269
     28 C22         4.8334   -4.4226    1.4160 C.ar      1 <0>        -0.1239
     29 C23         5.9078   -4.0634    0.6239 C.ar      1 <0>        -0.1237
     30 C24         5.9028   -2.8503   -0.0390 C.ar      1 <0>        -0.1069
     31 H2          4.5803   -1.9214   -6.3207 H         1 <0>         0.1002
     32 H3          6.0147   -1.1514   -5.6012 H         1 <0>         0.0814
     33 H4          5.6275   -2.8459   -5.2175 H         1 <0>         0.0810
     34 H5          1.0239   -1.9905   -1.0873 H         1 <0>         0.0894
     35 H6          0.2267   -0.6762   -1.9845 H         1 <0>         0.0441
     36 H7          0.6193   -0.7921    1.0407 H         1 <0>         0.0809
     37 H8         -0.9115   -1.0754    0.1770 H         1 <0>         0.0779
     38 H9         -0.8524    1.2224   -0.7203 H         1 <0>         0.0718
     39 H10         0.9085    2.7929    0.0011 H         1 <0>         0.0807
     40 H11         1.6976    1.4996    0.9369 H         1 <0>         0.0798
     41 H12         2.8033    1.7916   -1.2586 H         1 <0>         0.0901
     42 H13         1.2526    1.5043   -2.0833 H         1 <0>         0.0466
     43 H14        -1.8656    0.7698    1.5366 H         1 <0>         0.0743
     44 H15        -0.3094    1.2051    2.2829 H         1 <0>         0.0762
     45 H16         0.4841    3.4972    2.2547 H         1 <0>         0.1218
     46 H17        -0.1246    5.8801    2.1342 H         1 <0>         0.1214
     47 H18        -2.2949    6.5498    1.1830 H         1 <0>         0.1204
     48 H19        -3.8526    4.8372    0.3442 H         1 <0>         0.1207
     49 H20        -3.2403    2.4549    0.4570 H         1 <0>         0.1195
     50 H21         5.8420   -0.3166   -0.7433 H         1 <0>         0.0853
     51 H22         4.2410    0.0513   -0.0581 H         1 <0>         0.0935
     52 H23         2.9104   -1.6839    0.9919 H         1 <0>         0.1264
     53 H24         2.9150   -3.8489    2.1650 H         1 <0>         0.1177
     54 H25         4.8371   -5.3705    1.9336 H         1 <0>         0.1174
     55 H26         6.7510   -4.7306    0.5227 H         1 <0>         0.1186
     56 H27         6.7423   -2.5697   -0.6578 H         1 <0>         0.1262
@<TRIPOS>BOND
     1    1    2 1
     2    1   31 1
     3    1   32 1
     4    1   33 1
     5    2    9 am
     6    2    3 am
     7    3    4 2
     8    3    5 1
     9    5    6 2
    10    5   24 1
    11    6    7 1
    12    6   11 1
    13    7    8 1
    14    7    9 am
    15    9   10 2
    16   11   16 1
    17   11   12 1
    18   12   13 1
    19   12   34 1
    20   12   35 1
    21   13   14 1
    22   13   36 1
    23   13   37 1
    24   14   15 1
    25   14   17 1
    26   14   38 1
    27   15   16 1
    28   15   39 1
    29   15   40 1
    30   16   41 1
    31   16   42 1
    32   17   18 1
    33   17   43 1
    34   17   44 1
    35   18   23 ar
    36   18   19 ar
    37   19   20 ar
    38   19   45 1
    39   20   21 ar
    40   20   46 1
    41   21   22 ar
    42   21   47 1
    43   22   23 ar
    44   22   48 1
    45   23   49 1
    46   24   25 1
    47   24   50 1
    48   24   51 1
    49   25   30 ar
    50   25   26 ar
    51   26   27 ar
    52   26   52 1
    53   27   28 ar
    54   27   53 1
    55   28   29 ar
    56   28   54 1
    57   29   30 ar
    58   29   55 1
    59   30   56 1
@<TRIPOS>MOLECULE
ZINC19132424
   51    54     0     0     0
SMALL
USER_CHARGES

@<TRIPOS>ATOM
      1 C1         -0.6973    1.6727    0.0117 C.3       1 <0>        -0.1349
      2 C2         -0.4090    0.1941   -0.0301 C.2       1 <0>        -0.0497
      3 C3         -1.4126   -0.6834    0.0318 C.2       1 <0>        -0.2144
      4 C4         -2.8557   -0.3722    0.1362 C.2       1 <0>         0.3900
      5 O1         -3.3524    0.7347    0.1227 O.2       1 <0>        -0.4439
      6 C5         -3.6080   -1.6977    0.2632 C.3       1 <0>        -0.1661
      7 C6         -2.5362   -2.6363    0.8312 C.3       1 <0>        -0.0773
      8 H1         -2.3869   -2.4553    1.8956 H         1 <0>         0.0851
      9 C7         -1.3003   -2.1771    0.0028 C.3       1 <0>        -0.0262
     10 C8         -0.0773   -2.7994    0.6443 C.3       1 <0>        -0.1011
     11 C9         -0.2013   -4.3216    0.4683 C.3       1 <0>        -0.1224
     12 C10        -1.4951   -4.8584    1.0727 C.3       1 <0>        -0.0696
     13 H2         -1.4592   -4.7327    2.1549 H         1 <0>         0.0710
     14 C11        -2.7377   -4.1160    0.5601 C.3       1 <0>        -0.0767
     15 H3         -2.8379   -4.2889   -0.5114 H         1 <0>         0.0891
     16 C12        -3.9811   -4.6127    1.3039 C.3       1 <0>        -0.1134
     17 C13        -4.2108   -6.0881    0.9697 C.3       1 <0>        -0.0978
     18 C14        -2.9495   -6.8664    1.2970 C.2       1 <0>        -0.0223
     19 C15        -3.0786   -7.9832    2.0130 C.2       1 <0>        -0.2411
     20 C16        -1.8951   -8.7838    2.3446 C.2       1 <0>         0.3878
     21 O2         -1.8907   -9.5620    3.2755 O.2       1 <0>        -0.4575
     22 C17        -0.6776   -8.5877    1.4623 C.3       1 <0>        -0.1674
     23 C18        -0.4285   -7.0839    1.3553 C.3       1 <0>        -0.1071
     24 C19        -1.6193   -6.3524    0.7491 C.3       1 <0>        -0.0237
     25 C20        -1.5884   -6.5091   -0.7725 C.3       1 <0>        -0.1480
     26 C21        -1.4281   -2.6754   -1.4382 C.3       1 <0>        -0.1484
     27 H4          0.2391    2.2273   -0.0497 H         1 <0>         0.0660
     28 H5         -1.3352    1.9425   -0.8299 H         1 <0>         0.0781
     29 H6         -1.2042    1.9178    0.9450 H         1 <0>         0.0765
     30 H7          0.6097   -0.1554   -0.1101 H         1 <0>         0.1253
     31 H8         -4.4451   -1.6027    0.9548 H         1 <0>         0.0926
     32 H9         -3.9483   -2.0445   -0.7125 H         1 <0>         0.1056
     33 H10         0.8252   -2.4403    0.1497 H         1 <0>         0.0670
     34 H11        -0.0459   -2.5491    1.7047 H         1 <0>         0.0670
     35 H12        -0.1810   -4.5590   -0.5953 H         1 <0>         0.0765
     36 H13         0.6455   -4.8055    0.9550 H         1 <0>         0.0677
     37 H14        -3.8316   -4.5016    2.3779 H         1 <0>         0.0673
     38 H15        -4.8482   -4.0297    0.9937 H         1 <0>         0.0732
     39 H16        -5.0411   -6.4719    1.5624 H         1 <0>         0.0776
     40 H17        -4.4386   -6.1911   -0.0913 H         1 <0>         0.0846
     41 H18        -4.0553   -8.2990    2.3489 H         1 <0>         0.1339
     42 H19         0.1877   -9.0756    1.9111 H         1 <0>         0.0924
     43 H20        -0.8665   -9.0034    0.4726 H         1 <0>         0.0998
     44 H21        -0.2033   -6.6895    2.3461 H         1 <0>         0.0716
     45 H22         0.4270   -6.9109    0.7024 H         1 <0>         0.0807
     46 H23        -0.6479   -6.1165   -1.1592 H         1 <0>         0.0711
     47 H24        -1.6753   -7.5644   -1.0310 H         1 <0>         0.0593
     48 H25        -2.4200   -5.9579   -1.2115 H         1 <0>         0.0647
     49 H26        -0.5748   -2.3270   -2.0201 H         1 <0>         0.0577
     50 H27        -1.4520   -3.7651   -1.4450 H         1 <0>         0.0744
     51 H28        -2.3485   -2.2890   -1.8759 H         1 <0>         0.0550
@<TRIPOS>BOND
     1    1    2 1
     2    1   27 1
     3    1   28 1
     4    1   29 1
     5    2    3 2
     6    2   30 1
     7    3    9 1
     8    3    4 1
     9    4    5 2
    10    4    6 1
    11    6    7 1
    12    6   31 1
    13    6   32 1
    14    7    8 1
    15    7   14 1
    16    7    9 1
    17    9   10 1
    18    9   26 1
    19   10   11 1
    20   10   33 1
    21   10   34 1
    22   11   12 1
    23   11   35 1
    24   11   36 1
    25   12   13 1
    26   12   24 1
    27   12   14 1
    28   14   15 1
    29   14   16 1
    30   16   17 1
    31   16   37 1
    32   16   38 1
    33   17   18 1
    34   17   39 1
    35   17   40 1
    36   18   24 1
    37   18   19 2
    38   19   20 1
    39   19   41 1
    40   20   21 2
    41   20   22 1
    42   22   23 1
    43   22   42 1
    44   22   43 1
    45   23   24 1
    46   23   44 1
    47   23   45 1
    48   24   25 1
    49   25   46 1
    50   25   47 1
    51   25   48 1
    52   26   49 1
    53   26   50 1
    54   26   51 1
@<TRIPOS>MOLECULE
ZINC19132424
   51    54     0     0     0
SMALL
USER_CHARGES

@<TRIPOS>ATOM
      1 C1          0.2301    1.0229    0.1380 C.3       1 <0>        -0.1408
      2 C2         -0.0191   -0.4599    0.0369 C.2       1 <0>        -0.0517
      3 C3         -1.2693   -0.9247   -0.0107 C.2       1 <0>        -0.2128
      4 C4         -1.6839   -2.3424   -0.1033 C.2       1 <0>         0.3918
      5 O1         -0.9470   -3.3062   -0.0914 O.2       1 <0>        -0.4480
      6 C5         -3.2088   -2.3732   -0.2159 C.3       1 <0>        -0.1655
      7 C6         -3.5290   -0.9869   -0.7886 C.3       1 <0>        -0.0776
      8 H1         -3.3086   -0.9477   -1.8554 H         1 <0>         0.0851
      9 C7         -2.5288   -0.1143    0.0256 C.3       1 <0>        -0.0248
     10 C8         -2.4996    1.2538   -0.6238 C.3       1 <0>        -0.1131
     11 C9         -3.8954    1.8708   -0.4382 C.3       1 <0>        -0.1230
     12 C10        -4.9892    0.9855   -1.0275 C.3       1 <0>        -0.0696
     13 H2         -4.8717    0.9513   -2.1106 H         1 <0>         0.0707
     14 C11        -4.9234   -0.4578   -0.5074 C.3       1 <0>        -0.0764
     15 H3         -5.1131   -0.4575    0.5660 H         1 <0>         0.0891
     16 C12        -5.9593   -1.3185   -1.2367 C.3       1 <0>        -0.1135
     17 C13        -7.3628   -0.8159   -0.8921 C.3       1 <0>        -0.0978
     18 C14        -7.4496    0.6619   -1.2269 C.2       1 <0>        -0.0222
     19 C15        -8.4997    1.0764   -1.9354 C.2       1 <0>        -0.2412
     20 C16        -8.6431    2.4965   -2.2736 C.2       1 <0>         0.3878
     21 O2         -9.3340    2.8659   -3.2001 O.2       1 <0>        -0.4575
     22 C17        -7.8826    3.4785   -1.4039 C.3       1 <0>        -0.1675
     23 C18        -6.4407    2.9818   -1.3075 C.3       1 <0>        -0.1069
     24 C19        -6.3589    1.5897   -0.6944 C.3       1 <0>        -0.0237
     25 C20        -6.4677    1.7000    0.8278 C.3       1 <0>        -0.1479
     26 C21        -3.0143    0.0187    1.4704 C.3       1 <0>        -0.1486
     27 H4          1.3036    1.2099    0.1649 H         1 <0>         0.0671
     28 H5         -0.2044    1.5242   -0.7269 H         1 <0>         0.0852
     29 H6         -0.2285    1.4071    1.0491 H         1 <0>         0.0776
     30 H7          0.8139   -1.1465    0.0029 H         1 <0>         0.1231
     31 H8         -3.5304   -3.1583   -0.9002 H         1 <0>         0.0932
     32 H9         -3.6666   -2.5018    0.7649 H         1 <0>         0.1063
     33 H10        -1.7494    1.8791   -0.1397 H         1 <0>         0.0801
     34 H11        -2.2745    1.1564   -1.6859 H         1 <0>         0.0665
     35 H12        -4.0845    2.0077    0.6265 H         1 <0>         0.0762
     36 H13        -3.9221    2.8432   -0.9301 H         1 <0>         0.0674
     37 H14        -5.8005   -1.2461   -2.3127 H         1 <0>         0.0672
     38 H15        -5.8567   -2.3570   -0.9217 H         1 <0>         0.0731
     39 H16        -8.1012   -1.3664   -1.4750 H         1 <0>         0.0775
     40 H17        -7.5519   -0.9613    0.1714 H         1 <0>         0.0846
     41 H18        -9.2457    0.3662   -2.2604 H         1 <0>         0.1339
     42 H19        -7.9037    4.4692   -1.8580 H         1 <0>         0.0923
     43 H20        -8.3287    3.5159   -0.4101 H         1 <0>         0.0998
     44 H21        -5.9959    2.9865   -2.3027 H         1 <0>         0.0715
     45 H22        -5.8750    3.6553   -0.6637 H         1 <0>         0.0807
     46 H23        -5.6711    2.3421    1.2034 H         1 <0>         0.0711
     47 H24        -7.4346    2.1278    1.0929 H         1 <0>         0.0591
     48 H25        -6.3750    0.7087    1.2714 H         1 <0>         0.0647
     49 H26        -2.2962    0.6063    2.0424 H         1 <0>         0.0575
     50 H27        -3.9838    0.5167    1.4836 H         1 <0>         0.0749
     51 H28        -3.1088   -0.9722    1.9146 H         1 <0>         0.0550
@<TRIPOS>BOND
     1    1    2 1
     2    1   27 1
     3    1   28 1
     4    1   29 1
     5    2    3 2
     6    2   30 1
     7    3    9 1
     8    3    4 1
     9    4    5 2
    10    4    6 1
    11    6    7 1
    12    6   31 1
    13    6   32 1
    14    7    8 1
    15    7   14 1
    16    7    9 1
    17    9   10 1
    18    9   26 1
    19   10   11 1
    20   10   33 1
    21   10   34 1
    22   11   12 1
    23   11   35 1
    24   11   36 1
    25   12   13 1
    26   12   24 1
    27   12   14 1
    28   14   15 1
    29   14   16 1
    30   16   17 1
    31   16   37 1
    32   16   38 1
    33   17   18 1
    34   17   39 1
    35   17   40 1
    36   18   24 1
    37   18   19 2
    38   19   20 1
    39   19   41 1
    40   20   21 2
    41   20   22 1
    42   22   23 1
    43   22   42 1
    44   22   43 1
    45   23   24 1
    46   23   44 1
    47   23   45 1
    48   24   25 1
    49   25   46 1
    50   25   47 1
    51   25   48 1
    52   26   49 1
    53   26   50 1
    54   26   51 1
@<TRIPOS>MOLECULE
ZINC28383270
   53    56     0     0     0
SMALL
USER_CHARGES
(8S,9R,10S,11S,13S,14S,16R,17R)-9-fluoro-11,17-dihydroxy-10,13,16-trimethyl-3-oxo-6,7,8,11,12,14,15,16-octahydrocyclopenta[a]phenanthrene-17-carboxylic acid
@<TRIPOS>ATOM
      1 C1          4.3663   -0.1304   -4.0203 C.3       1 <0>        -0.1265
      2 C2          3.8261    1.2750   -3.7484 C.3       1 <0>        -0.0801
      3 H1          4.5238    1.9834   -4.2190 H         1 <0>         0.0892
      4 C3          3.7071    1.5149   -2.2186 C.3       1 <0>        -0.1059
      5 C4          2.2426    1.1670   -1.9293 C.3       1 <0>        -0.0776
      6 H2          2.1399    0.0844   -1.7638 H         1 <0>         0.0772
      7 C5          1.6532    1.7852   -0.6746 C.3       1 <0>        -0.1033
      8 H3          1.7695    2.8787   -0.7028 H         1 <0>         0.1083
      9 C6          2.3805    1.2496    0.5602 C.3       1 <0>        -0.1200
     10 C7          1.8103    1.9089    1.8202 C.3       1 <0>        -0.0967
     11 C8          0.3113    1.6750    1.8378 C.2       1 <0>        -0.0174
     12 C9         -0.2465    1.1651    2.9271 C.2       1 <0>        -0.2371
     13 C10        -1.6936    0.9043    2.9742 C.2       1 <0>         0.4136
     14 O1         -2.2156    0.4732    3.9853 O.2       1 <0>        -0.4692
     15 C11        -2.4961    1.1765    1.7697 C.2       1 <0>        -0.2229
     16 C12        -1.9192    1.6925    0.6958 C.2       1 <0>        -0.0605
     17 C13        -0.4722    2.0387    0.6114 C.3       1 <0>        -0.0362
     18 C14         0.1710    1.3834   -0.6146 C.3       1 <0>         0.1649
     19 C15        -0.5871    1.8346   -1.8593 C.3       1 <0>         0.0945
     20 H4         -1.6372    1.5123   -1.8009 H         1 <0>         0.0615
     21 C16         0.0969    1.2917   -3.1461 C.3       1 <0>        -0.1282
     22 C17         1.5206    1.8144   -3.1414 C.3       1 <0>        -0.0497
     23 C18         2.3955    1.4156   -4.3254 C.3       1 <0>         0.1179
     24 C19         2.3623    2.4878   -5.3837 C.2       1 <0>         0.4577
     25 O2          3.2338    3.3238   -5.4244 O.co2     1 <0>        -0.6349
     26 O3          1.3646    2.5143   -6.2813 O.co2     1 <0>        -0.7702
     27 O4          1.9545    0.1700   -4.8695 O.3       1 <0>        -0.5767
     28 C20         1.5132    3.3366   -2.9880 C.3       1 <0>        -0.1755
     29 O5         -0.6150    3.2628   -1.8959 O.3       1 <0>        -0.5545
     30 F1          0.0755   -0.0074   -0.4963 F         1 <0>        -0.1938
     31 C21        -0.3811    3.5552    0.4307 C.3       1 <0>        -0.1705
     32 H5          5.3817   -0.2192   -3.6068 H         1 <0>         0.0371
     33 H6          4.3954   -0.3084   -5.1054 H         1 <0>         0.0529
     34 H7          3.7101   -0.8739   -3.5442 H         1 <0>         0.0515
     35 H8          4.4111    0.8567   -1.6884 H         1 <0>         0.0592
     36 H9          3.9453    2.5647   -1.9924 H         1 <0>         0.0660
     37 H10         2.2419    0.1602    0.6236 H         1 <0>         0.0704
     38 H11         3.4535    1.4788    0.4819 H         1 <0>         0.0799
     39 H12         2.2743    1.4601    2.7109 H         1 <0>         0.0802
     40 H13         2.0252    2.9875    1.7990 H         1 <0>         0.0875
     41 H14         0.3736    0.9334    3.8056 H         1 <0>         0.1378
     42 H15        -3.5729    0.9519    1.7613 H         1 <0>         0.1408
     43 H16        -2.5153    1.8906   -0.2072 H         1 <0>         0.1315
     44 H17         0.0853    0.1919   -3.1314 H         1 <0>         0.0762
     45 H18        -0.4480    1.6523   -4.0310 H         1 <0>         0.0801
     46 H19         0.9554    0.0908   -5.3229 H         1 <0>         0.3939
     47 H20         1.0005    3.7894   -3.8495 H         1 <0>         0.0543
     48 H21         2.5485    3.7055   -2.9420 H         1 <0>         0.0459
     49 H22         0.9853    3.6092   -2.0623 H         1 <0>         0.1136
     50 H23        -1.1201    3.7820   -2.7237 H         1 <0>         0.4048
     51 H24        -0.9480    3.8526   -0.4638 H         1 <0>         0.1418
     52 H25         0.6726    3.8475    0.3110 H         1 <0>         0.0686
     53 H26        -0.8023    4.0558    1.3150 H         1 <0>         0.0484
@<TRIPOS>BOND
     1    1    2 1
     2    1   32 1
     3    1   33 1
     4    1   34 1
     5    2    3 1
     6    2   23 1
     7    2    4 1
     8    4    5 1
     9    4   35 1
    10    4   36 1
    11    5    6 1
    12    5   22 1
    13    5    7 1
    14    7    8 1
    15    7   18 1
    16    7    9 1
    17    9   10 1
    18    9   37 1
    19    9   38 1
    20   10   11 1
    21   10   39 1
    22   10   40 1
    23   11   17 1
    24   11   12 2
    25   12   13 1
    26   12   41 1
    27   13   14 2
    28   13   15 1
    29   15   16 2
    30   15   42 1
    31   16   17 1
    32   16   43 1
    33   17   18 1
    34   17   31 1
    35   18   19 1
    36   18   30 1
    37   19   20 1
    38   19   21 1
    39   19   29 1
    40   21   22 1
    41   21   44 1
    42   21   45 1
    43   22   23 1
    44   22   28 1
    45   23   24 1
    46   23   27 1
    47   24   25 2
    48   24   26 1
    49   27   46 1
    50   28   47 1
    51   28   48 1
    52   28   49 1
    53   29   50 1
    54   31   51 1
    55   31   52 1
    56   31   53 1
@<TRIPOS>MOLECULE
ZINC40379749
   41    44     0     0     0
SMALL
USER_CHARGES

@<TRIPOS>ATOM
      1 C1          0.0926    0.8228    1.0450 C.ar      1 <0>        -0.1691
      2 C2          1.0412    1.5614    0.4125 C.ar      1 <0>         0.0001
      3 C3          2.3310    1.0294    0.2346 C.ar      1 <0>        -0.1907
      4 C4          2.6185   -0.3198    0.7414 C.ar      1 <0>         0.1322
      5 C5          1.5855   -1.0310    1.3893 C.ar      1 <0>        -0.1786
      6 C6          0.3628   -0.4589    1.5273 C.ar      1 <0>        -0.0037
      7 C7          1.8386   -2.4173    1.9233 C.3       1 <0>         0.5148
      8 F1          0.6710   -2.9088    2.5169 F         1 <0>        -0.1791
      9 F2          2.2179   -3.2597    0.8727 F         1 <0>        -0.1749
     10 F3          2.8620   -2.3703    2.8760 F         1 <0>        -0.1746
     11 N1          3.8813   -0.5800    0.4511 N.2       1 <0>        -0.2869
     12 N2          4.4384    0.5170   -0.2151 N.pl3     1 <0>        -0.3017
     13 C8          3.5129    1.4896   -0.3496 C.2       1 <0>         0.1688
     14 C9          3.7132    2.8007   -0.9966 C.ar      1 <0>        -0.0528
     15 C10         2.8751    3.2033   -2.0395 C.ar      1 <0>        -0.0503
     16 C11         3.0672    4.4294   -2.6403 C.ar      1 <0>        -0.1486
     17 C12         4.0894    5.2618   -2.2118 C.ar      1 <0>         0.1160
     18 C13         4.9242    4.8676   -1.1779 C.ar      1 <0>        -0.1517
     19 C14         4.7379    3.6466   -0.5650 C.ar      1 <0>        -0.0679
     20 F4          4.2730    6.4618   -2.8045 F         1 <0>        -0.1324
     21 C15         5.8203    0.5978   -0.6946 C.3       1 <0>         0.1560
     22 C16         5.9329   -0.1045   -2.0233 C.ar      1 <0>        -0.1276
     23 C17         6.0542   -1.4808   -2.0691 C.ar      1 <0>        -0.0413
     24 C18         6.1575   -2.1259   -3.2867 C.ar      1 <0>        -0.1503
     25 C19         6.1394   -1.3937   -4.4621 C.ar      1 <0>         0.1317
     26 C20         6.0175   -0.0157   -4.4162 C.ar      1 <0>        -0.1512
     27 C21         5.9089    0.6281   -3.1966 C.ar      1 <0>         0.0089
     28 Cl1         5.7499    2.3558   -3.1381 Cl        1 <0>        -0.0396
     29 F5          6.2413   -2.0239   -5.6527 F         1 <0>        -0.1261
     30 H1         -0.8943    1.2395    1.1820 H         1 <0>         0.1379
     31 H2          0.8063    2.5506    0.0483 H         1 <0>         0.1330
     32 H3         -0.4222   -1.0098    2.0239 H         1 <0>         0.1442
     33 H4          2.0788    2.5553   -2.3747 H         1 <0>         0.1402
     34 H5          2.4200    4.7418   -3.4465 H         1 <0>         0.1448
     35 H6          5.7192    5.5202   -0.8486 H         1 <0>         0.1440
     36 H7          5.3857    3.3428    0.2439 H         1 <0>         0.1362
     37 H8          6.1039    1.6437   -0.8113 H         1 <0>         0.1184
     38 H9          6.4836    0.1198    0.0263 H         1 <0>         0.1217
     39 H10         6.0686   -2.0521   -1.1527 H         1 <0>         0.1501
     40 H11         6.2526   -3.2012   -3.3218 H         1 <0>         0.1488
     41 H12         6.0037    0.5563   -5.3322 H         1 <0>         0.1513
@<TRIPOS>BOND
     1    1    6 ar
     2    1    2 ar
     3    1   30 1
     4    2    3 ar
     5    2   31 1
     6    3   13 2
     7    3    4 ar
     8    4    5 ar
     9    4   11 2
    10    5    6 ar
    11    5    7 1
    12    6   32 1
    13    7    8 1
    14    7    9 1
    15    7   10 1
    16   11   12 1
    17   12   13 1
    18   12   21 1
    19   13   14 1
    20   14   19 ar
    21   14   15 ar
    22   15   16 ar
    23   15   33 1
    24   16   17 ar
    25   16   34 1
    26   17   18 ar
    27   17   20 1
    28   18   19 ar
    29   18   35 1
    30   19   36 1
    31   21   22 1
    32   21   37 1
    33   21   38 1
    34   22   27 ar
    35   22   23 ar
    36   23   24 ar
    37   23   39 1
    38   24   25 ar
    39   24   40 1
    40   25   26 ar
    41   25   29 1
    42   26   27 ar
    43   26   41 1
    44   27   28 1
@<TRIPOS>MOLECULE
ZINC00036780
   43    47     0     0     0
SMALL
USER_CHARGES
methyl-N-thiazol-2-yl-BLAHcarboxamide
@<TRIPOS>ATOM
      1 C1          2.1615    1.2473    1.2403 C.3       1 <0>        -0.1461
      2 C2          1.3989    1.7117   -0.0021 C.3       1 <0>        -0.0595
      3 C3          1.3304    3.2368   -0.0053 C.3       1 <0>        -0.1075
      4 C4         -0.1315    3.7338    0.0024 C.3       1 <0>        -0.0028
      5 C5         -0.7738    3.0781    1.2151 C.ar      1 <0>        -0.0795
      6 C6         -1.3733    3.7526    2.2401 C.ar      1 <0>        -0.1061
      7 C7         -1.9020    2.9745    3.3300 C.ar      1 <0>        -0.1200
      8 C8         -1.8215    1.5944    3.3212 C.ar      1 <0>        -0.1192
      9 C9         -1.2157    0.9315    2.2615 C.ar      1 <0>        -0.1019
     10 C10        -0.7029    1.6676    1.2319 C.ar      1 <0>        -0.0784
     11 C11        -0.0127    1.0858    0.0080 C.3       1 <0>         0.0192
     12 C12        -0.7261    1.6806   -1.1962 C.ar      1 <0>        -0.0731
     13 C13        -0.7885    3.0724   -1.1991 C.ar      1 <0>        -0.0899
     14 C14        -1.4002    3.7419   -2.2202 C.ar      1 <0>        -0.1099
     15 C15        -1.9645    3.0099   -3.2570 C.ar      1 <0>        -0.1204
     16 C16        -1.8844    1.6298   -3.2644 C.ar      1 <0>        -0.1202
     17 C17        -1.2586    0.9556   -2.2237 C.ar      1 <0>        -0.0772
     18 C18         2.1345    1.2497   -1.2335 C.2       1 <0>         0.5174
     19 O1          1.5920    0.5016   -2.0190 O.2       1 <0>        -0.4504
     20 N1          3.3953    1.6677   -1.4619 N.am      1 <0>        -0.6213
     21 C19         4.0738    1.2415   -2.5977 C.2       1 <0>         0.3083
     22 N2          3.6612    0.4338   -3.5551 N.2       1 <0>        -0.5133
     23 C20         4.4384    0.1325   -4.5769 C.2       1 <0>         0.0580
     24 C21         5.6847    0.6637   -4.6193 C.2       1 <0>        -0.2301
     25 S1          5.6849    1.6300   -3.1162 S.3       1 <0>         0.0461
     26 H1          2.2424    0.1604    1.2318 H         1 <0>         0.0670
     27 H2          3.1594    1.6859    1.2392 H         1 <0>         0.0634
     28 H3          1.6261    1.5648    2.1351 H         1 <0>         0.0803
     29 H4          1.8418    3.6187    0.8783 H         1 <0>         0.0875
     30 H5          1.8299    3.6144   -0.8975 H         1 <0>         0.0737
     31 H6         -0.2144    4.8206   -0.0082 H         1 <0>         0.1096
     32 H7         -1.4203    4.8315    2.2352 H         1 <0>         0.1297
     33 H8         -2.3756    3.4789    4.1593 H         1 <0>         0.1226
     34 H9         -2.2327    1.0279    4.1436 H         1 <0>         0.1237
     35 H10        -1.1511   -0.1465    2.2522 H         1 <0>         0.1262
     36 H11         0.0021   -0.0041    0.0020 H         1 <0>         0.1082
     37 H12        -1.4474    4.8209   -2.2197 H         1 <0>         0.1228
     38 H13        -2.4533    3.5232   -4.0719 H         1 <0>         0.1203
     39 H14        -2.3110    1.0721   -4.0850 H         1 <0>         0.1206
     40 H15        -1.1939   -0.1225   -2.2271 H         1 <0>         0.1240
     41 H16         3.8292    2.2660   -0.8337 H         1 <0>         0.4246
     42 H17         4.0915   -0.5260   -5.3595 H         1 <0>         0.1732
     43 H18         6.4627    0.5379   -5.3577 H         1 <0>         0.2001
@<TRIPOS>BOND
     1    1    2 1
     2    1   26 1
     3    1   27 1
     4    1   28 1
     5    2   11 1
     6    2    3 1
     7    2   18 1
     8    3    4 1
     9    3   29 1
    10    3   30 1
    11    4   13 1
    12    4    5 1
    13    4   31 1
    14    5   10 ar
    15    5    6 ar
    16    6    7 ar
    17    6   32 1
    18    7    8 ar
    19    7   33 1
    20    8    9 ar
    21    8   34 1
    22    9   10 ar
    23    9   35 1
    24   10   11 1
    25   11   12 1
    26   11   36 1
    27   12   17 ar
    28   12   13 ar
    29   13   14 ar
    30   14   15 ar
    31   14   37 1
    32   15   16 ar
    33   15   38 1
    34   16   17 ar
    35   16   39 1
    36   17   40 1
    37   18   19 2
    38   18   20 am
    39   20   21 1
    40   20   41 1
    41   21   25 1
    42   21   22 2
    43   22   23 1
    44   23   24 2
    45   23   42 1
    46   24   25 1
    47   24   43 1
@<TRIPOS>MOLECULE
ZINC00036779
   43    47     0     0     0
SMALL
USER_CHARGES
methyl-N-thiazol-2-yl-BLAHcarboxamide
@<TRIPOS>ATOM
      1 C1         -2.9248    4.1872    1.3027 C.3       1 <0>        -0.1476
      2 C2         -2.1031    4.4380    0.0367 C.3       1 <0>        -0.0557
      3 C3         -2.9722    4.1548   -1.1859 C.3       1 <0>        -0.1076
      4 C4         -3.1087    5.4060   -2.0806 C.3       1 <0>        -0.0037
      5 C5         -3.6444    6.4979   -1.1675 C.ar      1 <0>        -0.0792
      6 C6         -4.7998    7.1943   -1.3794 C.ar      1 <0>        -0.1045
      7 C7         -5.1725    8.1674   -0.4610 C.ar      1 <0>        -0.1177
      8 C8         -4.3855    8.4235    0.6464 C.ar      1 <0>        -0.1192
      9 C9         -3.2110    7.7119    0.8549 C.ar      1 <0>        -0.1023
     10 C10        -2.8511    6.7563   -0.0518 C.ar      1 <0>        -0.0791
     11 C11        -1.5993    5.8978    0.0421 C.3       1 <0>         0.0209
     12 C12        -0.8903    6.0842   -1.2903 C.ar      1 <0>        -0.0745
     13 C13        -1.6837    5.8259   -2.4060 C.ar      1 <0>        -0.0896
     14 C14        -1.1773    5.9534   -3.6679 C.ar      1 <0>        -0.1087
     15 C15         0.1467    6.3444   -3.8211 C.ar      1 <0>        -0.1197
     16 C16         0.9341    6.6002   -2.7140 C.ar      1 <0>        -0.1206
     17 C17         0.4120    6.4695   -1.4335 C.ar      1 <0>        -0.0794
     18 C18        -0.9179    3.5072    0.0257 C.2       1 <0>         0.5239
     19 O1          0.2077    3.9587    0.0225 O.2       1 <0>        -0.4806
     20 N1         -1.1089    2.1731    0.0194 N.am      1 <0>        -0.6105
     21 C19        -0.0158    1.3146    0.0093 C.2       1 <0>         0.2802
     22 N2          0.0021   -0.0041    0.0020 N.2       1 <0>        -0.5499
     23 C20         1.1390   -0.6719   -0.0124 C.2       1 <0>         0.0519
     24 C21         2.2995    0.0285   -0.0197 C.2       1 <0>        -0.2654
     25 S1          1.6766    1.7032   -0.0048 S.3       1 <0>         0.1572
     26 H1         -2.3054    4.3718    2.1804 H         1 <0>         0.0683
     27 H2         -3.7841    4.8577    1.3169 H         1 <0>         0.0819
     28 H3         -3.2703    3.1535    1.3127 H         1 <0>         0.0655
     29 H4         -2.5212    3.3493   -1.7654 H         1 <0>         0.0749
     30 H5         -3.9629    3.8432   -0.8548 H         1 <0>         0.0892
     31 H6         -3.7226    5.2499   -2.9676 H         1 <0>         0.1101
     32 H7         -5.4128    6.9919   -2.2452 H         1 <0>         0.1257
     33 H8         -6.0834    8.7274   -0.6128 H         1 <0>         0.1229
     34 H9         -4.6859    9.1821    1.3540 H         1 <0>         0.1231
     35 H10        -2.5942    7.9101    1.7191 H         1 <0>         0.1259
     36 H11        -0.9814    6.1344    0.9084 H         1 <0>         0.1115
     37 H12        -1.7949    5.7534   -4.5310 H         1 <0>         0.1234
     38 H13         0.5636    6.4500   -4.8118 H         1 <0>         0.1209
     39 H14         1.9623    6.9034   -2.8456 H         1 <0>         0.1213
     40 H15         1.0247    6.6693   -0.5668 H         1 <0>         0.1248
     41 H16        -2.0092    1.8120    0.0220 H         1 <0>         0.4242
     42 H17         1.1454   -1.7518   -0.0179 H         1 <0>         0.1713
     43 H18         3.3191   -0.3275   -0.0317 H         1 <0>         0.1963
@<TRIPOS>BOND
     1    1    2 1
     2    1   26 1
     3    1   27 1
     4    1   28 1
     5    2   11 1
     6    2    3 1
     7    2   18 1
     8    3    4 1
     9    3   29 1
    10    3   30 1
    11    4   13 1
    12    4    5 1
    13    4   31 1
    14    5   10 ar
    15    5    6 ar
    16    6    7 ar
    17    6   32 1
    18    7    8 ar
    19    7   33 1
    20    8    9 ar
    21    8   34 1
    22    9   10 ar
    23    9   35 1
    24   10   11 1
    25   11   12 1
    26   11   36 1
    27   12   17 ar
    28   12   13 ar
    29   13   14 ar
    30   14   15 ar
    31   14   37 1
    32   15   16 ar
    33   15   38 1
    34   16   17 ar
    35   16   39 1
    36   17   40 1
    37   18   19 2
    38   18   20 am
    39   20   21 1
    40   20   41 1
    41   21   25 1
    42   21   22 2
    43   22   23 1
    44   23   24 2
    45   23   42 1
    46   24   25 1
    47   24   43 1
@<TRIPOS>MOLECULE
ZINC29475774
   72    76     0     0     0
SMALL
USER_CHARGES
(8S,11R,13S,14S,17S)-11-(4-dimethylaminophenyl)-17-hydroxy-17-(3-hydroxypropyl)-13-methyl-1,2,6,7,8,11,12,14,15,16-decahydrocyclopenta[a]phenanthren-3-one
@<TRIPOS>ATOM
      1 C1         -1.7689    5.6596   -4.0383 C.3       1 <0>        -0.1765
      2 C2         -0.3472    5.7107   -3.4752 C.3       1 <0>        -0.0321
      3 C3          0.5008    4.6246   -4.1132 C.3       1 <0>        -0.0865
      4 C4         -0.2645    3.3006   -3.9620 C.3       1 <0>        -0.0256
      5 H1          0.3817    2.4644   -4.2672 H         1 <0>         0.0998
      6 C5         -0.6831    3.0823   -2.5214 C.2       1 <0>        -0.0441
      7 C6         -0.5429    1.8563   -2.0184 C.2       1 <0>        -0.1334
      8 C7          0.0724    0.7532   -2.8471 C.3       1 <0>        -0.0812
      9 C8          1.0112   -0.0668   -1.9572 C.3       1 <0>        -0.1669
     10 C9          0.2966   -0.4721   -0.6961 C.2       1 <0>         0.3872
     11 O1          0.5119   -1.5658   -0.2134 O.2       1 <0>        -0.4724
     12 C10        -0.6137    0.3925   -0.0652 C.2       1 <0>        -0.2526
     13 C11        -0.9975    1.5400   -0.6648 C.2       1 <0>         0.0273
     14 C12        -1.9075    2.5263    0.0259 C.3       1 <0>        -0.0968
     15 C13        -1.3575    3.9283   -0.2347 C.3       1 <0>        -0.1148
     16 C14        -1.2619    4.2222   -1.7219 C.3       1 <0>        -0.0546
     17 H2         -2.2928    4.3864   -2.0688 H         1 <0>         0.0893
     18 C15        -0.3729    5.4374   -1.9479 C.3       1 <0>        -0.0754
     19 H3          0.5698    5.1794   -1.4431 H         1 <0>         0.0827
     20 C16        -0.9243    6.7665   -1.4041 C.3       1 <0>        -0.1184
     21 C17        -0.2082    7.8365   -2.2706 C.3       1 <0>        -0.1469
     22 C18         0.2048    7.1303   -3.5846 C.3       1 <0>         0.1606
     23 C19        -0.4120    7.8470   -4.7874 C.3       1 <0>        -0.1388
     24 C20         0.1526    9.2659   -4.8802 C.3       1 <0>        -0.1245
     25 C21        -0.4642    9.9826   -6.0830 C.3       1 <0>         0.0859
     26 O2          0.0632   11.3079   -6.1697 O.3       1 <0>        -0.6054
     27 O3          1.6286    7.0994   -3.7030 O.3       1 <0>        -0.5784
     28 C22        -1.4921    3.3348   -4.8354 C.ar      1 <0>        -0.1017
     29 C23        -2.6973    2.8613   -4.3502 C.ar      1 <0>        -0.0825
     30 C24        -3.8255    2.8964   -5.1460 C.ar      1 <0>        -0.1868
     31 C25        -3.7461    3.3977   -6.4391 C.ar      1 <0>         0.2072
     32 C26        -2.5326    3.8674   -6.9252 C.ar      1 <0>        -0.1866
     33 C27        -1.4095    3.8345   -6.1221 C.ar      1 <0>        -0.0751
     34 N1         -4.8840    3.4299   -7.2484 N.pl3     1 <0>        -0.6387
     35 C28        -4.7747    3.8426   -8.6498 C.3       1 <0>         0.0935
     36 C29        -6.1868    3.0510   -6.6959 C.3       1 <0>         0.0932
     37 H4         -1.7418    5.8542   -5.1206 H         1 <0>         0.0640
     38 H5         -2.3868    6.4235   -3.5437 H         1 <0>         0.0448
     39 H6         -2.2002    4.6643   -3.8554 H         1 <0>         0.1044
     40 H7          0.6593    4.8600   -5.1759 H         1 <0>         0.0706
     41 H8          1.4727    4.5698   -3.6009 H         1 <0>         0.0754
     42 H9         -0.7233    0.1065   -3.2454 H         1 <0>         0.0807
     43 H10         0.6389    1.1934   -3.6809 H         1 <0>         0.0942
     44 H11         1.3336   -0.9690   -2.4977 H         1 <0>         0.0951
     45 H12         1.8917    0.5389   -1.6968 H         1 <0>         0.1000
     46 H13        -1.0142    0.1286    0.9247 H         1 <0>         0.1368
     47 H14        -2.9253    2.4332   -0.3809 H         1 <0>         0.0880
     48 H15        -1.9236    2.3165    1.1056 H         1 <0>         0.0852
     49 H16        -2.0223    4.6743    0.2252 H         1 <0>         0.0768
     50 H17        -0.3517    4.0147    0.2022 H         1 <0>         0.0681
     51 H18        -2.0169    6.7888   -1.5293 H         1 <0>         0.0672
     52 H19        -0.6757    6.8572   -0.3364 H         1 <0>         0.0649
     53 H20        -0.8993    8.6685   -2.4710 H         1 <0>         0.0680
     54 H21         0.6737    8.2140   -1.7324 H         1 <0>         0.0724
     55 H22        -0.1692    7.2949   -5.7073 H         1 <0>         0.0705
     56 H23        -1.5042    7.8942   -4.6656 H         1 <0>         0.0761
     57 H24        -0.0902    9.8180   -3.9603 H         1 <0>         0.0703
     58 H25         1.2448    9.2187   -5.0020 H         1 <0>         0.0693
     59 H26        -0.2214    9.4304   -7.0029 H         1 <0>         0.0404
     60 H27        -1.5564   10.0298   -5.9612 H         1 <0>         0.0394
     61 H28        -0.2655   11.9789   -6.9770 H         1 <0>         0.4097
     62 H29         2.1936    8.0390   -3.7922 H         1 <0>         0.3986
     63 H30        -2.7573    2.4672   -3.3465 H         1 <0>         0.1210
     64 H31        -4.7675    2.5305   -4.7650 H         1 <0>         0.1182
     65 H32        -2.4673    4.2575   -7.9302 H         1 <0>         0.1185
     66 H33        -0.4658    4.1999   -6.4994 H         1 <0>         0.1216
     67 H34        -5.7676    3.8048   -9.1217 H         1 <0>         0.0730
     68 H35        -4.0908    3.1633   -9.1798 H         1 <0>         0.0539
     69 H36        -4.3836    4.8695   -8.7002 H         1 <0>         0.0531
     70 H37        -6.9560    3.1387   -7.4774 H         1 <0>         0.0732
     71 H38        -6.4377    3.7180   -5.8580 H         1 <0>         0.0534
     72 H39        -6.1449    2.0119   -6.3376 H         1 <0>         0.0536
@<TRIPOS>BOND
     1    1    2 1
     2    1   37 1
     3    1   38 1
     4    1   39 1
     5    2   18 1
     6    2   22 1
     7    2    3 1
     8    3    4 1
     9    3   40 1
    10    3   41 1
    11    4    5 1
    12    4    6 1
    13    4   28 1
    14    6   16 1
    15    6    7 2
    16    7   13 1
    17    7    8 1
    18    8    9 1
    19    8   42 1
    20    8   43 1
    21    9   10 1
    22    9   44 1
    23    9   45 1
    24   10   11 2
    25   10   12 1
    26   12   13 2
    27   12   46 1
    28   13   14 1
    29   14   15 1
    30   14   47 1
    31   14   48 1
    32   15   16 1
    33   15   49 1
    34   15   50 1
    35   16   17 1
    36   16   18 1
    37   18   19 1
    38   18   20 1
    39   20   21 1
    40   20   51 1
    41   20   52 1
    42   21   22 1
    43   21   53 1
    44   21   54 1
    45   22   23 1
    46   22   27 1
    47   23   24 1
    48   23   55 1
    49   23   56 1
    50   24   25 1
    51   24   57 1
    52   24   58 1
    53   25   26 1
    54   25   59 1
    55   25   60 1
    56   26   61 1
    57   27   62 1
    58   28   33 ar
    59   28   29 ar
    60   29   30 ar
    61   29   63 1
    62   30   31 ar
    63   30   64 1
    64   31   32 ar
    65   31   34 1
    66   32   33 ar
    67   32   65 1
    68   33   66 1
    69   34   35 1
    70   34   36 1
    71   35   67 1
    72   35   68 1
    73   35   69 1
    74   36   70 1
    75   36   71 1
    76   36   72 1
@<TRIPOS>MOLECULE
ZINC34633676
   72    76     0     0     0
SMALL
USER_CHARGES

@<TRIPOS>ATOM
      1 C1         -0.0183    1.6985    0.4380 C.3       1 <0>        -0.1551
      2 C2         -0.0218    0.1992    0.1237 C.3       1 <0>        -0.0357
      3 C3         -1.4474   -0.2813   -0.0533 C.3       1 <0>        -0.0916
      4 C4         -1.9159   -0.8933    1.2772 C.3       1 <0>        -0.0098
      5 H1         -1.4437   -1.9028    1.3351 H         1 <0>         0.0816
      6 C5         -1.3032   -0.0759    2.3934 C.2       1 <0>        -0.0402
      7 C6         -1.8732    0.8997    3.0721 C.2       1 <0>        -0.1140
      8 C7         -3.2190    1.4850    2.7051 C.3       1 <0>        -0.0705
      9 C8         -3.1953    3.0085    2.8891 C.3       1 <0>        -0.1706
     10 C9         -2.7031    3.3433    4.2708 C.2       1 <0>         0.3896
     11 O1         -3.2365    4.2225    4.9098 O.2       1 <0>        -0.4702
     12 C10        -1.6209    2.6302    4.8113 C.2       1 <0>        -0.2566
     13 C11        -1.1711    1.5084    4.2129 C.2       1 <0>         0.0260
     14 C12         0.1030    0.8546    4.6979 C.3       1 <0>        -0.1008
     15 C13         0.9310    0.5295    3.4467 C.3       1 <0>        -0.1077
     16 C14         0.1664   -0.4380    2.5783 C.3       1 <0>        -0.0507
     17 H2          0.1781   -1.4205    3.0752 H         1 <0>         0.0793
     18 C15         0.7411   -0.6103    1.1917 C.3       1 <0>        -0.0729
     19 H3          0.7031   -1.6854    0.9237 H         1 <0>         0.0822
     20 C16         2.1846   -0.1203    0.9997 C.3       1 <0>        -0.1161
     21 C17         2.3162    0.0064   -0.5420 C.3       1 <0>        -0.1510
     22 C18         0.8766   -0.0102   -1.1107 C.3       1 <0>         0.1389
     23 C19         0.6784    1.1346   -2.1016 C.3       1 <0>        -0.1421
     24 C20         1.5755    0.9144   -3.3213 C.3       1 <0>        -0.1262
     25 C21         1.3770    2.0614   -4.3142 C.3       1 <0>         0.0759
     26 O2          2.2149    1.8557   -5.4534 O.3       1 <0>        -0.5764
     27 O3          0.5974   -1.2666   -1.7223 O.3       1 <0>        -0.5498
     28 C22        -3.4069   -1.1007    1.3480 C.ar      1 <0>        -0.1253
     29 C23        -4.2476   -0.3397    0.5565 C.ar      1 <0>        -0.0645
     30 C24        -5.6144   -0.5271    0.6189 C.ar      1 <0>        -0.1971
     31 C25        -6.1445   -1.4813    1.4780 C.ar      1 <0>         0.2159
     32 C26        -5.2972   -2.2440    2.2717 C.ar      1 <0>        -0.1977
     33 C27        -3.9309   -2.0554    2.2002 C.ar      1 <0>        -0.0603
     34 N1         -7.5264   -1.6732    1.5440 N.pl3     1 <0>        -0.6392
     35 C28        -8.4101   -0.9592    0.6189 C.3       1 <0>         0.0925
     36 C29        -8.0923   -2.5884    2.5382 C.3       1 <0>         0.0889
     37 H4          1.0094    2.0600    0.4727 H         1 <0>         0.0581
     38 H5         -0.5658    2.2336   -0.3378 H         1 <0>         0.0587
     39 H6         -0.4960    1.8685    1.4029 H         1 <0>         0.0706
     40 H7         -2.0884    0.5672   -0.3067 H         1 <0>         0.0654
     41 H8         -1.5050   -1.0270   -0.8432 H         1 <0>         0.0862
     42 H9         -3.4267    1.3119    1.6460 H         1 <0>         0.0902
     43 H10        -3.9979    1.0514    3.3244 H         1 <0>         0.0764
     44 H11        -2.5297    3.4496    2.1482 H         1 <0>         0.0957
     45 H12        -4.2020    3.4023    2.7556 H         1 <0>         0.0914
     46 H13        -1.1440    2.9846    5.7137 H         1 <0>         0.1336
     47 H14         0.6534    1.5395    5.3369 H         1 <0>         0.0844
     48 H15        -0.1318   -0.0634    5.2314 H         1 <0>         0.0869
     49 H16         1.1349    1.4525    2.9126 H         1 <0>         0.0735
     50 H17         1.8732    0.0785    3.7608 H         1 <0>         0.0768
     51 H18         2.3528    0.8371    1.4845 H         1 <0>         0.0733
     52 H19         2.8907   -0.8636    1.3782 H         1 <0>         0.0656
     53 H20         2.8092    0.9432   -0.7994 H         1 <0>         0.0706
     54 H21         2.8830   -0.8364   -0.9378 H         1 <0>         0.0709
     55 H22        -0.3642    1.1649   -2.4182 H         1 <0>         0.0728
     56 H23         0.9405    2.0785   -1.6236 H         1 <0>         0.0801
     57 H24         2.6181    0.8842   -3.0048 H         1 <0>         0.0716
     58 H25         1.3134   -0.0295   -3.7994 H         1 <0>         0.0698
     59 H26         0.3344    2.0916   -4.6307 H         1 <0>         0.0455
     60 H27         1.6391    3.0053   -3.8361 H         1 <0>         0.0449
     61 H28         2.1408    2.5465   -6.1260 H         1 <0>         0.3816
     62 H29         1.1345   -1.4510   -2.5050 H         1 <0>         0.3747
     63 H30        -3.8348    0.4023   -0.1110 H         1 <0>         0.1225
     64 H31        -6.2704    0.0678    0.0008 H         1 <0>         0.1213
     65 H32        -5.7061   -2.9865    2.9409 H         1 <0>         0.1220
     66 H33        -3.2713   -2.6511    2.8137 H         1 <0>         0.1177
     67 H34        -8.5536   -1.5572   -0.2810 H         1 <0>         0.0482
     68 H35        -9.3739   -0.7861    1.0978 H         1 <0>         0.0659
     69 H36        -7.9602   -0.0030    0.3518 H         1 <0>         0.0691
     70 H37        -7.2987   -2.9506    3.1918 H         1 <0>         0.0774
     71 H38        -8.8403   -2.0627    3.1317 H         1 <0>         0.0561
     72 H39        -8.5589   -3.4327    2.0308 H         1 <0>         0.0518
@<TRIPOS>BOND
     1    1    2 1
     2    1   37 1
     3    1   38 1
     4    1   39 1
     5    2   18 1
     6    2   22 1
     7    2    3 1
     8    3    4 1
     9    3   40 1
    10    3   41 1
    11    4    5 1
    12    4    6 1
    13    4   28 1
    14    6   16 1
    15    6    7 2
    16    7   13 1
    17    7    8 1
    18    8    9 1
    19    8   42 1
    20    8   43 1
    21    9   10 1
    22    9   44 1
    23    9   45 1
    24   10   11 2
    25   10   12 1
    26   12   13 2
    27   12   46 1
    28   13   14 1
    29   14   15 1
    30   14   47 1
    31   14   48 1
    32   15   16 1
    33   15   49 1
    34   15   50 1
    35   16   17 1
    36   16   18 1
    37   18   19 1
    38   18   20 1
    39   20   21 1
    40   20   51 1
    41   20   52 1
    42   21   22 1
    43   21   53 1
    44   21   54 1
    45   22   23 1
    46   22   27 1
    47   23   24 1
    48   23   55 1
    49   23   56 1
    50   24   25 1
    51   24   57 1
    52   24   58 1
    53   25   26 1
    54   25   59 1
    55   25   60 1
    56   26   61 1
    57   27   62 1
    58   28   33 ar
    59   28   29 ar
    60   29   30 ar
    61   29   63 1
    62   30   31 ar
    63   30   64 1
    64   31   32 ar
    65   31   34 1
    66   32   33 ar
    67   32   65 1
    68   33   66 1
    69   34   35 1
    70   34   36 1
    71   35   67 1
    72   35   68 1
    73   35   69 1
    74   36   70 1
    75   36   71 1
    76   36   72 1
@<TRIPOS>MOLECULE
ZINC03861806
   52    56     0     0     0
SMALL
USER_CHARGES

@<TRIPOS>ATOM
      1 C1         -3.6930   -4.3953    1.3855 C.3       1 <0>         0.0252
      2 O1         -2.4437   -3.8768    0.9246 O.3       1 <0>        -0.3003
      3 C2         -2.4359   -2.5932    0.4754 C.ar      1 <0>         0.1495
      4 C3         -3.6051   -1.8476    0.4840 C.ar      1 <0>        -0.2259
      5 C4         -3.5982   -0.5428    0.0277 C.ar      1 <0>        -0.0209
      6 C5         -2.4270    0.0241   -0.4388 C.ar      1 <0>        -0.2100
      7 C6         -1.2537   -0.7147   -0.4507 C.ar      1 <0>         0.1530
      8 C7         -1.2551   -2.0250    0.0125 C.ar      1 <0>         0.0322
      9 O2         -0.1044   -2.7517    0.0077 O.3       1 <0>        -0.3125
     10 C8          0.1804   -3.5080   -1.1708 C.3       1 <0>         0.0352
     11 O3         -0.1020   -0.1562   -0.9103 O.3       1 <0>        -0.3009
     12 C9         -0.1736    1.1963   -1.3658 C.3       1 <0>         0.0228
     13 C10        -4.8712    0.2637    0.0384 C.3       1 <0>         0.0189
     14 H1         -4.6351    1.3241    0.1275 H         1 <0>         0.1131
     15 C11        -5.7434   -0.1683    1.2044 C.ar      1 <0>        -0.0529
     16 C12        -5.3819    0.3279    2.4585 C.ar      1 <0>        -0.0868
     17 C13        -6.1565   -0.0324    3.5478 C.ar      1 <0>         0.0421
     18 C14        -7.2723   -0.8695    3.3919 C.ar      1 <0>         0.0393
     19 C15        -7.6229   -1.3601    2.1459 C.ar      1 <0>        -0.0960
     20 C16        -6.8323   -0.9991    1.0529 C.ar      1 <0>        -0.1113
     21 C17        -7.2358   -1.5900   -0.2866 C.3       1 <0>         0.1688
     22 H2         -8.0711   -1.0261   -0.7019 H         1 <0>         0.0847
     23 C18        -6.0407   -1.4964   -1.2162 C.3       1 <0>        -0.1345
     24 H3         -5.2202   -2.1338   -0.8868 H         1 <0>         0.1266
     25 C19        -5.6449    0.0168   -1.2401 C.3       1 <0>        -0.1550
     26 H4         -6.5338    0.6466   -1.2763 H         1 <0>         0.1353
     27 C20        -4.8681    0.0939   -2.5223 C.2       1 <0>         0.5007
     28 O4         -3.9698    0.8653   -2.7630 O.2       1 <0>        -0.4366
     29 O5         -5.3498   -0.8527   -3.3612 O.3       1 <0>        -0.3458
     30 C21        -6.3520   -1.6858   -2.7083 C.3       1 <0>         0.0681
     31 O6         -7.6124   -2.9581   -0.1179 O.3       1 <0>        -0.5509
     32 O7         -7.8478   -1.0577    4.6012 O.3       1 <0>        -0.3030
     33 C22        -6.8554   -0.6544    5.5678 C.3       1 <0>         0.2110
     34 O8         -6.0375    0.2962    4.8542 O.3       1 <0>        -0.3017
     35 H5         -3.5594   -5.4258    1.7147 H         1 <0>         0.1036
     36 H6         -4.0518   -3.7913    2.2188 H         1 <0>         0.0550
     37 H7         -4.4206   -4.3644    0.5745 H         1 <0>         0.0591
     38 H8         -4.5223   -2.2870    0.8474 H         1 <0>         0.1403
     39 H9         -2.4259    1.0438   -0.7948 H         1 <0>         0.1436
     40 H10         1.1236   -4.0390   -1.0427 H         1 <0>         0.0933
     41 H11        -0.6206   -4.2268   -1.3436 H         1 <0>         0.0441
     42 H12         0.2553   -2.8352   -2.0251 H         1 <0>         0.0449
     43 H13        -0.8820    1.2647   -2.1914 H         1 <0>         0.0632
     44 H14        -0.5045    1.8377   -0.5490 H         1 <0>         0.0578
     45 H15         0.8112    1.5183   -1.7045 H         1 <0>         0.1032
     46 H16        -4.5237    0.9730    2.5752 H         1 <0>         0.1469
     47 H17        -8.4816   -2.0034    2.0228 H         1 <0>         0.1434
     48 H18        -6.2416   -2.7319   -2.9939 H         1 <0>         0.1164
     49 H19        -7.3548   -1.3271   -2.9400 H         1 <0>         0.0940
     50 H20        -8.3572   -3.0895    0.4848 H         1 <0>         0.3841
     51 H21        -7.3297   -0.1809    6.4274 H         1 <0>         0.1352
     52 H22        -6.2591   -1.5107    5.8829 H         1 <0>         0.0906
@<TRIPOS>BOND
     1    1    2 1
     2    1   35 1
     3    1   36 1
     4    1   37 1
     5    2    3 1
     6    3    8 ar
     7    3    4 ar
     8    4    5 ar
     9    4   38 1
    10    5    6 ar
    11    5   13 1
    12    6    7 ar
    13    6   39 1
    14    7    8 ar
    15    7   11 1
    16    8    9 1
    17    9   10 1
    18   10   40 1
    19   10   41 1
    20   10   42 1
    21   11   12 1
    22   12   43 1
    23   12   44 1
    24   12   45 1
    25   13   14 1
    26   13   25 1
    27   13   15 1
    28   15   20 ar
    29   15   16 ar
    30   16   17 ar
    31   16   46 1
    32   17   34 1
    33   17   18 ar
    34   18   19 ar
    35   18   32 1
    36   19   20 ar
    37   19   47 1
    38   20   21 1
    39   21   22 1
    40   21   23 1
    41   21   31 1
    42   23   24 1
    43   23   30 1
    44   23   25 1
    45   25   26 1
    46   25   27 1
    47   27   28 2
    48   27   29 1
    49   29   30 1
    50   30   48 1
    51   30   49 1
    52   31   50 1
    53   32   33 1
    54   33   34 1
    55   33   51 1
    56   33   52 1
