@<TRIPOS>MOLECULE
ZINC03833821
   54    57     0     0     0
SMALL
NO_CHARGES

@<TRIPOS>ATOM
      1 C1         -0.7520    1.6588   -0.1667 C.3       1 <0>        -0.1663
      2 C2         -0.9770    0.1457   -0.1413 C.3       1 <0>        -0.0388
      3 C3         -2.2972   -0.1663    0.5373 C.3       1 <0>        -0.1261
      4 C4         -2.2689    0.5080    1.9180 C.3       1 <0>         0.1082
      5 H1         -3.1924    0.2731    2.4472 H         1 <0>         0.0604
      6 C5         -1.0827    0.0350    2.7533 C.3       1 <0>        -0.0524
      7 H2         -1.2058   -1.0229    2.9849 H         1 <0>         0.0866
      8 C6          0.2486    0.2394    2.0127 C.3       1 <0>        -0.0814
      9 H3          0.4066    1.3018    1.8270 H         1 <0>         0.1028
     10 C7          0.1391   -0.5386    0.6930 C.3       1 <0>        -0.0780
     11 H4         -0.1092   -1.5841    0.8759 H         1 <0>         0.0846
     12 C8          1.3459   -0.4177   -0.2439 C.3       1 <0>        -0.1120
     13 C9          0.7399   -0.7462   -1.6357 C.3       1 <0>        -0.1478
     14 C10        -0.7736   -0.4308   -1.5386 C.3       1 <0>         0.1037
     15 C11        -1.1639    0.5826   -2.5834 C.2       1 <0>         0.3356
     16 O1         -0.3311    1.3258   -3.0444 O.2       1 <0>        -0.4139
     17 C12        -2.5933    0.6686   -3.0529 C.3       1 <0>         0.0292
     18 O2         -2.7101    1.6977   -4.0376 O.3       1 <0>        -0.5558
     19 O3         -1.5397   -1.6267   -1.6970 O.3       1 <0>        -0.5395
     20 C13         1.3968   -0.3125    2.8596 C.3       1 <0>        -0.1141
     21 C14         1.5075    0.4888    4.1606 C.3       1 <0>        -0.0960
     22 C15         0.1584    0.4521    4.8538 C.2       1 <0>        -0.0243
     23 C16         0.1019    0.0895    6.1279 C.2       1 <0>        -0.2310
     24 C17        -1.1894    0.0201    6.8291 C.2       1 <0>         0.4075
     25 O4         -1.2417   -0.2722    8.0092 O.2       1 <0>        -0.4610
     26 C18        -2.4174    0.3120    6.0704 C.2       1 <0>        -0.2221
     27 C19        -2.3362    0.6803    4.8015 C.2       1 <0>        -0.0651
     28 C20        -1.0322    0.8343    4.0586 C.3       1 <0>        -0.0103
     29 C21        -0.8801    2.3122    3.6932 C.3       1 <0>        -0.1338
     30 O5         -2.1793    1.9234    1.7436 O.3       1 <0>        -0.5459
     31 H5          0.1094    1.8876   -0.7941 H         1 <0>         0.0526
     32 H6         -1.6367    2.1510   -0.5706 H         1 <0>         0.0495
     33 H7         -0.5684    2.0159    0.8467 H         1 <0>         0.1148
     34 H8         -3.1217    0.2324   -0.0537 H         1 <0>         0.0675
     35 H9         -2.4094   -1.2444    0.6529 H         1 <0>         0.0847
     36 H10         1.7470    0.5957   -0.2274 H         1 <0>         0.0739
     37 H11         2.1152   -1.1425    0.0225 H         1 <0>         0.0724
     38 H12         1.2032   -0.1244   -2.4017 H         1 <0>         0.0846
     39 H13         0.8881   -1.8006   -1.8689 H         1 <0>         0.0802
     40 H14        -2.8910   -0.2856   -3.4876 H         1 <0>         0.0817
     41 H15        -3.2403    0.9002   -2.2069 H         1 <0>         0.0808
     42 H16        -3.6054    1.8095   -4.3853 H         1 <0>         0.3862
     43 H17        -1.4500   -2.0388   -2.5672 H         1 <0>         0.3798
     44 H18         1.2044   -1.3596    3.0935 H         1 <0>         0.0668
     45 H19         2.3302   -0.2310    2.3027 H         1 <0>         0.0752
     46 H20         2.2645    0.0418    4.8049 H         1 <0>         0.0800
     47 H21         1.7776    1.5206    3.9355 H         1 <0>         0.0861
     48 H22         1.0116   -0.1573    6.6552 H         1 <0>         0.1356
     49 H23        -3.3822    0.2255    6.5481 H         1 <0>         0.1372
     50 H24        -3.2561    0.8801    4.2721 H         1 <0>         0.1262
     51 H25        -1.8492    2.7154    3.3993 H         1 <0>         0.0948
     52 H26        -0.5039    2.8628    4.5554 H         1 <0>         0.0440
     53 H27        -0.1789    2.4114    2.8646 H         1 <0>         0.0739
     54 H28        -2.9172    2.3063    1.2496 H         1 <0>         0.3686
@<TRIPOS>BOND
     1    1    2 1
     2    1   31 1
     3    1   32 1
     4    1   33 1
     5    2   10 1
     6    2   14 1
     7    2    3 1
     8    3    4 1
     9    3   34 1
    10    3   35 1
    11    4    5 1
    12    4    6 1
    13    4   30 1
    14    6    7 1
    15    6   28 1
    16    6    8 1
    17    8    9 1
    18    8   10 1
    19    8   20 1
    20   10   11 1
    21   10   12 1
    22   12   13 1
    23   12   36 1
    24   12   37 1
    25   13   14 1
    26   13   38 1
    27   13   39 1
    28   14   15 1
    29   14   19 1
    30   15   16 2
    31   15   17 1
    32   17   18 1
    33   17   40 1
    34   17   41 1
    35   18   42 1
    36   19   43 1
    37   20   21 1
    38   20   44 1
    39   20   45 1
    40   21   22 1
    41   21   46 1
    42   21   47 1
    43   22   28 1
    44   22   23 2
    45   23   24 1
    46   23   48 1
    47   24   25 2
    48   24   26 1
    49   26   27 2
    50   26   49 1
    51   27   28 1
    52   27   50 1
    53   28   29 1
    54   29   51 1
    55   29   52 1
    56   29   53 1
    57   30   54 1
