@<TRIPOS>MOLECULE
ZINC22011868
   29    30     0     0     0
SMALL
USER_CHARGES

@<TRIPOS>ATOM
      1 C1         -0.0164    1.3560    0.0095 C.2       1 <0>        -0.0929
      2 C2          1.1943    2.0684    0.0018 C.2       1 <0>        -0.2134
      3 C3          2.3719    1.4095   -0.0130 C.2       1 <0>         0.1595
      4 N1          2.4048    0.0451   -0.0207 N.pl3     1 <0>        -0.3173
      5 C4          1.2400   -0.6776   -0.0134 C.2       1 <0>         0.2218
      6 C5          0.0021   -0.0041    0.0020 C.2       1 <0>        -0.1197
      7 N2          1.5556   -1.9650   -0.0233 N.2       1 <0>        -0.5240
      8 C6          2.8848   -2.0901   -0.0367 C.2       1 <0>         0.0062
      9 C7          3.4345   -0.8560   -0.0353 C.2       1 <0>         0.0147
     10 C8          4.9063   -0.5323   -0.0476 C.3       1 <0>        -0.0280
     11 C9          5.4176   -0.5378   -1.4897 C.3       1 <0>        -1.0245
     12 O1          5.2092   -1.8296   -2.0640 O.3       1 <0>        -0.5097
     13 P1          4.5124    0.7120   -2.4602 P.3       1 <0>         2.2109
     14 O2          3.0021    0.3066   -2.5545 O.2       1 <0>        -1.1678
     15 O3          4.6357    2.1076   -1.7590 O.3       1 <0>        -1.1595
     16 O4          5.1215    0.7960   -3.9011 O.3       1 <0>        -1.1763
     17 P2          7.1980   -0.1462   -1.5045 P.3       1 <0>         2.2733
     18 O5          7.4233    1.2505   -0.8836 O.2       1 <0>        -1.0959
     19 O6          7.9652   -1.2053   -0.6820 O.3       1 <0>        -1.1326
     20 O7          7.7361   -0.1520   -3.0220 O.3       1 <0>        -0.8692
     21 H1         -0.9574    1.8857    0.0258 H         1 <0>         0.1166
     22 H2          1.1826    3.1483    0.0073 H         1 <0>         0.1315
     23 H3          3.2969    1.9670   -0.0192 H         1 <0>         0.1855
     24 H4         -0.9225   -0.5622    0.0082 H         1 <0>         0.1235
     25 H5          3.4298   -3.0225   -0.0466 H         1 <0>         0.1549
     26 H6          5.0652    0.4531    0.3905 H         1 <0>         0.0775
     27 H7          5.4475   -1.2795    0.5327 H         1 <0>         0.0599
     28 H8          5.6627   -2.5451   -1.5977 H         1 <0>         0.3135
     29 H9          8.6783    0.0490   -3.1059 H         1 <0>         0.3814
@<TRIPOS>BOND
     1    1    6 2
     2    1    2 1
     3    1   21 1
     4    2    3 2
     5    2   22 1
     6    3    4 1
     7    3   23 1
     8    4    9 1
     9    4    5 1
    10    5    6 1
    11    5    7 2
    12    6   24 1
    13    7    8 1
    14    8    9 2
    15    8   25 1
    16    9   10 1
    17   10   11 1
    18   10   26 1
    19   10   27 1
    20   11   12 1
    21   11   13 1
    22   11   17 1
    23   12   28 1
    24   13   14 2
    25   13   15 1
    26   13   16 1
    27   17   18 2
    28   17   19 1
    29   17   20 1
    30   20   29 1
@<TRIPOS>MOLECULE
ZINC22011868
   31    32     0     0     0
SMALL
USER_CHARGES

@<TRIPOS>ATOM
      1 C1         -0.0164    1.3560    0.0095 C.2       1 <0>        -0.0190
      2 C2          1.1943    2.0684    0.0018 C.2       1 <0>        -0.1423
      3 C3          2.3719    1.4095   -0.0130 C.2       1 <0>         0.1198
      4 N1          2.4048    0.0451   -0.0207 N.pl3     1 <0>        -0.3045
      5 C4          1.2400   -0.6776   -0.0134 C.cat     1 <0>         0.3034
      6 C5          0.0021   -0.0041    0.0020 C.2       1 <0>        -0.1444
      7 N2          1.5556   -1.9650   -0.0233 N.pl3     1 <0>        -0.5079
      8 C6          2.8848   -2.0901   -0.0367 C.2       1 <0>         0.0522
      9 C7          3.4345   -0.8560   -0.0353 C.2       1 <0>         0.0432
     10 C8          4.9063   -0.5323   -0.0476 C.3       1 <0>        -0.0592
     11 C9          5.4176   -0.5378   -1.4897 C.3       1 <0>        -1.0186
     12 O1          5.2092   -1.8296   -2.0640 O.3       1 <0>        -0.5203
     13 P1          4.5124    0.7120   -2.4602 P.3       1 <0>         2.2356
     14 O2          5.0288    0.7064   -3.9163 O.2       1 <0>        -1.0677
     15 O3          2.9400    0.3662   -2.4470 O.3       1 <0>        -0.9096
     16 O4          4.7377    2.1087   -1.8392 O.3       1 <0>        -1.0539
     17 P2          7.1980   -0.1462   -1.5045 P.3       1 <0>         2.2517
     18 O5          7.4233    1.2505   -0.8836 O.2       1 <0>        -1.0662
     19 O6          7.9652   -1.2053   -0.6820 O.3       1 <0>        -1.0996
     20 O7          7.7361   -0.1520   -3.0220 O.3       1 <0>        -0.8767
     21 H1         -0.9574    1.8857    0.0258 H         1 <0>         0.1646
     22 H2          1.1826    3.1483    0.0073 H         1 <0>         0.1786
     23 H3          3.2969    1.9670   -0.0192 H         1 <0>         0.2171
     24 H4         -0.9225   -0.5622    0.0082 H         1 <0>         0.1668
     25 H5          3.4298   -3.0225   -0.0466 H         1 <0>         0.2181
     26 H6          5.0652    0.4531    0.3905 H         1 <0>         0.1142
     27 H7          5.4475   -1.2795    0.5327 H         1 <0>         0.1102
     28 H8          5.6627   -2.5451   -1.5977 H         1 <0>         0.3538
     29 H9          8.6783    0.0490   -3.1059 H         1 <0>         0.4039
     30 H10         2.3957    0.9911   -2.9452 H         1 <0>         0.4041
     31 H11         0.9218   -2.6993   -0.0207 H         1 <0>         0.4526
@<TRIPOS>BOND
     1    1    6 2
     2    1    2 1
     3    1   21 1
     4    2    3 2
     5    2   22 1
     6    3    4 1
     7    3   23 1
     8    4    9 1
     9    4    5 1
    10    5    6 1
    11    5    7 2
    12    6   24 1
    13    7    8 1
    14    7   31 1
    15    8    9 2
    16    8   25 1
    17    9   10 1
    18   10   11 1
    19   10   26 1
    20   10   27 1
    21   11   12 1
    22   11   13 1
    23   11   17 1
    24   12   28 1
    25   13   14 2
    26   13   15 1
    27   13   16 1
    28   15   30 1
    29   17   18 2
    30   17   19 1
    31   17   20 1
    32   20   29 1
@<TRIPOS>MOLECULE
ZINC22011868
   30    31     0     0     0
SMALL
USER_CHARGES

@<TRIPOS>ATOM
      1 C1         -0.0164    1.3560    0.0095 C.2       1 <0>        -0.0152
      2 C2          1.1943    2.0684    0.0018 C.2       1 <0>        -0.1722
      3 C3          2.3719    1.4095   -0.0130 C.2       1 <0>         0.1800
      4 N1          2.4048    0.0451   -0.0207 N.pl3     1 <0>        -0.2876
      5 C4          1.2400   -0.6776   -0.0134 C.cat     1 <0>         0.3092
      6 C5          0.0021   -0.0041    0.0020 C.2       1 <0>        -0.1667
      7 N2          1.5556   -1.9650   -0.0233 N.pl3     1 <0>        -0.5144
      8 C6          2.8848   -2.0901   -0.0367 C.2       1 <0>         0.0152
      9 C7          3.4345   -0.8560   -0.0353 C.2       1 <0>         0.0914
     10 C8          4.9063   -0.5323   -0.0476 C.3       1 <0>        -0.0477
     11 C9          5.4176   -0.5378   -1.4897 C.3       1 <0>        -1.0261
     12 O1          5.2092   -1.8296   -2.0640 O.3       1 <0>        -0.5117
     13 P1          4.5124    0.7120   -2.4602 P.3       1 <0>         2.1995
     14 O2          3.0020    0.3066   -2.5545 O.2       1 <0>        -1.1747
     15 O3          4.6357    2.1076   -1.7590 O.3       1 <0>        -1.1469
     16 O4          5.1215    0.7960   -3.9011 O.3       1 <0>        -1.1588
     17 P2          7.1980   -0.1462   -1.5045 P.3       1 <0>         2.2723
     18 O5          7.4233    1.2505   -0.8836 O.2       1 <0>        -1.0879
     19 O6          7.9652   -1.2053   -0.6820 O.3       1 <0>        -1.1243
     20 O7          7.7361   -0.1520   -3.0220 O.3       1 <0>        -0.8704
     21 H1         -0.9574    1.8857    0.0258 H         1 <0>         0.1514
     22 H2          1.1826    3.1483    0.0073 H         1 <0>         0.1660
     23 H3          3.2969    1.9670   -0.0192 H         1 <0>         0.2182
     24 H4         -0.9225   -0.5622    0.0082 H         1 <0>         0.1542
     25 H5          3.4298   -3.0225   -0.0466 H         1 <0>         0.2064
     26 H6          5.0652    0.4531    0.3905 H         1 <0>         0.1020
     27 H7          5.4475   -1.2795    0.5327 H         1 <0>         0.0859
     28 H8          5.6627   -2.5451   -1.5977 H         1 <0>         0.3214
     29 H9          8.6783    0.0490   -3.1059 H         1 <0>         0.3893
     30 H10         0.9218   -2.6993   -0.0207 H         1 <0>         0.4422
@<TRIPOS>BOND
     1    1    6 2
     2    1    2 1
     3    1   21 1
     4    2    3 2
     5    2   22 1
     6    3    4 1
     7    3   23 1
     8    4    9 1
     9    4    5 1
    10    5    6 1
    11    5    7 2
    12    6   24 1
    13    7    8 1
    14    7   30 1
    15    8    9 2
    16    8   25 1
    17    9   10 1
    18   10   11 1
    19   10   26 1
    20   10   27 1
    21   11   12 1
    22   11   13 1
    23   11   17 1
    24   12   28 1
    25   13   14 2
    26   13   15 1
    27   13   16 1
    28   17   18 2
    29   17   19 1
    30   17   20 1
    31   20   29 1
@<TRIPOS>MOLECULE
ZINC22011868
   30    31     0     0     0
SMALL
USER_CHARGES

@<TRIPOS>ATOM
      1 C1         -0.0164    1.3560    0.0095 C.2       1 <0>        -0.1292
      2 C2          1.1943    2.0684    0.0018 C.2       1 <0>        -0.1781
      3 C3          2.3719    1.4095   -0.0130 C.2       1 <0>         0.0771
      4 N1          2.4048    0.0451   -0.0207 N.pl3     1 <0>        -0.3483
      5 C4          1.2400   -0.6776   -0.0134 C.2       1 <0>         0.1904
      6 C5          0.0021   -0.0041    0.0020 C.2       1 <0>        -0.0763
      7 N2          1.5556   -1.9650   -0.0233 N.2       1 <0>        -0.4932
      8 C6          2.8848   -2.0901   -0.0367 C.2       1 <0>         0.1480
      9 C7          3.4345   -0.8560   -0.0353 C.2       1 <0>        -0.0640
     10 C8          4.9063   -0.5323   -0.0476 C.3       1 <0>        -0.0162
     11 C9          5.4176   -0.5378   -1.4897 C.3       1 <0>        -1.0250
     12 O1          4.7080    0.4419   -2.2504 O.3       1 <0>        -0.5199
     13 P1          7.1980   -0.1462   -1.5045 P.3       1 <0>         2.2277
     14 O2          7.9788   -1.2715   -0.7897 O.2       1 <0>        -1.0624
     15 O3          7.7076   -0.0227   -3.0268 O.3       1 <0>        -0.8881
     16 O4          7.4370    1.1926   -0.7713 O.3       1 <0>        -1.1013
     17 P2          5.1518   -2.1857   -2.2224 P.3       1 <0>         2.2616
     18 O5          5.9190   -3.2449   -1.3999 O.2       1 <0>        -1.0680
     19 O6          3.6429   -2.5176   -2.2097 O.3       1 <0>        -1.0768
     20 O7          5.6898   -2.1915   -3.7398 O.3       1 <0>        -0.8954
     21 H1         -0.9574    1.8857    0.0258 H         1 <0>         0.1263
     22 H2          1.1826    3.1483    0.0073 H         1 <0>         0.1349
     23 H3          3.2969    1.9670   -0.0192 H         1 <0>         0.1476
     24 H4         -0.9225   -0.5622    0.0082 H         1 <0>         0.1371
     25 H5          3.4298   -3.0225   -0.0466 H         1 <0>         0.1844
     26 H6          5.0652    0.4531    0.3905 H         1 <0>         0.0615
     27 H7          5.4475   -1.2795    0.5327 H         1 <0>         0.1035
     28 H8          4.8045    1.3444   -1.9169 H         1 <0>         0.3393
     29 H9          5.5803   -3.0388   -4.1927 H         1 <0>         0.4010
     30 H10         8.6484    0.1848   -3.1110 H         1 <0>         0.4016
@<TRIPOS>BOND
     1    1    6 2
     2    1    2 1
     3    1   21 1
     4    2    3 2
     5    2   22 1
     6    3    4 1
     7    3   23 1
     8    4    9 1
     9    4    5 1
    10    5    6 1
    11    5    7 2
    12    6   24 1
    13    7    8 1
    14    8    9 2
    15    8   25 1
    16    9   10 1
    17   10   11 1
    18   10   26 1
    19   10   27 1
    20   11   12 1
    21   11   13 1
    22   11   17 1
    23   12   28 1
    24   13   14 2
    25   13   15 1
    26   13   16 1
    27   15   30 1
    28   17   18 2
    29   17   19 1
    30   17   20 1
    31   20   29 1
@<TRIPOS>MOLECULE
ZINC19632644
   24    24     0     0     0
SMALL
USER_CHARGES

@<TRIPOS>ATOM
      1 C1         -0.0161    1.3371    0.0094 C.2       1 <0>        -0.0737
      2 C2          1.2587    1.7711   -0.0004 C.2       1 <0>         0.1498
      3 N1          2.0558    0.6583   -0.0140 N.pl3     1 <0>        -0.3745
      4 C3          1.2397   -0.4176   -0.0120 C.cat     1 <0>         0.2406
      5 N2          0.0021   -0.0041    0.0020 N.pl3     1 <0>        -0.4786
      6 C4          3.5206    0.6384   -0.0281 C.3       1 <0>         0.0924
      7 C5          4.0443    0.6237    1.4094 C.3       1 <0>        -1.0263
      8 O1          3.5585   -0.5400    2.0814 O.3       1 <0>        -0.4899
      9 P1          3.4652    2.1157    2.2823 P.3       1 <0>         2.1813
     10 O2          3.9977    3.3916    1.5455 O.2       1 <0>        -1.1524
     11 O3          1.8988    2.1370    2.2974 O.3       1 <0>        -1.1434
     12 O4          4.0015    2.1007    3.7543 O.3       1 <0>        -1.1336
     13 P2          5.8670    0.5990    1.3918 P.3       1 <0>         2.2548
     14 O5          6.3958    0.5842    2.8434 O.2       1 <0>        -1.0648
     15 O6          6.3578   -0.6655    0.6520 O.3       1 <0>        -1.1160
     16 O7          6.4143    1.9101    0.6346 O.3       1 <0>        -0.8803
     17 H1         -0.8984    1.9597    0.0252 H         1 <0>         0.2014
     18 H2          1.5887    2.7994    0.0016 H         1 <0>         0.2106
     19 H3          1.5585   -1.4495   -0.0206 H         1 <0>         0.2318
     20 H4          3.8668   -0.2536   -0.5501 H         1 <0>         0.0931
     21 H5          3.8911    1.5261   -0.5408 H         1 <0>         0.1169
     22 H6          3.8286   -1.3728    1.6708 H         1 <0>         0.3234
     23 H7          7.3787    1.9634    0.5875 H         1 <0>         0.3974
     24 H8         -0.7811   -0.5763    0.0069 H         1 <0>         0.4400
@<TRIPOS>BOND
     1    1    5 1
     2    1    2 2
     3    1   17 1
     4    2    3 1
     5    2   18 1
     6    3    4 1
     7    3    6 1
     8    4    5 2
     9    4   19 1
    10    5   24 1
    11    6    7 1
    12    6   20 1
    13    6   21 1
    14    7    8 1
    15    7    9 1
    16    7   13 1
    17    8   22 1
    18    9   10 2
    19    9   11 1
    20    9   12 1
    21   13   14 2
    22   13   15 1
    23   13   16 1
    24   16   23 1
@<TRIPOS>MOLECULE
ZINC19632644
   25    25     0     0     0
SMALL
USER_CHARGES

@<TRIPOS>ATOM
      1 C1         -0.0161    1.3371    0.0094 C.2       1 <0>        -0.0465
      2 C2          1.2587    1.7711   -0.0004 C.2       1 <0>         0.1297
      3 N1          2.0558    0.6583   -0.0140 N.pl3     1 <0>        -0.3879
      4 C3          1.2397   -0.4176   -0.0120 C.cat     1 <0>         0.2566
      5 N2          0.0021   -0.0041    0.0020 N.pl3     1 <0>        -0.4766
      6 C4          3.5206    0.6384   -0.0281 C.3       1 <0>         0.1109
      7 C5          4.0443    0.6237    1.4094 C.3       1 <0>        -1.0469
      8 O1          3.5585   -0.5400    2.0814 O.3       1 <0>        -0.5165
      9 P1          5.8670    0.5990    1.3918 P.3       1 <0>         2.2229
     10 O2          6.3941    1.9153    0.7783 O.2       1 <0>        -1.0481
     11 O3          6.4162    0.4512    2.8980 O.3       1 <0>        -0.8862
     12 O4          6.3577   -0.5966    0.5452 O.3       1 <0>        -1.0860
     13 P2          3.4652    2.1157    2.2823 P.3       1 <0>         2.2619
     14 O5          3.9904    3.3740    1.5557 O.2       1 <0>        -1.0559
     15 O6          1.9204    2.1367    2.2972 O.3       1 <0>        -1.0853
     16 O7          4.0163    2.1002    3.7950 O.3       1 <0>        -0.8893
     17 H1         -0.8984    1.9597    0.0252 H         1 <0>         0.2095
     18 H2          1.5887    2.7994    0.0016 H         1 <0>         0.2166
     19 H3          1.5585   -1.4495   -0.0206 H         1 <0>         0.2384
     20 H4          3.8668   -0.2536   -0.5501 H         1 <0>         0.1166
     21 H5          3.8911    1.5261   -0.5408 H         1 <0>         0.1390
     22 H6          3.8286   -1.3728    1.6708 H         1 <0>         0.3535
     23 H7          3.7464    2.8663    4.3198 H         1 <0>         0.4102
     24 H8         -0.7811   -0.5763    0.0069 H         1 <0>         0.4478
     25 H9          7.3807    0.4311    2.9648 H         1 <0>         0.4117
@<TRIPOS>BOND
     1    1    5 1
     2    1    2 2
     3    1   17 1
     4    2    3 1
     5    2   18 1
     6    3    4 1
     7    3    6 1
     8    4    5 2
     9    4   19 1
    10    5   24 1
    11    6    7 1
    12    6   20 1
    13    6   21 1
    14    7    8 1
    15    7    9 1
    16    7   13 1
    17    8   22 1
    18    9   10 2
    19    9   11 1
    20    9   12 1
    21   11   25 1
    22   13   14 2
    23   13   15 1
    24   13   16 1
    25   16   23 1
@<TRIPOS>MOLECULE
ZINC19632644
   24    24     0     0     0
SMALL
USER_CHARGES

@<TRIPOS>ATOM
      1 C1         -0.0161    1.3371    0.0094 C.2       1 <0>        -0.0484
      2 C2          1.2587    1.7711   -0.0004 C.2       1 <0>        -0.0574
      3 N1          2.0558    0.6583   -0.0140 N.pl3     1 <0>        -0.4442
      4 C3          1.2397   -0.4176   -0.0120 C.2       1 <0>         0.2267
      5 N2          0.0021   -0.0041    0.0020 N.2       1 <0>        -0.5107
      6 C4          3.5206    0.6384   -0.0281 C.3       1 <0>         0.1074
      7 C5          4.0443    0.6237    1.4094 C.3       1 <0>        -1.0361
      8 O1          3.5904    1.7933    2.0937 O.3       1 <0>        -0.5145
      9 P1          3.4246   -0.8609    2.2667 P.3       1 <0>         2.2520
     10 O2          3.9534   -0.8757    3.7183 O.2       1 <0>        -1.0836
     11 O3          1.8148   -0.8390    2.2822 O.3       1 <0>        -0.8855
     12 O4          3.9153   -2.1254    1.5269 O.3       1 <0>        -1.0671
     13 P2          5.8670    0.5990    1.3918 P.3       1 <0>         2.2593
     14 O5          6.3578   -0.6655    0.6520 O.2       1 <0>        -1.0711
     15 O6          6.3922    1.8572    0.6652 O.3       1 <0>        -1.1070
     16 O7          6.4181    0.5835    2.9045 O.3       1 <0>        -0.8745
     17 H1         -0.8984    1.9597    0.0252 H         1 <0>         0.1551
     18 H2          1.5887    2.7994    0.0016 H         1 <0>         0.1547
     19 H3          1.5585   -1.4495   -0.0206 H         1 <0>         0.1983
     20 H4          3.8668   -0.2536   -0.5501 H         1 <0>         0.1142
     21 H5          3.8911    1.5261   -0.5408 H         1 <0>         0.0887
     22 H6          3.8831    2.6226    1.6918 H         1 <0>         0.3465
     23 H7          7.3827    0.5700    2.9716 H         1 <0>         0.3986
     24 H8          1.4153   -1.6010    2.7237 H         1 <0>         0.3987
@<TRIPOS>BOND
     1    1    5 1
     2    1    2 2
     3    1   17 1
     4    2    3 1
     5    2   18 1
     6    3    4 1
     7    3    6 1
     8    4    5 2
     9    4   19 1
    10    6    7 1
    11    6   20 1
    12    6   21 1
    13    7    8 1
    14    7    9 1
    15    7   13 1
    16    8   22 1
    17    9   10 2
    18    9   11 1
    19    9   12 1
    20   11   24 1
    21   13   14 2
    22   13   15 1
    23   13   16 1
    24   16   23 1
@<TRIPOS>MOLECULE
ZINC19632644
   23    23     0     0     0
SMALL
USER_CHARGES

@<TRIPOS>ATOM
      1 C1         -0.0162    1.3425    0.0094 C.2       1 <0>        -0.0922
      2 N1          1.2535    1.7747   -0.0004 N.2       1 <0>        -0.5179
      3 C2          2.0579    0.7472   -0.0136 C.2       1 <0>         0.1430
      4 N2          1.3175   -0.3822   -0.0126 N.pl3     1 <0>        -0.4240
      5 C3          0.0021   -0.0041    0.0020 C.2       1 <0>         0.0722
      6 C4          1.8271   -1.7557   -0.0258 C.3       1 <0>         0.1252
      7 C5          2.0187   -2.2424    1.4121 C.3       1 <0>        -1.0399
      8 P1          0.4203   -2.1957    2.2874 P.3       1 <0>         2.1998
      9 O1         -0.0629   -0.7107    2.4135 O.2       1 <0>        -1.1549
     10 O2         -0.6397   -3.0233    1.4838 O.3       1 <0>        -1.1598
     11 O3          0.5898   -2.8128    3.7174 O.3       1 <0>        -1.1709
     12 P2          2.6528   -3.9515    1.3957 P.3       1 <0>         2.2770
     13 O4          1.6421   -4.8688    0.6718 O.2       1 <0>        -1.0930
     14 O5          4.0074   -3.9911    0.6538 O.3       1 <0>        -1.1310
     15 O6          2.8544   -4.4636    2.9087 O.3       1 <0>        -0.8677
     16 O7          2.9535   -1.3939    2.0816 O.3       1 <0>        -0.5064
     17 H1         -0.8985    1.9651    0.0252 H         1 <0>         0.1455
     18 H2          3.1369    0.7926   -0.0240 H         1 <0>         0.1721
     19 H3         -0.8562   -0.6596    0.0072 H         1 <0>         0.1647
     20 H4          1.1141   -2.4029   -0.5365 H         1 <0>         0.0985
     21 H5          2.7828   -1.7836   -0.5492 H         1 <0>         0.0634
     22 H6          3.1904   -5.3678    2.9763 H         1 <0>         0.3832
     23 H7          3.8280   -1.3698    1.6696 H         1 <0>         0.3132
@<TRIPOS>BOND
     1    1    5 2
     2    1    2 1
     3    1   17 1
     4    2    3 2
     5    3    4 1
     6    3   18 1
     7    4    5 1
     8    4    6 1
     9    5   19 1
    10    6    7 1
    11    6   20 1
    12    6   21 1
    13    7    8 1
    14    7   12 1
    15    7   16 1
    16    8    9 2
    17    8   10 1
    18    8   11 1
    19   12   13 2
    20   12   14 1
    21   12   15 1
    22   15   22 1
    23   16   23 1
@<TRIPOS>MOLECULE
ZINC19632644
   23    23     0     0     0
SMALL
USER_CHARGES

@<TRIPOS>ATOM
      1 C1         -0.0161    1.3371    0.0094 C.2       1 <0>        -0.1021
      2 C2          1.2587    1.7711   -0.0004 C.2       1 <0>         0.0893
      3 N1          2.0558    0.6583   -0.0140 N.pl3     1 <0>        -0.4281
      4 C3          1.2397   -0.4176   -0.0120 C.2       1 <0>         0.1395
      5 N2          0.0021   -0.0041    0.0020 N.2       1 <0>        -0.5154
      6 C4          3.5206    0.6384   -0.0281 C.3       1 <0>         0.1107
      7 C5          4.0443    0.6237    1.4094 C.3       1 <0>        -1.0308
      8 O1          3.5585   -0.5400    2.0814 O.3       1 <0>        -0.4874
      9 P1          3.4652    2.1157    2.2823 P.3       1 <0>         2.1990
     10 O2          3.9977    3.3916    1.5455 O.2       1 <0>        -1.1715
     11 O3          1.8988    2.1370    2.2974 O.3       1 <0>        -1.1492
     12 O4          4.0015    2.1007    3.7543 O.3       1 <0>        -1.1559
     13 P2          5.8670    0.5990    1.3918 P.3       1 <0>         2.2619
     14 O5          6.3958    0.5842    2.8434 O.2       1 <0>        -1.0796
     15 O6          6.3578   -0.6655    0.6520 O.3       1 <0>        -1.1282
     16 O7          6.4143    1.9101    0.6346 O.3       1 <0>        -0.8780
     17 H1         -0.8984    1.9597    0.0252 H         1 <0>         0.1439
     18 H2          1.5887    2.7994    0.0016 H         1 <0>         0.1608
     19 H3          1.5585   -1.4495   -0.0206 H         1 <0>         0.1717
     20 H4          3.8668   -0.2536   -0.5501 H         1 <0>         0.0632
     21 H5          3.8911    1.5261   -0.5408 H         1 <0>         0.0840
     22 H6          3.8286   -1.3728    1.6708 H         1 <0>         0.3142
     23 H7          7.3787    1.9634    0.5875 H         1 <0>         0.3879
@<TRIPOS>BOND
     1    1    5 1
     2    1    2 2
     3    1   17 1
     4    2    3 1
     5    2   18 1
     6    3    4 1
     7    3    6 1
     8    4    5 2
     9    4   19 1
    10    6    7 1
    11    6   20 1
    12    6   21 1
    13    7    8 1
    14    7    9 1
    15    7   13 1
    16    8   22 1
    17    9   10 2
    18    9   11 1
    19    9   12 1
    20   13   14 2
    21   13   15 1
    22   13   16 1
    23   16   23 1
