@<TRIPOS>MOLECULE
ZINC03783527
   69    73     0     0     0
SMALL
USER_CHARGES
3-amino-3-methyl-N-[5-oxo-6-[[4-[2-(1H-tetrazol-5-yl)phenyl]phenyl]methyl]-6-azabicyclo[5.4.0]undeca-8,10,12-trien-4-yl]-butanamide
@<TRIPOS>ATOM
      1 C1         -2.0824    4.1369   -5.5458 C.3       1 <0>        -0.1904
      2 C2         -2.0928    2.7903   -6.2722 C.3       1 <0>         0.0816
      3 C3         -0.6582    2.3866   -6.6185 C.3       1 <0>        -0.1847
      4 C4         -2.7173    1.7271   -5.3665 C.3       1 <0>        -0.1655
      5 C5         -1.9093    1.6084   -4.1000 C.2       1 <0>         0.5264
      6 O1         -0.9303    2.3056   -3.9378 O.2       1 <0>        -0.5244
      7 N1         -2.2746    0.7275   -3.1477 N.am      1 <0>        -0.6954
      8 C6         -1.4890    0.6121   -1.9165 C.3       1 <0>         0.1299
      9 H1         -0.4342    0.7587   -2.1487 H         1 <0>         0.1168
     10 C7         -1.6853   -0.7828   -1.3219 C.3       1 <0>        -0.1134
     11 C8         -1.2207   -0.7868    0.1364 C.3       1 <0>        -0.0861
     12 C9          0.0774   -0.0379    0.2713 C.ar      1 <0>        -0.1022
     13 C10         1.2664   -0.7246    0.4231 C.ar      1 <0>        -0.0938
     14 C11         2.4520   -0.0283    0.5712 C.ar      1 <0>        -0.1254
     15 C12         2.4530    1.3548    0.5675 C.ar      1 <0>        -0.0995
     16 C13         1.2673    2.0471    0.4112 C.ar      1 <0>        -0.1260
     17 C14         0.0785    1.3491    0.2575 C.ar      1 <0>         0.1457
     18 N2         -1.1298    2.0350    0.0714 N.am      1 <0>        -0.5466
     19 C15        -1.9338    1.6682   -0.9439 C.2       1 <0>         0.5126
     20 O2         -3.0202    2.1915   -1.0744 O.2       1 <0>        -0.5165
     21 C16        -1.5108    3.1308    0.9661 C.3       1 <0>         0.1600
     22 C17        -2.2279    2.5718    2.1679 C.ar      1 <0>        -0.1117
     23 C18        -3.6048    2.4389    2.1484 C.ar      1 <0>        -0.1064
     24 C19        -4.2664    1.9232    3.2441 C.ar      1 <0>         0.0115
     25 C20        -3.5456    1.5462    4.3764 C.ar      1 <0>        -0.0378
     26 C21        -2.1587    1.6874    4.3922 C.ar      1 <0>        -0.1050
     27 C22        -1.5074    2.1990    3.2883 C.ar      1 <0>        -0.1268
     28 C23        -4.2510    0.9969    5.5586 C.ar      1 <0>        -0.0376
     29 C24        -3.8211   -0.1927    6.1401 C.ar      1 <0>        -0.1109
     30 C25        -4.4779   -0.6983    7.2439 C.ar      1 <0>        -0.1313
     31 C26        -5.5719   -0.0346    7.7735 C.ar      1 <0>        -0.1208
     32 C27        -6.0154    1.1428    7.2072 C.ar      1 <0>        -0.0997
     33 C28        -5.3610    1.6708    6.0954 C.ar      1 <0>         0.0475
     34 C29        -5.8323    2.9319    5.4845 C.2       1 <0>         0.1219
     35 N3         -6.9304    4.7707    5.0052 N.2       1 <0>        -0.2057
     36 N4         -5.9626    4.6111    4.1690 N.2       1 <0>        -0.1583
     37 N5         -5.3108    3.5378    4.4379 N.2       1 <0>        -0.3855
     38 H2         -1.4980    4.0510   -4.6298 H         1 <0>         0.1308
     39 H3         -1.6375    4.8944   -6.1910 H         1 <0>         0.0808
     40 H4         -3.1045    4.4245   -5.2991 H         1 <0>         0.0775
     41 H5         -0.6656    1.4273   -7.1360 H         1 <0>         0.0747
     42 H6         -0.2133    3.1441   -7.2637 H         1 <0>         0.0805
     43 H7         -0.0738    2.3008   -5.7024 H         1 <0>         0.1308
     44 H8         -2.7247    0.7678   -5.8840 H         1 <0>         0.1183
     45 H9         -3.7393    2.0147   -5.1198 H         1 <0>         0.1208
     46 H10        -3.0576    0.1698   -3.2774 H         1 <0>         0.4099
     47 H11        -1.1011   -1.5058   -1.8913 H         1 <0>         0.0873
     48 H12        -2.7406   -1.0520   -1.3677 H         1 <0>         0.0840
     49 H13        -1.0800   -1.8157    0.4676 H         1 <0>         0.0904
     50 H14        -1.9795   -0.3087    0.7559 H         1 <0>         0.0854
     51 H15         1.2700   -1.8046    0.4264 H         1 <0>         0.1281
     52 H16         3.3807   -0.5665    0.6899 H         1 <0>         0.1258
     53 H17         3.3810    1.8941    0.6871 H         1 <0>         0.1279
     54 H18         1.2663    3.1271    0.4080 H         1 <0>         0.1277
     55 H19        -0.6163    3.6620    1.2913 H         1 <0>         0.0855
     56 H20        -2.1701    3.8191    0.4372 H         1 <0>         0.0946
     57 H21        -4.1625    2.7358    1.2725 H         1 <0>         0.1133
     58 H22        -5.3410    1.8161    3.2263 H         1 <0>         0.1126
     59 H23        -1.5951    1.3967    5.2664 H         1 <0>         0.1127
     60 H24        -0.4330    2.3089    3.2994 H         1 <0>         0.1077
     61 H25        -2.9714   -0.7181    5.7299 H         1 <0>         0.1198
     62 H26        -4.1392   -1.6195    7.6946 H         1 <0>         0.1184
     63 H27        -6.0809   -0.4409    8.6350 H         1 <0>         0.1204
     64 H28        -6.8690    1.6555    7.6254 H         1 <0>         0.1300
     65 H29        -2.4879    3.6026   -8.1222 H         1 <0>         0.4387
     66 H30        -2.9565    2.0140   -7.9721 H         1 <0>         0.4333
     67 N6         -6.8703    3.6862    5.8709 N.2       1 <0>        -0.4094
     68 N7         -2.9027    2.9135   -7.4971 N.4       1 <0>        -0.6429
     69 H31        -3.8508    3.2169   -7.2458 H         1 <0>         0.4379
@<TRIPOS>BOND
     1    1    2 1
     2    1   38 1
     3    1   39 1
     4    1   40 1
     5    2    3 1
     6    2    4 1
     7    2   68 1
     8    3   41 1
     9    3   42 1
    10    3   43 1
    11    4    5 1
    12    4   44 1
    13    4   45 1
    14    5    6 2
    15    5    7 am
    16    7    8 1
    17    7   46 1
    18    8    9 1
    19    8   19 1
    20    8   10 1
    21   10   11 1
    22   10   47 1
    23   10   48 1
    24   11   12 1
    25   11   49 1
    26   11   50 1
    27   12   17 ar
    28   12   13 ar
    29   13   14 ar
    30   13   51 1
    31   14   15 ar
    32   14   52 1
    33   15   16 ar
    34   15   53 1
    35   16   17 ar
    36   16   54 1
    37   17   18 1
    38   18   19 am
    39   18   21 1
    40   19   20 2
    41   21   22 1
    42   21   55 1
    43   21   56 1
    44   22   27 ar
    45   22   23 ar
    46   23   24 ar
    47   23   57 1
    48   24   25 ar
    49   24   58 1
    50   25   26 ar
    51   25   28 1
    52   26   27 ar
    53   26   59 1
    54   27   60 1
    55   28   33 ar
    56   28   29 ar
    57   29   30 ar
    58   29   61 1
    59   30   31 ar
    60   30   62 1
    61   31   32 ar
    62   31   63 1
    63   32   33 ar
    64   32   64 1
    65   33   34 1
    66   34   37 2
    67   34   67 1
    68   35   36 2
    69   35   67 1
    70   36   37 1
    71   65   68 1
    72   66   68 1
    73   68   69 1
