@<TRIPOS>MOLECULE
ZINC01543181
   74    77     0     0     0
SMALL
USER_CHARGES
2-amino-N-[2-benzyloxy-1-(methylsulfonylBLAHyl)carbonyl-ethyl]-2-methyl-propanamide
@<TRIPOS>ATOM
      1 C1          2.1238    6.6300   -5.8466 C.3       1 <0>        -0.1635
      2 C2          0.6571    6.4048   -5.4737 C.3       1 <0>         0.0536
      3 C3          0.0095    5.4671   -6.4947 C.3       1 <0>        -0.1733
      4 C4          0.5769    5.7862   -4.1019 C.2       1 <0>         0.5079
      5 O1          1.5105    5.1430   -3.6711 O.2       1 <0>        -0.4463
      6 N1         -0.5325    5.9477   -3.3537 N.am      1 <0>        -0.7136
      7 C5         -0.6105    5.3464   -2.0201 C.3       1 <0>         0.1372
      8 H1         -1.5749    5.5830   -1.5707 H         1 <0>         0.1305
      9 C6          0.5117    5.9045   -1.1425 C.3       1 <0>         0.0436
     10 O2          0.3060    7.3038   -0.9389 O.3       1 <0>        -0.3809
     11 C7          1.3044    7.9261   -0.1276 C.3       1 <0>         0.1060
     12 C8          0.9894    9.3924    0.0201 C.ar      1 <0>        -0.0973
     13 C9          1.4968   10.3032   -0.8876 C.ar      1 <0>        -0.1053
     14 C10         1.2036   11.6476   -0.7552 C.ar      1 <0>        -0.1234
     15 C11         0.4119   12.0825    0.2913 C.ar      1 <0>        -0.1077
     16 C12        -0.0907   11.1724    1.2023 C.ar      1 <0>        -0.1176
     17 C13         0.1978    9.8273    1.0665 C.ar      1 <0>        -0.0959
     18 C14        -0.4627    3.8510   -2.1339 C.2       1 <0>         0.5093
     19 O3          0.0428    3.3652   -3.1236 O.2       1 <0>        -0.5082
     20 N2         -0.8922    3.0534   -1.1359 N.am      1 <0>        -0.6034
     21 C15        -0.7546    1.5938   -1.2330 C.3       1 <0>         0.1084
     22 C16        -0.0127    1.0858    0.0080 C.3       1 <0>        -0.1193
     23 C17        -0.7278    1.5784    1.2632 C.3       1 <0>        -0.0138
     24 C18        -0.7589    3.1036    1.3003 C.3       1 <0>        -0.1206
     25 C19        -1.5060    3.6279    0.0691 C.3       1 <0>         0.0920
     26 C20        -2.1544    1.0169    1.3155 C.3       1 <0>         0.1171
     27 N3         -2.2016    0.2106    2.5395 N.pl3     1 <0>        -0.9390
     28 C21        -0.9657    0.2516    3.1879 C.ar      1 <0>         0.1627
     29 C22        -0.0519    1.0353    2.4982 C.ar      1 <0>        -0.1265
     30 C23         1.2315    1.2020    2.9813 C.ar      1 <0>        -0.0704
     31 C24         1.6167    0.5871    4.1581 C.ar      1 <0>        -0.1398
     32 C25         0.7139   -0.1967    4.8523 C.ar      1 <0>        -0.0789
     33 C26        -0.5683   -0.3667    4.3748 C.ar      1 <0>        -0.1509
     34 S1         -3.5271   -0.6253    3.0749 S.o2      1 <0>         2.6084
     35 O4         -3.3538   -0.7169    4.4823 O.2       1 <0>        -0.9341
     36 O5         -4.6392    0.0679    2.5255 O.2       1 <0>        -0.9410
     37 C27        -3.3791   -2.2676    2.3189 C.3       1 <0>        -0.6687
     38 H2          2.6493    5.6750   -5.8474 H         1 <0>         0.1184
     39 H3          2.1818    7.0774   -6.8389 H         1 <0>         0.0937
     40 H4          2.5851    7.2980   -5.1193 H         1 <0>         0.0858
     41 H5         -1.0354    5.3067   -6.2290 H         1 <0>         0.0856
     42 H6          0.0676    5.9145   -7.4869 H         1 <0>         0.0977
     43 H7          0.5350    4.5121   -6.4954 H         1 <0>         0.1162
     44 H8         -1.2792    6.4621   -3.6982 H         1 <0>         0.3976
     45 H9          0.5088    5.3929   -0.1800 H         1 <0>         0.0728
     46 H10         1.4711    5.7462   -1.6352 H         1 <0>         0.0816
     47 H11         1.3179    7.4565    0.8559 H         1 <0>         0.0648
     48 H12         2.2801    7.8098   -0.5993 H         1 <0>         0.0603
     49 H13         2.1189    9.9639   -1.7027 H         1 <0>         0.1175
     50 H14         1.5960   12.3586   -1.4671 H         1 <0>         0.1248
     51 H15         0.1859   13.1333    0.3969 H         1 <0>         0.1267
     52 H16        -0.7092   11.5121    2.0199 H         1 <0>         0.1280
     53 H17        -0.1949    9.1163    1.7783 H         1 <0>         0.1247
     54 H18        -0.1871    1.3389   -2.1280 H         1 <0>         0.1008
     55 H19        -1.7426    1.1360   -1.2812 H         1 <0>         0.0757
     56 H20         0.0021   -0.0041    0.0020 H         1 <0>         0.0860
     57 H21         1.0098    1.4633    0.0003 H         1 <0>         0.0790
     58 H22         0.2611    3.4880    1.2976 H         1 <0>         0.0783
     59 H23        -1.2699    3.4352    2.2042 H         1 <0>         0.0892
     60 H24        -1.4339    4.7149    0.0333 H         1 <0>         0.0900
     61 H25        -2.5533    3.3305    0.1230 H         1 <0>         0.0847
     62 H26        -2.8793    1.8291    1.3690 H         1 <0>         0.0924
     63 H27        -2.3483    0.3940    0.4423 H         1 <0>         0.0847
     64 H28         1.9358    1.8148    2.4383 H         1 <0>         0.1218
     65 H29         2.6204    0.7190    4.5344 H         1 <0>         0.1290
     66 H30         1.0140   -0.6778    5.7715 H         1 <0>         0.1332
     67 H31        -1.2688   -0.9800    4.9220 H         1 <0>         0.1440
     68 H32        -2.4494   -2.7348    2.6440 H         1 <0>         0.1328
     69 H33        -4.2228   -2.8860    2.6252 H         1 <0>         0.1375
     70 H34        -3.3760   -2.1690    1.2334 H         1 <0>         0.1299
     71 H35         0.3580    8.3291   -4.8060 H         1 <0>         0.4423
     72 H36        -0.0671    8.0964   -6.3969 H         1 <0>         0.4445
     73 N4         -0.0741    7.6841   -5.4655 N.4       1 <0>        -0.6428
     74 H37        -1.0462    7.5154   -5.1811 H         1 <0>         0.4335
@<TRIPOS>BOND
     1    1    2 1
     2    1   38 1
     3    1   39 1
     4    1   40 1
     5    2    3 1
     6    2    4 1
     7    2   73 1
     8    3   41 1
     9    3   42 1
    10    3   43 1
    11    4    5 2
    12    4    6 am
    13    6    7 1
    14    6   44 1
    15    7    8 1
    16    7    9 1
    17    7   18 1
    18    9   10 1
    19    9   45 1
    20    9   46 1
    21   10   11 1
    22   11   12 1
    23   11   47 1
    24   11   48 1
    25   12   17 ar
    26   12   13 ar
    27   13   14 ar
    28   13   49 1
    29   14   15 ar
    30   14   50 1
    31   15   16 ar
    32   15   51 1
    33   16   17 ar
    34   16   52 1
    35   17   53 1
    36   18   19 2
    37   18   20 am
    38   20   25 1
    39   20   21 1
    40   21   22 1
    41   21   54 1
    42   21   55 1
    43   22   23 1
    44   22   56 1
    45   22   57 1
    46   23   29 1
    47   23   24 1
    48   23   26 1
    49   24   25 1
    50   24   58 1
    51   24   59 1
    52   25   60 1
    53   25   61 1
    54   26   27 1
    55   26   62 1
    56   26   63 1
    57   27   28 1
    58   27   34 1
    59   28   33 ar
    60   28   29 ar
    61   29   30 ar
    62   30   31 ar
    63   30   64 1
    64   31   32 ar
    65   31   65 1
    66   32   33 ar
    67   32   66 1
    68   33   67 1
    69   34   35 2
    70   34   36 2
    71   34   37 1
    72   37   68 1
    73   37   69 1
    74   37   70 1
    75   71   73 1
    76   72   73 1
    77   73   74 1
@<TRIPOS>MOLECULE
ZINC02086480
   49    51     0     0     0
SMALL
USER_CHARGES
3-(2,6-dichlorophenyl)-N-(4-diethylaminophenyl)-5-methyl-isoxazole-4-carboxamide
@<TRIPOS>ATOM
      1 C1         -9.8063    4.7648    1.1642 C.3       1 <0>        -0.1735
      2 C2         -9.0587    3.4854    0.7834 C.3       1 <0>         0.1189
      3 N1         -8.4137    3.6661   -0.5195 N.pl3     1 <0>        -0.6280
      4 C3         -9.1333    3.3191   -1.7475 C.3       1 <0>         0.1181
      5 C4         -8.8607    1.8560   -2.1023 C.3       1 <0>        -0.1727
      6 C5         -7.1105    4.1700   -0.5910 C.ar      1 <0>         0.2098
      7 C6         -6.4990    4.3414   -1.8261 C.ar      1 <0>        -0.1783
      8 C7         -5.2131    4.8391   -1.8966 C.ar      1 <0>        -0.0673
      9 C8         -4.5312    5.1684   -0.7326 C.ar      1 <0>         0.0837
     10 C9         -5.1405    4.9918    0.5027 C.ar      1 <0>        -0.0914
     11 C10        -6.4284    4.4994    0.5731 C.ar      1 <0>        -0.1790
     12 N2         -3.2264    5.6735   -0.8042 N.am      1 <0>        -0.6586
     13 C11        -2.8612    6.4520   -1.8419 C.2       1 <0>         0.5994
     14 O1         -3.6866    6.7891   -2.6694 O.2       1 <0>        -0.4913
     15 C12        -1.4629    6.8945   -1.9741 C.2       1 <0>        -0.2332
     16 C13        -0.4541    6.3330   -2.7155 C.2       1 <0>         0.0270
     17 O2          0.6294    7.0872   -2.5168 O.3       1 <0>         0.1133
     18 N3          0.4347    8.0200   -1.7766 N.2       1 <0>        -0.3196
     19 C14        -0.7992    8.0537   -1.3411 C.2       1 <0>         0.0853
     20 C15        -1.4025    9.0444   -0.4176 C.ar      1 <0>        -0.0166
     21 C16        -0.8638    9.2342    0.8550 C.ar      1 <0>        -0.0011
     22 C17        -1.4303   10.1591    1.7106 C.ar      1 <0>        -0.1090
     23 C18        -2.5288   10.8964    1.3075 C.ar      1 <0>        -0.0779
     24 C19        -3.0709   10.7091    0.0490 C.ar      1 <0>        -0.1073
     25 C20        -2.5108    9.7908   -0.8178 C.ar      1 <0>        -0.0063
     26 Cl1        -3.1882    9.5623   -2.3998 Cl        1 <0>        -0.0215
     27 Cl2         0.5157    8.3106    1.3623 Cl        1 <0>        -0.0413
     28 C21        -0.5506    5.1057   -3.5848 C.3       1 <0>        -0.0811
     29 H1        -10.2862    4.6303    2.1336 H         1 <0>         0.0637
     30 H2         -9.1017    5.5946    1.2196 H         1 <0>         0.0586
     31 H3        -10.5637    4.9810    0.4107 H         1 <0>         0.0558
     32 H4         -9.7634    2.6556    0.7280 H         1 <0>         0.0729
     33 H5         -8.3014    3.2692    1.5369 H         1 <0>         0.0748
     34 H6        -10.2029    3.4628   -1.5948 H         1 <0>         0.0728
     35 H7         -8.7932    3.9597   -2.5612 H         1 <0>         0.0754
     36 H8         -7.7911    1.7124   -2.2550 H         1 <0>         0.0586
     37 H9         -9.2008    1.2154   -1.2886 H         1 <0>         0.0556
     38 H10        -9.3961    1.5979   -3.0160 H         1 <0>         0.0639
     39 H11        -7.0291    4.0850   -2.7314 H         1 <0>         0.1253
     40 H12        -4.7377    4.9727   -2.8570 H         1 <0>         0.1324
     41 H13        -4.6085    5.2438    1.4082 H         1 <0>         0.1228
     42 H14        -6.9039    4.3662    1.5337 H         1 <0>         0.1259
     43 H15        -2.5859    5.4628   -0.1069 H         1 <0>         0.4088
     44 H16        -1.0142   10.3071    2.6961 H         1 <0>         0.1476
     45 H17        -2.9681   11.6183    1.9801 H         1 <0>         0.1488
     46 H18        -3.9315   11.2848   -0.2582 H         1 <0>         0.1474
     47 H19        -0.8354    5.3978   -4.5955 H         1 <0>         0.0997
     48 H20         0.4157    4.6021   -3.6108 H         1 <0>         0.0949
     49 H21        -1.3018    4.4296   -3.1766 H         1 <0>         0.0937
@<TRIPOS>BOND
     1    1    2 1
     2    1   29 1
     3    1   30 1
     4    1   31 1
     5    2    3 1
     6    2   32 1
     7    2   33 1
     8    3    4 1
     9    3    6 1
    10    4    5 1
    11    4   34 1
    12    4   35 1
    13    5   36 1
    14    5   37 1
    15    5   38 1
    16    6   11 ar
    17    6    7 ar
    18    7    8 ar
    19    7   39 1
    20    8    9 ar
    21    8   40 1
    22    9   10 ar
    23    9   12 1
    24   10   11 ar
    25   10   41 1
    26   11   42 1
    27   12   13 am
    28   12   43 1
    29   13   14 2
    30   13   15 1
    31   15   19 1
    32   15   16 2
    33   16   17 1
    34   16   28 1
    35   17   18 1
    36   18   19 2
    37   19   20 1
    38   20   25 ar
    39   20   21 ar
    40   21   22 ar
    41   21   27 1
    42   22   23 ar
    43   22   44 1
    44   23   24 ar
    45   23   45 1
    46   24   25 ar
    47   24   46 1
    48   25   26 1
    49   28   47 1
    50   28   48 1
    51   28   49 1
@<TRIPOS>MOLECULE
ZINC06511204
   81    84     0     0     0
SMALL
USER_CHARGES
N-[cyclohexylcarbamoyl-(4-fluorophenyl)-methyl]-N-(3-diethylaminopropyl)-5-phenyl-1H-pyrrole-2-carboxamide
@<TRIPOS>ATOM
      1 C1          0.3123    0.0586   -1.1854 C.3       1 <0>        -0.1884
      2 C2          0.8669    1.1777   -0.3016 C.3       1 <0>        -0.0161
      3 C3          1.2977    2.6409   -2.1821 C.3       1 <0>        -0.0171
      4 C4          0.2754    3.6574   -1.6698 C.3       1 <0>        -0.1889
      5 C5          2.6113    2.8508   -0.1590 C.3       1 <0>        -0.0203
      6 C6          3.8712    3.3549   -0.8658 C.3       1 <0>        -0.2260
      7 C7          4.7168    4.1674    0.1168 C.3       1 <0>         0.0965
      8 N1          5.8939    4.6985   -0.5749 N.am      1 <0>        -0.5887
      9 C8          5.8764    6.0627   -1.1086 C.3       1 <0>         0.1645
     10 H1          6.8666    6.3180   -1.4859 H         1 <0>         0.1436
     11 C9          4.8735    6.1506   -2.2301 C.ar      1 <0>        -0.1177
     12 C10         3.5267    5.9833   -1.9669 C.ar      1 <0>        -0.0876
     13 C11         2.6056    6.0692   -2.9936 C.ar      1 <0>        -0.1655
     14 C12         3.0332    6.3113   -4.2881 C.ar      1 <0>         0.1179
     15 C13         4.3829    6.4731   -4.5513 C.ar      1 <0>        -0.1439
     16 C14         5.3016    6.3928   -3.5221 C.ar      1 <0>        -0.0577
     17 F1          2.1343    6.3892   -5.2936 F         1 <0>        -0.1302
     18 C15         5.4921    7.0252   -0.0146 C.2       1 <0>         0.5130
     19 O1          5.2276    6.6095    1.0936 O.2       1 <0>        -0.5290
     20 N2          5.4424    8.3481   -0.2676 N.am      1 <0>        -0.7126
     21 C16         5.0689    9.2838    0.7959 C.3       1 <0>         0.1442
     22 C17         3.5443    9.3896    0.8700 C.3       1 <0>        -0.1234
     23 C18         3.1542   10.3668    1.9807 C.3       1 <0>        -0.1181
     24 C19         3.7470   11.7447    1.6792 C.3       1 <0>        -0.1241
     25 C20         5.2715   11.6389    1.6052 C.3       1 <0>        -0.1174
     26 C21         5.6617   10.6617    0.4944 C.3       1 <0>        -0.1281
     27 C22         6.9929    3.9321   -0.7204 C.2       1 <0>         0.5963
     28 O2          8.0103    4.4094   -1.1879 O.2       1 <0>        -0.5026
     29 C23         6.9631    2.5236   -0.3154 C.2       1 <0>        -0.0496
     30 C24         8.0285    1.6464   -0.3502 C.2       1 <0>        -0.0836
     31 C25         7.5719    0.4159    0.1185 C.2       1 <0>        -0.1717
     32 C26         6.2374    0.5573    0.4325 C.2       1 <0>         0.0768
     33 N3          5.8662    1.8416    0.1617 N.pl3     1 <0>        -0.5538
     34 H2          4.9789    2.2129    0.2866 H         1 <0>         0.4127
     35 C27         5.3570   -0.5036    0.9656 C.ar      1 <0>        -0.0193
     36 C28         4.0461   -0.2041    1.3404 C.ar      1 <0>        -0.1446
     37 C29         3.2299   -1.1988    1.8377 C.ar      1 <0>        -0.1141
     38 C30         3.7079   -2.4910    1.9654 C.ar      1 <0>        -0.1108
     39 C31         5.0063   -2.7945    1.5961 C.ar      1 <0>        -0.0992
     40 C32         5.8331   -1.8092    1.0974 C.ar      1 <0>        -0.0911
     41 H3         -0.1322    0.4903   -2.0821 H         1 <0>         0.0815
     42 H4          1.1209   -0.6151   -1.4688 H         1 <0>         0.0816
     43 H5         -0.4470   -0.4966   -0.6347 H         1 <0>         0.1087
     44 H6          1.3114    0.7460    0.5951 H         1 <0>         0.1280
     45 H7          0.0583    1.8514   -0.0182 H         1 <0>         0.1370
     46 H8          2.0819    3.1602   -2.7330 H         1 <0>         0.1269
     47 H9          0.8022    1.9277   -2.8409 H         1 <0>         0.1353
     48 H10        -0.4943    3.1411   -1.0961 H         1 <0>         0.0851
     49 H11         0.7759    4.3864   -1.0325 H         1 <0>         0.0796
     50 H12        -0.1837    4.1689   -2.5158 H         1 <0>         0.1089
     51 H13         2.8919    2.3322    0.7577 H         1 <0>         0.1266
     52 H14         1.9682    3.6966    0.0843 H         1 <0>         0.1480
     53 H15         3.5874    3.9852   -1.7086 H         1 <0>         0.1225
     54 H16         4.4501    2.5047   -1.2267 H         1 <0>         0.0990
     55 H17         5.0366    3.5258    0.9379 H         1 <0>         0.0916
     56 H18         4.1236    4.9928    0.5105 H         1 <0>         0.1240
     57 H19         3.1939    5.7894   -0.9579 H         1 <0>         0.1303
     58 H20         1.5531    5.9433   -2.7870 H         1 <0>         0.1385
     59 H21         4.7176    6.6616   -5.5607 H         1 <0>         0.1469
     60 H22         6.3544    6.5189   -3.7272 H         1 <0>         0.1449
     61 H23         5.6540    8.6807   -1.1539 H         1 <0>         0.4035
     62 H24         5.4548    8.9230    1.7494 H         1 <0>         0.0918
     63 H25         3.1585    9.7504   -0.0835 H         1 <0>         0.0641
     64 H26         3.1220    8.4079    1.0848 H         1 <0>         0.0614
     65 H27         3.5401   10.0060    2.9341 H         1 <0>         0.0652
     66 H28         2.0681   10.4421    2.0334 H         1 <0>         0.0661
     67 H29         3.4691   12.4408    2.4705 H         1 <0>         0.0676
     68 H30         3.3611   12.1055    0.7257 H         1 <0>         0.0637
     69 H31         5.6574   11.2781    2.5586 H         1 <0>         0.0666
     70 H32         5.6938   12.6205    1.3903 H         1 <0>         0.0716
     71 H33         6.7478   10.5864    0.4417 H         1 <0>         0.0715
     72 H34         5.2758   11.0225   -0.4590 H         1 <0>         0.0698
     73 H35         9.0319    1.8724   -0.6796 H         1 <0>         0.1582
     74 H36         8.1580   -0.4858    0.2174 H         1 <0>         0.1536
     75 H37         3.6717    0.8040    1.2409 H         1 <0>         0.0970
     76 H38         2.2141   -0.9694    2.1239 H         1 <0>         0.1249
     77 H39         3.0647   -3.2660    2.3552 H         1 <0>         0.1307
     78 H40         5.3733   -3.8051    1.6983 H         1 <0>         0.1352
     79 H41         6.8465   -2.0473    0.8099 H         1 <0>         0.1361
     80 N4          1.9092    1.9071   -1.0541 N.4       1 <0>        -0.3953
     81 H42         2.5877    1.2313   -1.4245 H         1 <0>         0.4278
@<TRIPOS>BOND
     1    1    2 1
     2    1   41 1
     3    1   42 1
     4    1   43 1
     5    2   44 1
     6    2   45 1
     7    2   80 1
     8    3    4 1
     9    3   46 1
    10    3   47 1
    11    3   80 1
    12    4   48 1
    13    4   49 1
    14    4   50 1
    15    5    6 1
    16    5   51 1
    17    5   52 1
    18    5   80 1
    19    6    7 1
    20    6   53 1
    21    6   54 1
    22    7    8 1
    23    7   55 1
    24    7   56 1
    25    8    9 1
    26    8   27 am
    27    9   10 1
    28    9   11 1
    29    9   18 1
    30   11   16 ar
    31   11   12 ar
    32   12   13 ar
    33   12   57 1
    34   13   14 ar
    35   13   58 1
    36   14   15 ar
    37   14   17 1
    38   15   16 ar
    39   15   59 1
    40   16   60 1
    41   18   19 2
    42   18   20 am
    43   20   21 1
    44   20   61 1
    45   21   26 1
    46   21   22 1
    47   21   62 1
    48   22   23 1
    49   22   63 1
    50   22   64 1
    51   23   24 1
    52   23   65 1
    53   23   66 1
    54   24   25 1
    55   24   67 1
    56   24   68 1
    57   25   26 1
    58   25   69 1
    59   25   70 1
    60   26   71 1
    61   26   72 1
    62   27   28 2
    63   27   29 1
    64   29   33 1
    65   29   30 2
    66   30   31 1
    67   30   73 1
    68   31   32 2
    69   31   74 1
    70   32   33 1
    71   32   35 1
    72   33   34 1
    73   35   40 ar
    74   35   36 ar
    75   36   37 ar
    76   36   75 1
    77   37   38 ar
    78   37   76 1
    79   38   39 ar
    80   38   77 1
    81   39   40 ar
    82   39   78 1
    83   40   79 1
    84   80   81 1
@<TRIPOS>MOLECULE
ZINC06511233
   81    84     0     0     0
SMALL
USER_CHARGES
N-[cyclohexylcarbamoyl-(4-fluorophenyl)-methyl]-N-(3-diethylaminopropyl)-5-phenyl-1H-pyrrole-2-carboxamide
@<TRIPOS>ATOM
      1 C1          2.3005   -3.8400    3.8894 C.3       1 <0>        -0.1846
      2 C2          1.5903   -2.5304    3.5410 C.3       1 <0>        -0.0229
      3 C3         -0.5966   -3.2218    4.3168 C.3       1 <0>        -0.0116
      4 C4         -1.8485   -3.9623    3.8420 C.3       1 <0>        -0.1883
      5 C5         -0.4028   -1.6583    2.4782 C.3       1 <0>        -0.0128
      6 C6          0.1450   -1.5556    1.0533 C.3       1 <0>        -0.2121
      7 C7         -0.3775   -0.2761    0.3971 C.3       1 <0>         0.1093
      8 N1          0.1491   -0.1764   -0.9664 N.am      1 <0>        -0.5919
      9 C8         -0.7615   -0.2581   -2.1111 C.3       1 <0>         0.1681
     10 H1         -0.1824   -0.3346   -3.0313 H         1 <0>         0.1444
     11 C9         -1.6201    0.9795   -2.1593 C.ar      1 <0>        -0.1201
     12 C10        -2.0119    1.5945   -0.9849 C.ar      1 <0>        -0.0924
     13 C11        -2.7952    2.7322   -1.0280 C.ar      1 <0>        -0.1483
     14 C12        -3.1963    3.2500   -2.2478 C.ar      1 <0>         0.1151
     15 C13        -2.8076    2.6302   -3.4233 C.ar      1 <0>        -0.1412
     16 C14        -2.0199    1.4956   -3.3779 C.ar      1 <0>        -0.0743
     17 F1         -3.9660    4.3595   -2.2911 F         1 <0>        -0.1306
     18 C15        -1.6404   -1.4739   -1.9681 C.2       1 <0>         0.5241
     19 O1         -1.5182   -2.2006   -1.0048 O.2       1 <0>        -0.5440
     20 N2         -2.5622   -1.7537   -2.9106 N.am      1 <0>        -0.7115
     21 C16        -3.4166   -2.9356   -2.7716 C.3       1 <0>         0.1485
     22 C17        -2.6882   -4.1600   -3.3296 C.3       1 <0>        -0.1289
     23 C18        -3.5805   -5.3943   -3.1844 C.3       1 <0>        -0.1157
     24 C19        -4.8813   -5.1774   -3.9601 C.3       1 <0>        -0.1257
     25 C20        -5.6097   -3.9531   -3.4022 C.3       1 <0>        -0.1154
     26 C21        -4.7174   -2.7187   -3.5474 C.3       1 <0>        -0.1294
     27 C22         1.4713   -0.0096   -1.1676 C.2       1 <0>         0.5958
     28 O2          1.9214   -0.0244   -2.2984 O.2       1 <0>        -0.5012
     29 C23         2.3672    0.1896   -0.0247 C.2       1 <0>        -0.0484
     30 C24         3.7371    0.3495   -0.0855 C.2       1 <0>        -0.0841
     31 C25         4.1973    0.5094    1.2201 C.2       1 <0>        -0.1707
     32 C26         3.1057    0.4453    2.0590 C.2       1 <0>         0.0726
     33 N3          1.9897    0.2562    1.2977 N.pl3     1 <0>        -0.5523
     34 H2          1.0825    0.1788    1.6322 H         1 <0>         0.4140
     35 C27         3.1379    0.5678    3.5316 C.ar      1 <0>        -0.0233
     36 C28         1.9572    0.4667    4.2695 C.ar      1 <0>        -0.1466
     37 C29         1.9949    0.5771    5.6440 C.ar      1 <0>        -0.1135
     38 C30         3.1980    0.7982    6.2906 C.ar      1 <0>        -0.1095
     39 C31         4.3712    0.9046    5.5649 C.ar      1 <0>        -0.0995
     40 C32         4.3483    0.7908    4.1903 C.ar      1 <0>        -0.0911
     41 H3          1.7837   -4.3244    4.7179 H         1 <0>         0.0815
     42 H4          2.2933   -4.4994    3.0214 H         1 <0>         0.0811
     43 H5          3.3305   -3.6294    4.1771 H         1 <0>         0.1077
     44 H6          2.1071   -2.0461    2.7125 H         1 <0>         0.1244
     45 H7          1.5975   -1.8711    4.4089 H         1 <0>         0.1356
     46 H8         -0.0039   -3.8803    4.9518 H         1 <0>         0.1325
     47 H9         -0.8902   -2.3382    4.8835 H         1 <0>         0.1307
     48 H10        -2.4858   -3.2772    3.2830 H         1 <0>         0.0801
     49 H11        -1.5573   -4.7935    3.1998 H         1 <0>         0.0808
     50 H12        -2.3942   -4.3438    4.7050 H         1 <0>         0.1069
     51 H13        -0.1597   -0.7487    3.0274 H         1 <0>         0.1184
     52 H14        -1.4851   -1.7834    2.4433 H         1 <0>         0.1419
     53 H15        -0.1818   -2.4200    0.4753 H         1 <0>         0.1378
     54 H16         1.2342   -1.5296    1.0838 H         1 <0>         0.0999
     55 H17        -1.4667   -0.3029    0.3648 H         1 <0>         0.1165
     56 H18        -0.0523    0.5882    0.9762 H         1 <0>         0.0717
     57 H19        -1.7023    1.1880   -0.0334 H         1 <0>         0.1328
     58 H20        -3.0978    3.2148   -0.1104 H         1 <0>         0.1402
     59 H21        -3.1202    3.0331   -4.3754 H         1 <0>         0.1461
     60 H22        -1.7169    1.0118   -4.2947 H         1 <0>         0.1402
     61 H23        -2.6600   -1.1725   -3.6811 H         1 <0>         0.4043
     62 H24        -3.6445   -3.0973   -1.7180 H         1 <0>         0.0888
     63 H25        -2.4603   -3.9983   -4.3831 H         1 <0>         0.0670
     64 H26        -1.7615   -4.3145   -2.7769 H         1 <0>         0.0647
     65 H27        -3.8084   -5.5560   -2.1308 H         1 <0>         0.0618
     66 H28        -3.0615   -6.2665   -3.5819 H         1 <0>         0.0674
     67 H29        -5.5169   -6.0568   -3.8567 H         1 <0>         0.0674
     68 H30        -4.6534   -5.0157   -5.0137 H         1 <0>         0.0656
     69 H31        -5.8376   -4.1148   -2.3486 H         1 <0>         0.0640
     70 H32        -6.5364   -3.7985   -3.9548 H         1 <0>         0.0714
     71 H33        -5.2364   -1.8465   -3.1499 H         1 <0>         0.0699
     72 H34        -4.4895   -2.5570   -4.6009 H         1 <0>         0.0716
     73 H35         4.3413    0.3500   -0.9807 H         1 <0>         0.1581
     74 H36         5.2242    0.6573    1.5204 H         1 <0>         0.1535
     75 H37         1.0169    0.2983    3.7656 H         1 <0>         0.1019
     76 H38         1.0827    0.4954    6.2164 H         1 <0>         0.1273
     77 H39         3.2215    0.8877    7.3667 H         1 <0>         0.1311
     78 H40         5.3070    1.0768    6.0757 H         1 <0>         0.1352
     79 H41         5.2648    0.8737    3.6250 H         1 <0>         0.1360
     80 N4          0.2024   -2.8362    3.1347 N.4       1 <0>        -0.3929
     81 H42         0.2142   -3.6189    2.4703 H         1 <0>         0.4288
@<TRIPOS>BOND
     1    1    2 1
     2    1   41 1
     3    1   42 1
     4    1   43 1
     5    2   44 1
     6    2   45 1
     7    2   80 1
     8    3    4 1
     9    3   46 1
    10    3   47 1
    11    3   80 1
    12    4   48 1
    13    4   49 1
    14    4   50 1
    15    5    6 1
    16    5   51 1
    17    5   52 1
    18    5   80 1
    19    6    7 1
    20    6   53 1
    21    6   54 1
    22    7    8 1
    23    7   55 1
    24    7   56 1
    25    8    9 1
    26    8   27 am
    27    9   10 1
    28    9   11 1
    29    9   18 1
    30   11   16 ar
    31   11   12 ar
    32   12   13 ar
    33   12   57 1
    34   13   14 ar
    35   13   58 1
    36   14   15 ar
    37   14   17 1
    38   15   16 ar
    39   15   59 1
    40   16   60 1
    41   18   19 2
    42   18   20 am
    43   20   21 1
    44   20   61 1
    45   21   26 1
    46   21   22 1
    47   21   62 1
    48   22   23 1
    49   22   63 1
    50   22   64 1
    51   23   24 1
    52   23   65 1
    53   23   66 1
    54   24   25 1
    55   24   67 1
    56   24   68 1
    57   25   26 1
    58   25   69 1
    59   25   70 1
    60   26   71 1
    61   26   72 1
    62   27   28 2
    63   27   29 1
    64   29   33 1
    65   29   30 2
    66   30   31 1
    67   30   73 1
    68   31   32 2
    69   31   74 1
    70   32   33 1
    71   32   35 1
    72   33   34 1
    73   35   40 ar
    74   35   36 ar
    75   36   37 ar
    76   36   75 1
    77   37   38 ar
    78   37   76 1
    79   38   39 ar
    80   38   77 1
    81   39   40 ar
    82   39   78 1
    83   40   79 1
    84   80   81 1
@<TRIPOS>MOLECULE
ZINC06511795
   78    81     0     0     0
SMALL
USER_CHARGES
N-[cyclohexylcarbamoyl-(4-fluorophenyl)-methyl]-N-(2-diethylaminoethyl)-5-phenyl-1H-pyrrole-2-carboxamide
@<TRIPOS>ATOM
      1 C1         -0.9042    5.6349    0.4857 C.3       1 <0>        -0.1881
      2 C2          0.4876    5.7327   -0.1421 C.3       1 <0>        -0.0184
      3 C3          0.7947    3.3312   -0.1771 C.3       1 <0>        -0.0117
      4 C4          1.3567    2.1871    0.6691 C.3       1 <0>        -0.1985
      5 C5          2.7192    4.7963   -0.0650 C.3       1 <0>        -0.0816
      6 C6          3.3205    5.9540    0.7344 C.3       1 <0>         0.0741
      7 N1          4.7326    6.1122    0.3777 N.am      1 <0>        -0.5714
      8 C7          5.1482    7.2109   -0.4977 C.3       1 <0>         0.1657
      9 H1          6.2367    7.2600   -0.5274 H         1 <0>         0.1457
     10 C8          4.6181    6.9734   -1.8883 C.ar      1 <0>        -0.1197
     11 C9          3.2569    6.8518   -2.0970 C.ar      1 <0>        -0.0997
     12 C10         2.7692    6.6396   -3.3726 C.ar      1 <0>        -0.1556
     13 C11         3.6452    6.5370   -4.4399 C.ar      1 <0>         0.1215
     14 C12         5.0086    6.6533   -4.2288 C.ar      1 <0>        -0.1400
     15 C13         5.4936    6.8716   -2.9532 C.ar      1 <0>        -0.0602
     16 F1          3.1699    6.3232   -5.6864 F         1 <0>        -0.1279
     17 C14         4.6011    8.5108    0.0332 C.2       1 <0>         0.5144
     18 O1          3.8965    8.5140    1.0204 O.2       1 <0>        -0.5313
     19 N2          4.8947    9.6698   -0.5889 N.am      1 <0>        -0.7104
     20 C15         4.3628   10.9335   -0.0727 C.3       1 <0>         0.1442
     21 C16         2.9562   11.1604   -0.6303 C.3       1 <0>        -0.1238
     22 C17         2.4006   12.4801   -0.0912 C.3       1 <0>        -0.1180
     23 C18         3.3120   13.6311   -0.5223 C.3       1 <0>        -0.1246
     24 C19         4.7185   13.4041    0.0353 C.3       1 <0>        -0.1174
     25 C20         5.2741   12.0844   -0.5037 C.3       1 <0>        -0.1286
     26 C21         5.6492    5.2471    0.8548 C.2       1 <0>         0.5924
     27 O2          6.8326    5.4349    0.6409 O.2       1 <0>        -0.5159
     28 C22         5.2210    4.0799    1.6313 C.2       1 <0>        -0.0345
     29 C23         3.9178    3.7418    1.9365 C.2       1 <0>        -0.1861
     30 C24         3.9554    2.5670    2.6852 C.2       1 <0>        -0.1877
     31 C25         5.2773    2.2038    2.8270 C.2       1 <0>         0.1199
     32 N3          6.0482    3.1307    2.1887 N.pl3     1 <0>        -0.5011
     33 H2          7.0166    3.1214    2.1346 H         1 <0>         0.4301
     34 C26         5.7752    1.0161    3.5524 C.ar      1 <0>        -0.0457
     35 C27         7.1458    0.7605    3.6216 C.ar      1 <0>        -0.1122
     36 C28         7.6037   -0.3501    4.2998 C.ar      1 <0>        -0.1103
     37 C29         6.7079   -1.2097    4.9106 C.ar      1 <0>        -0.1039
     38 C30         5.3481   -0.9624    4.8454 C.ar      1 <0>        -0.1129
     39 C31         4.8768    0.1446    4.1704 C.ar      1 <0>        -0.0915
     40 H3         -1.5177    6.4672    0.1407 H         1 <0>         0.1079
     41 H4         -1.3699    4.6941    0.1922 H         1 <0>         0.0829
     42 H5         -0.8165    5.6738    1.5715 H         1 <0>         0.0831
     43 H6          0.9533    6.6735    0.1514 H         1 <0>         0.1284
     44 H7          0.3999    5.6939   -1.2279 H         1 <0>         0.1329
     45 H8         -0.2934    3.3307   -0.1121 H         1 <0>         0.1351
     46 H9          1.0967    3.1973   -1.2158 H         1 <0>         0.1312
     47 H10         2.4459    2.2112    0.6352 H         1 <0>         0.0869
     48 H11         1.0227    2.2999    1.7005 H         1 <0>         0.0834
     49 H12         1.0020    1.2350    0.2744 H         1 <0>         0.1077
     50 H13         2.7753    5.0223   -1.1298 H         1 <0>         0.1434
     51 H14         3.2769    3.8831    0.1425 H         1 <0>         0.1604
     52 H15         3.2366    5.7417    1.8003 H         1 <0>         0.1172
     53 H16         2.7822    6.8732    0.5036 H         1 <0>         0.1226
     54 H17         2.5741    6.9268   -1.2636 H         1 <0>         0.1255
     55 H18         1.7055    6.5495   -3.5362 H         1 <0>         0.1407
     56 H19         5.6929    6.5731   -5.0605 H         1 <0>         0.1482
     57 H20         6.5571    6.9623   -2.7883 H         1 <0>         0.1449
     58 H21         5.4582    9.6672   -1.3784 H         1 <0>         0.4044
     59 H22         4.3198   10.8920    1.0156 H         1 <0>         0.0925
     60 H23         2.9991   11.2018   -1.7187 H         1 <0>         0.0650
     61 H24         2.3069   10.3405   -0.3232 H         1 <0>         0.0616
     62 H25         2.3577   12.4387    0.9971 H         1 <0>         0.0652
     63 H26         1.3986   12.6418   -0.4885 H         1 <0>         0.0669
     64 H27         2.9162   14.5713   -0.1382 H         1 <0>         0.0680
     65 H28         3.3549   13.6725   -1.6106 H         1 <0>         0.0642
     66 H29         4.6756   13.3627    1.1237 H         1 <0>         0.0665
     67 H30         5.3678   14.2241   -0.2717 H         1 <0>         0.0718
     68 H31         6.2761   11.9227   -0.1065 H         1 <0>         0.0713
     69 H32         5.3170   12.1258   -1.5921 H         1 <0>         0.0704
     70 H33         3.0316    4.2874    1.6476 H         1 <0>         0.1454
     71 H34         3.1025    2.0369    3.0828 H         1 <0>         0.1533
     72 H35         7.8461    1.4308    3.1456 H         1 <0>         0.1176
     73 H36         8.6641   -0.5466    4.3580 H         1 <0>         0.1307
     74 H37         7.0716   -2.0777    5.4403 H         1 <0>         0.1305
     75 H38         4.6542   -1.6373    5.3243 H         1 <0>         0.1322
     76 H39         3.8151    0.3363    4.1199 H         1 <0>         0.1292
     77 N4          1.3132    4.6105    0.3515 N.4       1 <0>        -0.3933
     78 H40         1.2691    4.5899    1.3771 H         1 <0>         0.4246
@<TRIPOS>BOND
     1    1    2 1
     2    1   40 1
     3    1   41 1
     4    1   42 1
     5    2   43 1
     6    2   44 1
     7    2   77 1
     8    3    4 1
     9    3   45 1
    10    3   46 1
    11    3   77 1
    12    4   47 1
    13    4   48 1
    14    4   49 1
    15    5    6 1
    16    5   50 1
    17    5   51 1
    18    5   77 1
    19    6    7 1
    20    6   52 1
    21    6   53 1
    22    7    8 1
    23    7   26 am
    24    8    9 1
    25    8   10 1
    26    8   17 1
    27   10   15 ar
    28   10   11 ar
    29   11   12 ar
    30   11   54 1
    31   12   13 ar
    32   12   55 1
    33   13   14 ar
    34   13   16 1
    35   14   15 ar
    36   14   56 1
    37   15   57 1
    38   17   18 2
    39   17   19 am
    40   19   20 1
    41   19   58 1
    42   20   25 1
    43   20   21 1
    44   20   59 1
    45   21   22 1
    46   21   60 1
    47   21   61 1
    48   22   23 1
    49   22   62 1
    50   22   63 1
    51   23   24 1
    52   23   64 1
    53   23   65 1
    54   24   25 1
    55   24   66 1
    56   24   67 1
    57   25   68 1
    58   25   69 1
    59   26   27 2
    60   26   28 1
    61   28   32 1
    62   28   29 2
    63   29   30 1
    64   29   70 1
    65   30   31 2
    66   30   71 1
    67   31   32 1
    68   31   34 1
    69   32   33 1
    70   34   39 ar
    71   34   35 ar
    72   35   36 ar
    73   35   72 1
    74   36   37 ar
    75   36   73 1
    76   37   38 ar
    77   37   74 1
    78   38   39 ar
    79   38   75 1
    80   39   76 1
    81   77   78 1
@<TRIPOS>MOLECULE
ZINC06511828
   78    81     0     0     0
SMALL
USER_CHARGES
N-[cyclohexylcarbamoyl-(4-fluorophenyl)-methyl]-N-(2-diethylaminoethyl)-5-phenyl-1H-pyrrole-2-carboxamide
@<TRIPOS>ATOM
      1 C1          2.7448    5.3948   -3.7860 C.3       1 <0>        -0.1868
      2 C2          2.4275    6.1994   -2.5239 C.3       1 <0>        -0.0087
      3 C3          0.1902    6.5961   -3.3606 C.3       1 <0>        -0.0160
      4 C4          0.4899    8.0786   -3.5916 C.3       1 <0>        -0.1900
      5 C5          0.6151    4.7294   -1.8782 C.3       1 <0>        -0.0814
      6 C6          1.0729    4.4261   -0.4501 C.3       1 <0>         0.0784
      7 N1          0.6129    3.0901   -0.0632 N.am      1 <0>        -0.5882
      8 C7          1.5783    1.9989    0.0903 C.3       1 <0>         0.1671
      9 H1          1.0448    1.0572    0.2186 H         1 <0>         0.1504
     10 C8          2.4401    2.2570    1.2993 C.ar      1 <0>        -0.1213
     11 C9          2.6892    3.5546    1.7057 C.ar      1 <0>        -0.0946
     12 C10         3.4754    3.7923    2.8172 C.ar      1 <0>        -0.1467
     13 C11         4.0222    2.7305    3.5176 C.ar      1 <0>         0.1176
     14 C12         3.7763    1.4314    3.1065 C.ar      1 <0>        -0.1382
     15 C13         2.9855    1.1960    1.9978 C.ar      1 <0>        -0.0740
     16 F1          4.7948    2.9618    4.6015 F         1 <0>        -0.1288
     17 C14         2.4473    1.9205   -1.1385 C.2       1 <0>         0.5282
     18 O1          2.2769    2.6994   -2.0524 O.2       1 <0>        -0.5540
     19 N2          3.4137    0.9848   -1.2218 N.am      1 <0>        -0.7061
     20 C15         4.2585    0.9086   -2.4163 C.3       1 <0>         0.1474
     21 C16         3.5564    0.0681   -3.4847 C.3       1 <0>        -0.1294
     22 C17         4.4386   -0.0115   -4.7322 C.3       1 <0>        -0.1160
     23 C18         5.7761   -0.6603   -4.3704 C.3       1 <0>        -0.1262
     24 C19         6.4782    0.1802   -3.3020 C.3       1 <0>        -0.1153
     25 C20         5.5960    0.2598   -2.0545 C.3       1 <0>        -0.1295
     26 C21        -0.6984    2.8649    0.1516 C.2       1 <0>         0.5972
     27 O2         -1.0927    1.7361    0.3793 O.2       1 <0>        -0.4886
     28 C22        -1.6506    3.9784    0.1051 C.2       1 <0>        -0.0602
     29 C23        -2.9916    3.9135    0.4264 C.2       1 <0>        -0.0707
     30 C24        -3.5264    5.1878    0.2467 C.2       1 <0>        -0.1681
     31 C25        -2.5079    6.0121   -0.1809 C.2       1 <0>         0.0860
     32 N3         -1.3633    5.2743   -0.2610 N.pl3     1 <0>        -0.5641
     33 H2         -0.4933    5.6064   -0.5324 H         1 <0>         0.3976
     34 C26        -2.6329    7.4514   -0.4928 C.ar      1 <0>        -0.0270
     35 C27        -1.4975    8.2038   -0.7983 C.ar      1 <0>        -0.1360
     36 C28        -1.6218    9.5457   -1.0932 C.ar      1 <0>        -0.1085
     37 C29        -2.8672   10.1484   -1.0762 C.ar      1 <0>        -0.1058
     38 C30        -3.9960    9.4096   -0.7691 C.ar      1 <0>        -0.0975
     39 C31        -3.8864    8.0657   -0.4775 C.ar      1 <0>        -0.0877
     40 H3          2.3736    4.3764   -3.6706 H         1 <0>         0.0966
     41 H4          2.2635    5.8618   -4.6452 H         1 <0>         0.0788
     42 H5          3.8235    5.3729   -3.9413 H         1 <0>         0.1044
     43 H6          2.6984    7.2434   -2.6810 H         1 <0>         0.1320
     44 H7          2.9964    5.7987   -1.6849 H         1 <0>         0.1248
     45 H8          0.4419    6.0305   -4.2577 H         1 <0>         0.1421
     46 H9         -0.8691    6.4701   -3.1368 H         1 <0>         0.1259
     47 H10        -0.1772    8.4686   -4.3604 H         1 <0>         0.1111
     48 H11         0.3361    8.6293   -2.6636 H         1 <0>         0.0788
     49 H12         1.5243    8.1940   -3.9154 H         1 <0>         0.0853
     50 H13         1.0926    4.0337   -2.5683 H         1 <0>         0.1936
     51 H14        -0.4675    4.6205   -1.9436 H         1 <0>         0.1355
     52 H15         0.6530    5.1664    0.2309 H         1 <0>         0.0856
     53 H16         2.1612    4.4639   -0.4017 H         1 <0>         0.1259
     54 H17         2.2659    4.3828    1.1568 H         1 <0>         0.1283
     55 H18         3.6665    4.8061    3.1369 H         1 <0>         0.1413
     56 H19         4.2026    0.6024    3.6518 H         1 <0>         0.1478
     57 H20         2.7939    0.1828    1.6768 H         1 <0>         0.1408
     58 H21         3.5499    0.3619   -0.4909 H         1 <0>         0.4057
     59 H22         4.4343    1.9130   -2.8016 H         1 <0>         0.0906
     60 H23         3.3805   -0.9362   -3.0993 H         1 <0>         0.0676
     61 H24         2.6035    0.5304   -3.7425 H         1 <0>         0.0657
     62 H25         4.6144    0.9928   -5.1175 H         1 <0>         0.0624
     63 H26         3.9384   -0.6103   -5.4933 H         1 <0>         0.0683
     64 H27         6.4046   -0.7170   -5.2591 H         1 <0>         0.0681
     65 H28         5.6003   -1.6647   -3.9850 H         1 <0>         0.0658
     66 H29         6.6541    1.1845   -3.6873 H         1 <0>         0.0642
     67 H30         7.4311   -0.2821   -3.0442 H         1 <0>         0.0719
     68 H31         6.0962    0.8586   -1.2933 H         1 <0>         0.0701
     69 H32         5.4202   -0.7446   -1.6691 H         1 <0>         0.0721
     70 H33        -3.5280    3.0361    0.7563 H         1 <0>         0.1621
     71 H34        -4.5535    5.4773    0.4127 H         1 <0>         0.1578
     72 H35        -0.5244    7.7354   -0.8079 H         1 <0>         0.0823
     73 H36        -0.7446   10.1281   -1.3334 H         1 <0>         0.1291
     74 H37        -2.9585   11.2001   -1.3041 H         1 <0>         0.1333
     75 H38        -4.9652    9.8861   -0.7579 H         1 <0>         0.1371
     76 H39        -4.7683    7.4901   -0.2382 H         1 <0>         0.1375
     77 N4          0.9855    6.1216   -2.2086 N.4       1 <0>        -0.4002
     78 H40         0.7886    6.7204   -1.3981 H         1 <0>         0.4052
@<TRIPOS>BOND
     1    1    2 1
     2    1   40 1
     3    1   41 1
     4    1   42 1
     5    2   43 1
     6    2   44 1
     7    2   77 1
     8    3    4 1
     9    3   45 1
    10    3   46 1
    11    3   77 1
    12    4   47 1
    13    4   48 1
    14    4   49 1
    15    5    6 1
    16    5   50 1
    17    5   51 1
    18    5   77 1
    19    6    7 1
    20    6   52 1
    21    6   53 1
    22    7    8 1
    23    7   26 am
    24    8    9 1
    25    8   10 1
    26    8   17 1
    27   10   15 ar
    28   10   11 ar
    29   11   12 ar
    30   11   54 1
    31   12   13 ar
    32   12   55 1
    33   13   14 ar
    34   13   16 1
    35   14   15 ar
    36   14   56 1
    37   15   57 1
    38   17   18 2
    39   17   19 am
    40   19   20 1
    41   19   58 1
    42   20   25 1
    43   20   21 1
    44   20   59 1
    45   21   22 1
    46   21   60 1
    47   21   61 1
    48   22   23 1
    49   22   62 1
    50   22   63 1
    51   23   24 1
    52   23   64 1
    53   23   65 1
    54   24   25 1
    55   24   66 1
    56   24   67 1
    57   25   68 1
    58   25   69 1
    59   26   27 2
    60   26   28 1
    61   28   32 1
    62   28   29 2
    63   29   30 1
    64   29   70 1
    65   30   31 2
    66   30   71 1
    67   31   32 1
    68   31   34 1
    69   32   33 1
    70   34   39 ar
    71   34   35 ar
    72   35   36 ar
    73   35   72 1
    74   36   37 ar
    75   36   73 1
    76   37   38 ar
    77   37   74 1
    78   38   39 ar
    79   38   75 1
    80   39   76 1
    81   77   78 1
@<TRIPOS>MOLECULE
ZINC06501133
   80    82     0     0     0
SMALL
USER_CHARGES
N-[1-(cyclohexylcarbamoyl)butyl]-N-(3-diethylaminopropyl)-5-phenyl-1H-pyrrole-2-carboxamide
@<TRIPOS>ATOM
      1 C1         -0.5322    4.5188   -4.5370 C.3       1 <0>        -0.1541
      2 C2         -0.0720    3.0930   -4.2271 C.3       1 <0>        -0.1224
      3 C3          0.8952    3.1154   -3.0418 C.3       1 <0>        -0.1259
      4 C4          1.3554    1.6895   -2.7320 C.3       1 <0>         0.1199
      5 H1          1.7795    1.2413   -3.6305 H         1 <0>         0.1375
      6 C5          2.4002    1.7236   -1.6465 C.2       1 <0>         0.5156
      7 O1          2.2392    1.0826   -0.6296 O.2       1 <0>        -0.5460
      8 N1          3.5134    2.4663   -1.8057 N.am      1 <0>        -0.7161
      9 C6          4.5291    2.4994   -0.7505 C.3       1 <0>         0.1453
     10 C7          4.1499    3.5558    0.2893 C.3       1 <0>        -0.1238
     11 C8          5.2107    3.5904    1.3914 C.3       1 <0>        -0.1166
     12 C9          6.5692    3.9403    0.7809 C.3       1 <0>        -0.1251
     13 C10         6.9484    2.8839   -0.2589 C.3       1 <0>        -0.1170
     14 C11         5.8877    2.8493   -1.3610 C.3       1 <0>        -0.1301
     15 N2          0.2104    0.8936   -2.2829 N.am      1 <0>        -0.5899
     16 C12        -0.6355    1.3789   -1.1897 C.3       1 <0>         0.1088
     17 C13        -0.3203    0.5947    0.0857 C.3       1 <0>        -0.2346
     18 C14        -1.1528    1.1486    1.2438 C.3       1 <0>        -0.0156
     19 C15         0.6099    0.7941    2.8655 C.3       1 <0>        -0.0178
     20 C16         0.7102    2.2837    3.2001 C.3       1 <0>        -0.1807
     21 C17        -1.7051    0.7987    3.5751 C.3       1 <0>        -0.0127
     22 C18        -1.3674   -0.0395    4.8097 C.3       1 <0>        -0.1889
     23 C19        -0.0648   -0.2852   -2.8756 C.2       1 <0>         0.5964
     24 O2          0.5702   -0.6383   -3.8521 O.2       1 <0>        -0.5040
     25 C20        -1.1289   -1.1420   -2.3442 C.2       1 <0>        -0.0489
     26 C21        -1.4453   -2.4112   -2.7854 C.2       1 <0>        -0.0870
     27 C22        -2.5127   -2.8676   -2.0143 C.2       1 <0>        -0.1728
     28 C23        -2.8334   -1.8739   -1.1148 C.2       1 <0>         0.0748
     29 N3         -1.9847   -0.8246   -1.3133 N.pl3     1 <0>        -0.5507
     30 H2         -1.9856    0.0069   -0.8138 H         1 <0>         0.4152
     31 C24        -3.9087   -1.9372   -0.1027 C.ar      1 <0>        -0.0212
     32 C25        -4.2049   -0.8175    0.6766 C.ar      1 <0>        -0.1424
     33 C26        -5.2130   -0.8820    1.6161 C.ar      1 <0>        -0.1134
     34 C27        -5.9228   -2.0562    1.7942 C.ar      1 <0>        -0.1119
     35 C28        -5.6309   -3.1713    1.0288 C.ar      1 <0>        -0.1009
     36 C29        -4.6288   -3.1188    0.0821 C.ar      1 <0>        -0.0927
     37 H3         -1.0360    4.9356   -3.6648 H         1 <0>         0.0523
     38 H4          0.3328    5.1339   -4.7853 H         1 <0>         0.0585
     39 H5         -1.2212    4.5028   -5.3814 H         1 <0>         0.0607
     40 H6          0.4318    2.6762   -5.0993 H         1 <0>         0.0716
     41 H7         -0.9369    2.4779   -3.9788 H         1 <0>         0.0617
     42 H8          0.3914    3.5322   -2.1697 H         1 <0>         0.0717
     43 H9          1.7601    3.7305   -3.2902 H         1 <0>         0.0866
     44 H10         3.6422    2.9790   -2.6191 H         1 <0>         0.4047
     45 H11         4.5870    1.5222   -0.2712 H         1 <0>         0.0890
     46 H12         4.0920    4.5331   -0.1900 H         1 <0>         0.0658
     47 H13         3.1821    3.3065    0.7243 H         1 <0>         0.0596
     48 H14         5.2686    2.6131    1.8707 H         1 <0>         0.0624
     49 H15         4.9405    4.3430    2.1322 H         1 <0>         0.0654
     50 H16         7.3249    3.9649    1.5660 H         1 <0>         0.0675
     51 H17         6.5113    4.9175    0.3016 H         1 <0>         0.0651
     52 H18         7.0063    1.9067    0.2204 H         1 <0>         0.0652
     53 H19         7.9163    3.1332   -0.6939 H         1 <0>         0.0720
     54 H20         6.1578    2.0968   -2.1018 H         1 <0>         0.0717
     55 H21         5.8297    3.8266   -1.8403 H         1 <0>         0.0709
     56 H22        -1.6841    1.2393   -1.4522 H         1 <0>         0.0786
     57 H23        -0.4407    2.4382   -1.0224 H         1 <0>         0.1047
     58 H24        -0.5626   -0.4573   -0.0654 H         1 <0>         0.1029
     59 H25         0.7395    0.6934    0.3203 H         1 <0>         0.1538
     60 H26        -0.9701    2.2185    1.3434 H         1 <0>         0.1394
     61 H27        -2.2108    0.9775    1.0451 H         1 <0>         0.1170
     62 H28         0.8972    0.2059    3.7370 H         1 <0>         0.1305
     63 H29         1.2766    0.5626    2.0349 H         1 <0>         0.1365
     64 H30         1.7510    2.5433    3.3936 H         1 <0>         0.1050
     65 H31         0.3396    2.8706    2.3597 H         1 <0>         0.0764
     66 H32         0.1116    2.4984    4.0853 H         1 <0>         0.0800
     67 H33        -1.6181    1.8573    3.8198 H         1 <0>         0.1331
     68 H34        -2.7248    0.5820    3.2566 H         1 <0>         0.1269
     69 H35        -0.3229    0.1160    5.0799 H         1 <0>         0.0811
     70 H36        -2.0062    0.2626    5.6397 H         1 <0>         0.1066
     71 H37        -1.5327   -1.0941    4.5892 H         1 <0>         0.0813
     72 H38        -0.9558   -2.9513   -3.5824 H         1 <0>         0.1567
     73 H39        -3.0003   -3.8269   -2.1050 H         1 <0>         0.1524
     74 H40        -3.6488    0.0984    0.5414 H         1 <0>         0.1024
     75 H41        -5.4456   -0.0153    2.2170 H         1 <0>         0.1260
     76 H42        -6.7086   -2.1025    2.5337 H         1 <0>         0.1300
     77 H43        -6.1889   -4.0846    1.1725 H         1 <0>         0.1343
     78 H44        -4.4021   -3.9897   -0.5149 H         1 <0>         0.1352
     79 N4         -0.7739    0.4405    2.4846 N.4       1 <0>        -0.3918
     80 H45        -0.8263   -0.5717    2.3203 H         1 <0>         0.4283
@<TRIPOS>BOND
     1    1    2 1
     2    1   37 1
     3    1   38 1
     4    1   39 1
     5    2    3 1
     6    2   40 1
     7    2   41 1
     8    3    4 1
     9    3   42 1
    10    3   43 1
    11    4    5 1
    12    4    6 1
    13    4   15 1
    14    6    7 2
    15    6    8 am
    16    8    9 1
    17    8   44 1
    18    9   14 1
    19    9   10 1
    20    9   45 1
    21   10   11 1
    22   10   46 1
    23   10   47 1
    24   11   12 1
    25   11   48 1
    26   11   49 1
    27   12   13 1
    28   12   50 1
    29   12   51 1
    30   13   14 1
    31   13   52 1
    32   13   53 1
    33   14   54 1
    34   14   55 1
    35   15   16 1
    36   15   23 am
    37   16   17 1
    38   16   56 1
    39   16   57 1
    40   17   18 1
    41   17   58 1
    42   17   59 1
    43   18   60 1
    44   18   61 1
    45   18   79 1
    46   19   20 1
    47   19   62 1
    48   19   63 1
    49   19   79 1
    50   20   64 1
    51   20   65 1
    52   20   66 1
    53   21   22 1
    54   21   67 1
    55   21   68 1
    56   21   79 1
    57   22   69 1
    58   22   70 1
    59   22   71 1
    60   23   24 2
    61   23   25 1
    62   25   29 1
    63   25   26 2
    64   26   27 1
    65   26   72 1
    66   27   28 2
    67   27   73 1
    68   28   29 1
    69   28   31 1
    70   29   30 1
    71   31   36 ar
    72   31   32 ar
    73   32   33 ar
    74   32   74 1
    75   33   34 ar
    76   33   75 1
    77   34   35 ar
    78   34   76 1
    79   35   36 ar
    80   35   77 1
    81   36   78 1
    82   79   80 1
@<TRIPOS>MOLECULE
ZINC06501434
   80    82     0     0     0
SMALL
USER_CHARGES
N-[1-(cyclohexylcarbamoyl)butyl]-N-(3-diethylaminopropyl)-5-phenyl-1H-pyrrole-2-carboxamide
@<TRIPOS>ATOM
      1 C1          1.8124    1.9474   -1.4676 C.3       1 <0>        -0.1527
      2 C2          1.6917    1.2078   -0.1337 C.3       1 <0>        -0.1291
      3 C3          0.3864    1.6096    0.5560 C.3       1 <0>        -0.1282
      4 C4          0.2657    0.8699    1.8899 C.3       1 <0>         0.1205
      5 H1          0.3550   -0.2030    1.7198 H         1 <0>         0.1361
      6 C5         -1.0739    1.1702    2.5114 C.2       1 <0>         0.5064
      7 O1         -1.1326    1.7486    3.5758 O.2       1 <0>        -0.5309
      8 N1         -2.2067    0.7960    1.8844 N.am      1 <0>        -0.7191
      9 C6         -3.5090    1.0879    2.4886 C.3       1 <0>         0.1466
     10 C7         -3.8687   -0.0171    3.4839 C.3       1 <0>        -0.1302
     11 C8         -5.2287    0.2878    4.1149 C.3       1 <0>        -0.1176
     12 C9         -6.2954    0.3549    3.0200 C.3       1 <0>        -0.1247
     13 C10        -5.9357    1.4599    2.0247 C.3       1 <0>        -0.1162
     14 C11        -4.5756    1.1550    1.3937 C.3       1 <0>        -0.1261
     15 N2          1.3325    1.3118    2.7916 N.am      1 <0>        -0.5904
     16 C12         1.4211    2.7197    3.1868 C.3       1 <0>         0.0980
     17 C13         2.2887    3.4783    2.1805 C.3       1 <0>        -0.2137
     18 C14         2.4198    4.9383    2.6187 C.3       1 <0>        -0.0223
     19 C15         2.3735    5.7716    0.3458 C.3       1 <0>        -0.0178
     20 C16         1.1022    6.5885    0.5858 C.3       1 <0>        -0.1868
     21 C17         3.5012    7.0356    2.0759 C.3       1 <0>        -0.0147
     22 C18         4.4145    7.7216    1.0580 C.3       1 <0>        -0.1879
     23 C19         2.2323    0.4232    3.2575 C.2       1 <0>         0.5950
     24 O2          2.0817   -0.7652    3.0419 O.2       1 <0>        -0.5033
     25 C20         3.3923    0.8879    4.0237 C.2       1 <0>        -0.0501
     26 C21         4.2905    0.0881    4.7016 C.2       1 <0>        -0.0855
     27 C22         5.2342    0.9269    5.2914 C.2       1 <0>        -0.1719
     28 C23         4.9011    2.2243    4.9671 C.2       1 <0>         0.0781
     29 N3          3.7809    2.1984    4.1890 N.pl3     1 <0>        -0.5518
     30 H2          3.3319    2.9734    3.8167 H         1 <0>         0.4098
     31 C24         5.6362    3.4366    5.3850 C.ar      1 <0>        -0.0185
     32 C25         5.1554    4.7013    5.0415 C.ar      1 <0>        -0.1418
     33 C26         5.8439    5.8288    5.4389 C.ar      1 <0>        -0.1141
     34 C27         7.0141    5.7078    6.1671 C.ar      1 <0>        -0.1115
     35 C28         7.4990    4.4571    6.5063 C.ar      1 <0>        -0.0995
     36 C29         6.8175    3.3217    6.1198 C.ar      1 <0>        -0.0914
     37 H3          0.9686    1.6855   -2.1059 H         1 <0>         0.0637
     38 H4          1.8122    3.0226   -1.2882 H         1 <0>         0.0429
     39 H5          2.7423    1.6612   -1.9589 H         1 <0>         0.0623
     40 H6          1.6919    0.1327   -0.3131 H         1 <0>         0.0771
     41 H7          2.5355    1.4698    0.5047 H         1 <0>         0.0602
     42 H8          0.3863    2.6847    0.7354 H         1 <0>         0.0689
     43 H9         -0.4574    1.3476   -0.0824 H         1 <0>         0.0897
     44 H10        -2.1598    0.3333    1.0331 H         1 <0>         0.4021
     45 H11        -3.4619    2.0444    3.0091 H         1 <0>         0.0885
     46 H12        -3.9158   -0.9737    2.9634 H         1 <0>         0.0659
     47 H13        -3.1088   -0.0650    4.2639 H         1 <0>         0.0662
     48 H14        -5.1816    1.2443    4.6353 H         1 <0>         0.0637
     49 H15        -5.4850   -0.4995    4.8239 H         1 <0>         0.0680
     50 H16        -7.2643    0.5721    3.4695 H         1 <0>         0.0674
     51 H17        -6.3425   -0.6016    2.4995 H         1 <0>         0.0647
     52 H18        -5.8886    2.4164    2.5452 H         1 <0>         0.0645
     53 H19        -6.6956    1.5078    1.2447 H         1 <0>         0.0703
     54 H20        -4.3194    1.9422    0.6847 H         1 <0>         0.0674
     55 H21        -4.6228    0.1985    0.8732 H         1 <0>         0.0705
     56 H22         0.4221    3.1552    3.2062 H         1 <0>         0.1189
     57 H23         1.8680    2.7913    4.1784 H         1 <0>         0.0929
     58 H24         3.2776    3.0220    2.1366 H         1 <0>         0.0959
     59 H25         1.8245    3.4350    1.1952 H         1 <0>         0.1170
     60 H26         1.4270    5.3686    2.7508 H         1 <0>         0.1482
     61 H27         2.9652    4.9873    3.5611 H         1 <0>         0.1250
     62 H28         2.9739    6.2524   -0.4265 H         1 <0>         0.1346
     63 H29         2.1037    4.7661    0.0228 H         1 <0>         0.1273
     64 H30         1.3712    7.6174    0.8246 H         1 <0>         0.0840
     65 H31         0.4855    6.5733   -0.3128 H         1 <0>         0.1076
     66 H32         0.5443    6.1566    1.4167 H         1 <0>         0.0794
     67 H33         2.5938    7.6255    2.2054 H         1 <0>         0.1366
     68 H34         4.0197    6.9521    3.0310 H         1 <0>         0.1280
     69 H35         5.2726    7.0822    0.8508 H         1 <0>         0.0805
     70 H36         3.8620    7.8985    0.1352 H         1 <0>         0.0822
     71 H37         4.7597    8.6730    1.4628 H         1 <0>         0.1082
     72 H38         4.2659   -0.9898    4.7638 H         1 <0>         0.1576
     73 H39         6.0751    0.6163    5.8937 H         1 <0>         0.1536
     74 H40         4.2443    4.7970    4.4696 H         1 <0>         0.0959
     75 H41         5.4710    6.8080    5.1771 H         1 <0>         0.1238
     76 H42         7.5513    6.5936    6.4724 H         1 <0>         0.1306
     77 H43         8.4129    4.3696    7.0751 H         1 <0>         0.1353
     78 H44         7.1969    2.3460    6.3855 H         1 <0>         0.1363
     79 N4          3.1728    5.6804    1.5857 N.4       1 <0>        -0.3948
     80 H45         4.0454    5.1782    1.3839 H         1 <0>         0.4284
@<TRIPOS>BOND
     1    1    2 1
     2    1   37 1
     3    1   38 1
     4    1   39 1
     5    2    3 1
     6    2   40 1
     7    2   41 1
     8    3    4 1
     9    3   42 1
    10    3   43 1
    11    4    5 1
    12    4    6 1
    13    4   15 1
    14    6    7 2
    15    6    8 am
    16    8    9 1
    17    8   44 1
    18    9   14 1
    19    9   10 1
    20    9   45 1
    21   10   11 1
    22   10   46 1
    23   10   47 1
    24   11   12 1
    25   11   48 1
    26   11   49 1
    27   12   13 1
    28   12   50 1
    29   12   51 1
    30   13   14 1
    31   13   52 1
    32   13   53 1
    33   14   54 1
    34   14   55 1
    35   15   16 1
    36   15   23 am
    37   16   17 1
    38   16   56 1
    39   16   57 1
    40   17   18 1
    41   17   58 1
    42   17   59 1
    43   18   60 1
    44   18   61 1
    45   18   79 1
    46   19   20 1
    47   19   62 1
    48   19   63 1
    49   19   79 1
    50   20   64 1
    51   20   65 1
    52   20   66 1
    53   21   22 1
    54   21   67 1
    55   21   68 1
    56   21   79 1
    57   22   69 1
    58   22   70 1
    59   22   71 1
    60   23   24 2
    61   23   25 1
    62   25   29 1
    63   25   26 2
    64   26   27 1
    65   26   72 1
    66   27   28 2
    67   27   73 1
    68   28   29 1
    69   28   31 1
    70   29   30 1
    71   31   36 ar
    72   31   32 ar
    73   32   33 ar
    74   32   74 1
    75   33   34 ar
    76   33   75 1
    77   34   35 ar
    78   34   76 1
    79   35   36 ar
    80   35   77 1
    81   36   78 1
    82   79   80 1
@<TRIPOS>MOLECULE
ZINC03952532
   80    82     0     0     0
SMALL
USER_CHARGES
5-amino-N,5-dimethyl-N-[1-[methyl-[1-(methylcarbamoyl)-2-phenyl-ethyl]-carbamoyl]-2-(2-naphthyl)ethyl]-hex-2-enamide
@<TRIPOS>ATOM
      1 C1          5.3868   -2.3691    7.5877 C.3       1 <0>        -0.1829
      2 C2          5.2802   -0.8690    7.8691 C.3       1 <0>         0.0693
      3 C3          6.2176   -0.4981    9.0200 C.3       1 <0>        -0.1746
      4 C4          5.6765   -0.0857    6.6160 C.3       1 <0>        -0.1117
      5 C5          4.6806   -0.3572    5.5180 C.2       1 <0>        -0.1320
      6 C6          4.0560    0.6543    4.9217 C.2       1 <0>        -0.1680
      7 C7          3.0839    0.3893    3.8500 C.2       1 <0>         0.5409
      8 O1          2.8513   -0.7547    3.5092 O.2       1 <0>        -0.5321
      9 N1          2.4510    1.4143    3.2457 N.am      1 <0>        -0.5786
     10 C8          2.7312    2.7925    3.6562 C.3       1 <0>         0.0728
     11 C9          1.4828    1.1504    2.1783 C.3       1 <0>         0.1280
     12 H1          1.4079    0.0756    2.0134 H         1 <0>         0.1224
     13 C10         1.9457    1.8331    0.8897 C.3       1 <0>        -0.1072
     14 C11         3.2266    1.1961    0.4159 C.ar      1 <0>        -0.0702
     15 C12         3.1716    0.1072   -0.4524 C.ar      1 <0>        -0.1099
     16 C13         4.3095   -0.4908   -0.8994 C.ar      1 <0>        -0.0959
     17 C14         5.5604   -0.0059   -0.4809 C.ar      1 <0>        -0.0516
     18 C15         6.7570   -0.5968   -0.9215 C.ar      1 <0>        -0.1035
     19 C16         7.9501   -0.0999   -0.4954 C.ar      1 <0>        -0.1165
     20 C17         8.0051    0.9886    0.3734 C.ar      1 <0>        -0.1116
     21 C18         6.8672    1.5865    0.8204 C.ar      1 <0>        -0.1118
     22 C19         5.6163    1.1010    0.4024 C.ar      1 <0>        -0.0465
     23 C20         4.4199    1.6961    0.8379 C.ar      1 <0>        -0.0975
     24 C21         0.1346    1.6926    2.5777 C.2       1 <0>         0.5160
     25 O2          0.0372    2.4309    3.5349 O.2       1 <0>        -0.5228
     26 N2         -0.9629    1.3570    1.8711 N.am      1 <0>        -0.5818
     27 C22        -2.2634    1.9343    2.2197 C.3       1 <0>         0.0871
     28 C23        -0.8554    0.4148    0.7544 C.3       1 <0>         0.1172
     29 H2          0.1944    0.1832    0.5742 H         1 <0>         0.1181
     30 C24        -1.4623    1.0419   -0.5023 C.3       1 <0>        -0.0903
     31 C25        -0.6079    2.2004   -0.9483 C.ar      1 <0>        -0.0941
     32 C26        -0.7933    3.4513   -0.3898 C.ar      1 <0>        -0.1093
     33 C27        -0.0064    4.5129   -0.7955 C.ar      1 <0>        -0.1152
     34 C28         0.9590    4.3260   -1.7672 C.ar      1 <0>        -0.1132
     35 C29         1.1408    3.0763   -2.3294 C.ar      1 <0>        -0.1104
     36 C30         0.3574    2.0135   -1.9200 C.ar      1 <0>        -0.1153
     37 C31        -1.5984   -0.8520    1.0926 C.2       1 <0>         0.4988
     38 O3         -2.1622   -0.9573    2.1612 O.2       1 <0>        -0.5184
     39 N3         -1.6363   -1.8677    0.2076 N.am      1 <0>        -0.7292
     40 C32        -2.3586   -3.0992    0.5364 C.3       1 <0>         0.0852
     41 H3          3.5901   -1.0893    9.0238 H         1 <0>         0.4374
     42 H4          3.8009    0.4491    8.4282 H         1 <0>         0.4353
     43 H5          6.4129   -2.6156    7.3145 H         1 <0>         0.1078
     44 H6          5.1046   -2.9272    8.4805 H         1 <0>         0.0849
     45 H7          4.7191   -2.6334    6.7678 H         1 <0>         0.0851
     46 H8          6.1416    0.5706    9.2205 H         1 <0>         0.0835
     47 H9          5.9353   -1.0562    9.9128 H         1 <0>         0.0854
     48 H10         7.2436   -0.7445    8.7468 H         1 <0>         0.1078
     49 H11         6.6692   -0.3975    6.2913 H         1 <0>         0.1288
     50 H12         5.6864    0.9806    6.8420 H         1 <0>         0.0995
     51 H13         4.4740   -1.3731    5.2154 H         1 <0>         0.1424
     52 H14         4.2626    1.6703    5.2243 H         1 <0>         0.1386
     53 H15         2.0473    3.0799    4.4548 H         1 <0>         0.0776
     54 H16         3.7582    2.8632    4.0143 H         1 <0>         0.0701
     55 H17         2.5965    3.4597    2.8048 H         1 <0>         0.0768
     56 H18         1.1789    1.7206    0.1232 H         1 <0>         0.1114
     57 H19         2.1158    2.8926    1.0807 H         1 <0>         0.0858
     58 H20         2.2116   -0.2674   -0.7755 H         1 <0>         0.1177
     59 H21         4.2515   -1.3333   -1.5726 H         1 <0>         0.1288
     60 H22         6.7298   -1.4406   -1.5950 H         1 <0>         0.1281
     61 H23         8.8682   -0.5556   -0.8358 H         1 <0>         0.1248
     62 H24         8.9651    1.3634    0.6964 H         1 <0>         0.1233
     63 H25         6.9251    2.4292    1.4933 H         1 <0>         0.1231
     64 H26         4.4473    2.5434    1.5070 H         1 <0>         0.1193
     65 H27        -2.3734    2.9030    1.7320 H         1 <0>         0.0596
     66 H28        -2.3262    2.0624    3.3003 H         1 <0>         0.0790
     67 H29        -3.0583    1.2673    1.8861 H         1 <0>         0.0779
     68 H30        -1.5059    0.2960   -1.2958 H         1 <0>         0.0950
     69 H31        -2.4690    1.3967   -0.2814 H         1 <0>         0.0930
     70 H32        -1.5505    3.5983    0.3661 H         1 <0>         0.1228
     71 H33        -0.1487    5.4893   -0.3565 H         1 <0>         0.1229
     72 H34         1.5708    5.1564   -2.0873 H         1 <0>         0.1229
     73 H35         1.8948    2.9303   -3.0888 H         1 <0>         0.1240
     74 H36         0.4993    1.0373   -2.3595 H         1 <0>         0.1238
     75 H37        -1.1854   -1.7834   -0.6470 H         1 <0>         0.4033
     76 H38        -3.4083   -2.8676    0.7166 H         1 <0>         0.0640
     77 H39        -2.2786   -3.8002   -0.2944 H         1 <0>         0.0811
     78 H40        -1.9262   -3.5459    1.4317 H         1 <0>         0.0614
     79 N4          3.8855   -0.5436    8.2160 N.4       1 <0>        -0.6453
     80 H41         3.2782   -0.7688    7.4193 H         1 <0>         0.4374
@<TRIPOS>BOND
     1    1    2 1
     2    1   43 1
     3    1   44 1
     4    1   45 1
     5    2    3 1
     6    2    4 1
     7    2   79 1
     8    3   46 1
     9    3   47 1
    10    3   48 1
    11    4    5 1
    12    4   49 1
    13    4   50 1
    14    5    6 2
    15    5   51 1
    16    6    7 1
    17    6   52 1
    18    7    8 2
    19    7    9 am
    20    9   10 1
    21    9   11 1
    22   10   53 1
    23   10   54 1
    24   10   55 1
    25   11   12 1
    26   11   13 1
    27   11   24 1
    28   13   14 1
    29   13   56 1
    30   13   57 1
    31   14   23 ar
    32   14   15 ar
    33   15   16 ar
    34   15   58 1
    35   16   17 ar
    36   16   59 1
    37   17   22 ar
    38   17   18 ar
    39   18   19 ar
    40   18   60 1
    41   19   20 ar
    42   19   61 1
    43   20   21 ar
    44   20   62 1
    45   21   22 ar
    46   21   63 1
    47   22   23 ar
    48   23   64 1
    49   24   25 2
    50   24   26 am
    51   26   27 1
    52   26   28 1
    53   27   65 1
    54   27   66 1
    55   27   67 1
    56   28   29 1
    57   28   30 1
    58   28   37 1
    59   30   31 1
    60   30   68 1
    61   30   69 1
    62   31   36 ar
    63   31   32 ar
    64   32   33 ar
    65   32   70 1
    66   33   34 ar
    67   33   71 1
    68   34   35 ar
    69   34   72 1
    70   35   36 ar
    71   35   73 1
    72   36   74 1
    73   37   38 2
    74   37   39 am
    75   39   40 1
    76   39   75 1
    77   40   76 1
    78   40   77 1
    79   40   78 1
    80   41   79 1
    81   42   79 1
    82   79   80 1
@<TRIPOS>MOLECULE
ZINC03783527
   69    73     0     0     0
SMALL
USER_CHARGES
3-amino-3-methyl-N-[5-oxo-6-[[4-[2-(1H-tetrazol-5-yl)phenyl]phenyl]methyl]-6-azabicyclo[5.4.0]undeca-8,10,12-trien-4-yl]-butanamide
@<TRIPOS>ATOM
      1 C1         -2.0824    4.1369   -5.5458 C.3       1 <0>        -0.1904
      2 C2         -2.0928    2.7903   -6.2722 C.3       1 <0>         0.0816
      3 C3         -0.6582    2.3866   -6.6185 C.3       1 <0>        -0.1847
      4 C4         -2.7173    1.7271   -5.3665 C.3       1 <0>        -0.1655
      5 C5         -1.9093    1.6084   -4.1000 C.2       1 <0>         0.5264
      6 O1         -0.9303    2.3056   -3.9378 O.2       1 <0>        -0.5244
      7 N1         -2.2746    0.7275   -3.1477 N.am      1 <0>        -0.6954
      8 C6         -1.4890    0.6121   -1.9165 C.3       1 <0>         0.1299
      9 H1         -0.4342    0.7587   -2.1487 H         1 <0>         0.1168
     10 C7         -1.6853   -0.7828   -1.3219 C.3       1 <0>        -0.1134
     11 C8         -1.2207   -0.7868    0.1364 C.3       1 <0>        -0.0861
     12 C9          0.0774   -0.0379    0.2713 C.ar      1 <0>        -0.1022
     13 C10         1.2664   -0.7246    0.4231 C.ar      1 <0>        -0.0938
     14 C11         2.4520   -0.0283    0.5712 C.ar      1 <0>        -0.1254
     15 C12         2.4530    1.3548    0.5675 C.ar      1 <0>        -0.0995
     16 C13         1.2673    2.0471    0.4112 C.ar      1 <0>        -0.1260
     17 C14         0.0785    1.3491    0.2575 C.ar      1 <0>         0.1457
     18 N2         -1.1298    2.0350    0.0714 N.am      1 <0>        -0.5466
     19 C15        -1.9338    1.6682   -0.9439 C.2       1 <0>         0.5126
     20 O2         -3.0202    2.1915   -1.0744 O.2       1 <0>        -0.5165
     21 C16        -1.5108    3.1308    0.9661 C.3       1 <0>         0.1600
     22 C17        -2.2279    2.5718    2.1679 C.ar      1 <0>        -0.1117
     23 C18        -3.6048    2.4389    2.1484 C.ar      1 <0>        -0.1064
     24 C19        -4.2664    1.9232    3.2441 C.ar      1 <0>         0.0115
     25 C20        -3.5456    1.5462    4.3764 C.ar      1 <0>        -0.0378
     26 C21        -2.1587    1.6874    4.3922 C.ar      1 <0>        -0.1050
     27 C22        -1.5074    2.1990    3.2883 C.ar      1 <0>        -0.1268
     28 C23        -4.2510    0.9969    5.5586 C.ar      1 <0>        -0.0376
     29 C24        -3.8211   -0.1927    6.1401 C.ar      1 <0>        -0.1109
     30 C25        -4.4779   -0.6983    7.2439 C.ar      1 <0>        -0.1313
     31 C26        -5.5719   -0.0346    7.7735 C.ar      1 <0>        -0.1208
     32 C27        -6.0154    1.1428    7.2072 C.ar      1 <0>        -0.0997
     33 C28        -5.3610    1.6708    6.0954 C.ar      1 <0>         0.0475
     34 C29        -5.8323    2.9319    5.4845 C.2       1 <0>         0.1219
     35 N3         -6.9304    4.7707    5.0052 N.2       1 <0>        -0.2057
     36 N4         -5.9626    4.6111    4.1690 N.2       1 <0>        -0.1583
     37 N5         -5.3108    3.5378    4.4379 N.2       1 <0>        -0.3855
     38 H2         -1.4980    4.0510   -4.6298 H         1 <0>         0.1308
     39 H3         -1.6375    4.8944   -6.1910 H         1 <0>         0.0808
     40 H4         -3.1045    4.4245   -5.2991 H         1 <0>         0.0775
     41 H5         -0.6656    1.4273   -7.1360 H         1 <0>         0.0747
     42 H6         -0.2133    3.1441   -7.2637 H         1 <0>         0.0805
     43 H7         -0.0738    2.3008   -5.7024 H         1 <0>         0.1308
     44 H8         -2.7247    0.7678   -5.8840 H         1 <0>         0.1183
     45 H9         -3.7393    2.0147   -5.1198 H         1 <0>         0.1208
     46 H10        -3.0576    0.1698   -3.2774 H         1 <0>         0.4099
     47 H11        -1.1011   -1.5058   -1.8913 H         1 <0>         0.0873
     48 H12        -2.7406   -1.0520   -1.3677 H         1 <0>         0.0840
     49 H13        -1.0800   -1.8157    0.4676 H         1 <0>         0.0904
     50 H14        -1.9795   -0.3087    0.7559 H         1 <0>         0.0854
     51 H15         1.2700   -1.8046    0.4264 H         1 <0>         0.1281
     52 H16         3.3807   -0.5665    0.6899 H         1 <0>         0.1258
     53 H17         3.3810    1.8941    0.6871 H         1 <0>         0.1279
     54 H18         1.2663    3.1271    0.4080 H         1 <0>         0.1277
     55 H19        -0.6163    3.6620    1.2913 H         1 <0>         0.0855
     56 H20        -2.1701    3.8191    0.4372 H         1 <0>         0.0946
     57 H21        -4.1625    2.7358    1.2725 H         1 <0>         0.1133
     58 H22        -5.3410    1.8161    3.2263 H         1 <0>         0.1126
     59 H23        -1.5951    1.3967    5.2664 H         1 <0>         0.1127
     60 H24        -0.4330    2.3089    3.2994 H         1 <0>         0.1077
     61 H25        -2.9714   -0.7181    5.7299 H         1 <0>         0.1198
     62 H26        -4.1392   -1.6195    7.6946 H         1 <0>         0.1184
     63 H27        -6.0809   -0.4409    8.6350 H         1 <0>         0.1204
     64 H28        -6.8690    1.6555    7.6254 H         1 <0>         0.1300
     65 H29        -2.4879    3.6026   -8.1222 H         1 <0>         0.4387
     66 H30        -2.9565    2.0140   -7.9721 H         1 <0>         0.4333
     67 N6         -6.8703    3.6862    5.8709 N.2       1 <0>        -0.4094
     68 N7         -2.9027    2.9135   -7.4971 N.4       1 <0>        -0.6429
     69 H31        -3.8508    3.2169   -7.2458 H         1 <0>         0.4379
@<TRIPOS>BOND
     1    1    2 1
     2    1   38 1
     3    1   39 1
     4    1   40 1
     5    2    3 1
     6    2    4 1
     7    2   68 1
     8    3   41 1
     9    3   42 1
    10    3   43 1
    11    4    5 1
    12    4   44 1
    13    4   45 1
    14    5    6 2
    15    5    7 am
    16    7    8 1
    17    7   46 1
    18    8    9 1
    19    8   19 1
    20    8   10 1
    21   10   11 1
    22   10   47 1
    23   10   48 1
    24   11   12 1
    25   11   49 1
    26   11   50 1
    27   12   17 ar
    28   12   13 ar
    29   13   14 ar
    30   13   51 1
    31   14   15 ar
    32   14   52 1
    33   15   16 ar
    34   15   53 1
    35   16   17 ar
    36   16   54 1
    37   17   18 1
    38   18   19 am
    39   18   21 1
    40   19   20 2
    41   21   22 1
    42   21   55 1
    43   21   56 1
    44   22   27 ar
    45   22   23 ar
    46   23   24 ar
    47   23   57 1
    48   24   25 ar
    49   24   58 1
    50   25   26 ar
    51   25   28 1
    52   26   27 ar
    53   26   59 1
    54   27   60 1
    55   28   33 ar
    56   28   29 ar
    57   29   30 ar
    58   29   61 1
    59   30   31 ar
    60   30   62 1
    61   31   32 ar
    62   31   63 1
    63   32   33 ar
    64   32   64 1
    65   33   34 1
    66   34   37 2
    67   34   67 1
    68   35   36 2
    69   35   67 1
    70   36   37 1
    71   65   68 1
    72   66   68 1
    73   68   69 1
@<TRIPOS>MOLECULE
ZINC00996570
   49    51     0     0     0
SMALL
USER_CHARGES
3-(2-chlorophenyl)-N-(4-diethylaminophenyl)-5-methyl-isoxazole-4-carboxamide
@<TRIPOS>ATOM
      1 C1          5.3411   -8.4883    0.5108 C.3       1 <0>        -0.1736
      2 C2          3.8729   -8.5883    0.9295 C.3       1 <0>         0.1186
      3 N1          3.6405   -7.7404    2.1014 N.pl3     1 <0>        -0.6278
      4 C3          3.8078   -8.2911    3.4486 C.3       1 <0>         0.1179
      5 C4          2.4787   -8.8779    3.9284 C.3       1 <0>        -0.1729
      6 C5          3.2589   -6.4049    1.9340 C.ar      1 <0>         0.2104
      7 C6          3.0386   -5.6011    3.0449 C.ar      1 <0>        -0.1784
      8 C7          2.6624   -4.2830    2.8796 C.ar      1 <0>        -0.0687
      9 C8          2.5043   -3.7610    1.6026 C.ar      1 <0>         0.0804
     10 C9          2.7191   -4.5661    0.4917 C.ar      1 <0>        -0.0904
     11 C10         3.1007   -5.8827    0.6568 C.ar      1 <0>        -0.1788
     12 N2          2.1226   -2.4235    1.4349 N.am      1 <0>        -0.6553
     13 C11         2.5170   -1.4933    2.3269 C.2       1 <0>         0.6029
     14 O1          3.2812   -1.7958    3.2235 O.2       1 <0>        -0.5046
     15 C12         2.0227   -0.1105    2.2160 C.2       1 <0>        -0.2459
     16 C13         0.9558    0.4706    2.8539 C.2       1 <0>         0.0296
     17 O2          0.9042    1.7364    2.4329 O.3       1 <0>         0.1118
     18 N3          1.7711    2.0136    1.6409 N.2       1 <0>        -0.3228
     19 C14         2.5530    0.9944    1.3899 C.2       1 <0>         0.0885
     20 C15         3.7193    0.9566    0.4748 C.ar      1 <0>        -0.0225
     21 C16         4.9242    0.3993    0.8996 C.ar      1 <0>        -0.0767
     22 C17         6.0061    0.3664    0.0439 C.ar      1 <0>        -0.1121
     23 C18         5.8972    0.8846   -1.2344 C.ar      1 <0>        -0.0907
     24 C19         4.7052    1.4394   -1.6623 C.ar      1 <0>        -0.1118
     25 C20         3.6133    1.4733   -0.8163 C.ar      1 <0>        -0.0105
     26 Cl1         2.1147    2.1631   -1.3570 Cl        1 <0>        -0.0516
     27 C21         0.0253   -0.1904    3.8379 C.3       1 <0>        -0.0821
     28 H1          5.5788   -7.4537    0.2636 H         1 <0>         0.0586
     29 H2          5.9764   -8.8210    1.3316 H         1 <0>         0.0559
     30 H3          5.5140   -9.1192   -0.3612 H         1 <0>         0.0639
     31 H4          3.6352   -9.6229    1.1767 H         1 <0>         0.0731
     32 H5          3.2375   -8.2556    0.1086 H         1 <0>         0.0750
     33 H6          4.5651   -9.0748    3.4294 H         1 <0>         0.0731
     34 H7          4.1217   -7.4990    4.1285 H         1 <0>         0.0756
     35 H8          1.7214   -8.0941    3.9476 H         1 <0>         0.0586
     36 H9          2.1647   -9.6699    3.2485 H         1 <0>         0.0557
     37 H10         2.6031   -9.2876    4.9307 H         1 <0>         0.0641
     38 H11         3.1611   -6.0071    4.0382 H         1 <0>         0.1260
     39 H12         2.4914   -3.6578    3.7435 H         1 <0>         0.1332
     40 H13         2.5918   -4.1612   -0.5014 H         1 <0>         0.1237
     41 H14         3.2720   -6.5076   -0.2072 H         1 <0>         0.1265
     42 H15         1.5745   -2.1669    0.6768 H         1 <0>         0.4105
     43 H16         5.0110   -0.0057    1.8971 H         1 <0>         0.1375
     44 H17         6.9400   -0.0653    0.3724 H         1 <0>         0.1373
     45 H18         6.7469    0.8561   -1.9005 H         1 <0>         0.1387
     46 H19         4.6262    1.8431   -2.6609 H         1 <0>         0.1409
     47 H20         0.4169   -0.0671    4.8476 H         1 <0>         0.1001
     48 H21        -0.9604    0.2703    3.7716 H         1 <0>         0.0953
     49 H22        -0.0538   -1.2526    3.6061 H         1 <0>         0.0936
@<TRIPOS>BOND
     1    1    2 1
     2    1   28 1
     3    1   29 1
     4    1   30 1
     5    2    3 1
     6    2   31 1
     7    2   32 1
     8    3    4 1
     9    3    6 1
    10    4    5 1
    11    4   33 1
    12    4   34 1
    13    5   35 1
    14    5   36 1
    15    5   37 1
    16    6   11 ar
    17    6    7 ar
    18    7    8 ar
    19    7   38 1
    20    8    9 ar
    21    8   39 1
    22    9   10 ar
    23    9   12 1
    24   10   11 ar
    25   10   40 1
    26   11   41 1
    27   12   13 am
    28   12   42 1
    29   13   14 2
    30   13   15 1
    31   15   19 1
    32   15   16 2
    33   16   17 1
    34   16   27 1
    35   17   18 1
    36   18   19 2
    37   19   20 1
    38   20   25 ar
    39   20   21 ar
    40   21   22 ar
    41   21   43 1
    42   22   23 ar
    43   22   44 1
    44   23   24 ar
    45   23   45 1
    46   24   25 ar
    47   24   46 1
    48   25   26 1
    49   27   47 1
    50   27   48 1
    51   27   49 1
@<TRIPOS>MOLECULE
ZINC00205125
   49    51     0     0     0
SMALL
USER_CHARGES
N-(4-diethylaminophenyl)-5-methyl-3-phenyl-isoxazole-4-carboxamide
@<TRIPOS>ATOM
      1 C1          1.1705   -5.2497    1.5616 C.3       1 <0>        -0.1737
      2 C2          0.6230   -4.9980    0.1553 C.3       1 <0>         0.1187
      3 N1         -0.5623   -4.1411    0.2388 N.pl3     1 <0>        -0.6277
      4 C3         -1.8911   -4.7410    0.3830 C.3       1 <0>         0.1178
      5 C4         -2.4885   -4.9964   -1.0022 C.3       1 <0>        -0.1728
      6 C5         -0.4254   -2.7500    0.1808 C.ar      1 <0>         0.2107
      7 C6         -1.5491   -1.9376    0.2599 C.ar      1 <0>        -0.1786
      8 C7         -1.4137   -0.5648    0.2031 C.ar      1 <0>        -0.0679
      9 C8         -0.1541    0.0037    0.0673 C.ar      1 <0>         0.0800
     10 C9          0.9690   -0.8086   -0.0171 C.ar      1 <0>        -0.0898
     11 C10         0.8344   -2.1813    0.0445 C.ar      1 <0>        -0.1792
     12 N2         -0.0169    1.3968    0.0097 N.am      1 <0>        -0.6558
     13 C11        -0.8576    2.1861    0.7073 C.2       1 <0>         0.6034
     14 O1         -1.6730    1.6899    1.4612 O.2       1 <0>        -0.5047
     15 C12        -0.7889    3.6495    0.5569 C.2       1 <0>        -0.2508
     16 C13        -1.4556    4.4501   -0.3360 C.2       1 <0>         0.0290
     17 O2         -1.0705    5.7034   -0.0844 O.3       1 <0>         0.1074
     18 N3         -0.2694    5.7871    0.8140 N.2       1 <0>        -0.3406
     19 C14         0.0201    4.6181    1.3261 C.2       1 <0>         0.0984
     20 C15         0.9582    4.3278    2.4377 C.ar      1 <0>        -0.0339
     21 C16         0.6788    3.3022    3.3390 C.ar      1 <0>        -0.0888
     22 C17         1.5579    3.0331    4.3683 C.ar      1 <0>        -0.1171
     23 C18         2.7091    3.7863    4.5129 C.ar      1 <0>        -0.1023
     24 C19         2.9889    4.8089    3.6244 C.ar      1 <0>        -0.1206
     25 C20         2.1196    5.0835    2.5882 C.ar      1 <0>        -0.0863
     26 C21        -2.4337    4.0027   -1.3916 C.3       1 <0>        -0.0825
     27 H1          1.4408   -4.2993    2.0218 H         1 <0>         0.0587
     28 H2          0.4081   -5.7419    2.1656 H         1 <0>         0.0560
     29 H3          2.0524   -5.8872    1.4995 H         1 <0>         0.0640
     30 H4          0.3526   -5.9484   -0.3049 H         1 <0>         0.0732
     31 H5          1.3853   -4.5058   -0.4486 H         1 <0>         0.0750
     32 H6         -1.8072   -5.6846    0.9221 H         1 <0>         0.0732
     33 H7         -2.5381   -4.0617    0.9381 H         1 <0>         0.0756
     34 H8         -1.8415   -5.6756   -1.5573 H         1 <0>         0.0557
     35 H9         -3.4771   -5.4427   -0.8949 H         1 <0>         0.0642
     36 H10        -2.5724   -4.0527   -1.5413 H         1 <0>         0.0586
     37 H11        -2.5287   -2.3798    0.3656 H         1 <0>         0.1260
     38 H12        -2.2875    0.0669    0.2647 H         1 <0>         0.1323
     39 H13         1.9482   -0.3664   -0.1269 H         1 <0>         0.1239
     40 H14         1.7083   -2.8129   -0.0171 H         1 <0>         0.1266
     41 H15         0.6856    1.7931   -0.5291 H         1 <0>         0.4104
     42 H16        -0.2219    2.7164    3.2297 H         1 <0>         0.1298
     43 H17         1.3446    2.2357    5.0647 H         1 <0>         0.1297
     44 H18         3.3921    3.5750    5.3223 H         1 <0>         0.1282
     45 H19         3.8891    5.3938    3.7420 H         1 <0>         0.1301
     46 H20         2.3390    5.8821    1.8951 H         1 <0>         0.1277
     47 H21        -3.4412    4.0000   -0.9757 H         1 <0>         0.0997
     48 H22        -2.3922    4.6873   -2.2388 H         1 <0>         0.0954
     49 H23        -2.1750    2.9973   -1.7239 H         1 <0>         0.0938
@<TRIPOS>BOND
     1    1    2 1
     2    1   27 1
     3    1   28 1
     4    1   29 1
     5    2    3 1
     6    2   30 1
     7    2   31 1
     8    3    4 1
     9    3    6 1
    10    4    5 1
    11    4   32 1
    12    4   33 1
    13    5   34 1
    14    5   35 1
    15    5   36 1
    16    6   11 ar
    17    6    7 ar
    18    7    8 ar
    19    7   37 1
    20    8    9 ar
    21    8   38 1
    22    9   10 ar
    23    9   12 1
    24   10   11 ar
    25   10   39 1
    26   11   40 1
    27   12   13 am
    28   12   41 1
    29   13   14 2
    30   13   15 1
    31   15   19 1
    32   15   16 2
    33   16   17 1
    34   16   26 1
    35   17   18 1
    36   18   19 2
    37   19   20 1
    38   20   25 ar
    39   20   21 ar
    40   21   22 ar
    41   21   42 1
    42   22   23 ar
    43   22   43 1
    44   23   24 ar
    45   23   44 1
    46   24   25 ar
    47   24   45 1
    48   25   46 1
    49   26   47 1
    50   26   48 1
    51   26   49 1
@<TRIPOS>MOLECULE
ZINC06511212
   82    85     0     0     0
SMALL
USER_CHARGES
N-[cyclohexylcarbamoyl-(4-hydroxyphenyl)-methyl]-N-(3-diethylaminopropyl)-5-phenyl-1H-pyrrole-2-carboxamide
@<TRIPOS>ATOM
      1 C1          1.4314    5.7553    4.3710 C.3       1 <0>        -0.1810
      2 C2          2.4481    4.6384    4.1264 C.3       1 <0>        -0.0146
      3 C3          0.6922    3.2449    3.2112 C.3       1 <0>        -0.0124
      4 C4          0.7483    2.3223    4.4305 C.3       1 <0>        -0.1871
      5 C5          2.0361    4.6210    1.7405 C.3       1 <0>        -0.0133
      6 C6          3.4776    5.0034    1.3989 C.3       1 <0>        -0.2037
      7 C7          3.4855    5.9191    0.1731 C.3       1 <0>         0.1151
      8 N1          4.8692    6.2068   -0.2125 N.am      1 <0>        -0.5913
      9 C8          5.3549    7.5890   -0.2212 C.3       1 <0>         0.1677
     10 H1          6.4343    7.5938   -0.3726 H         1 <0>         0.1399
     11 C9          4.6876    8.3489   -1.3384 C.ar      1 <0>        -0.1194
     12 C10         3.3237    8.2326   -1.5338 C.ar      1 <0>        -0.1011
     13 C11         2.7088    8.9326   -2.5537 C.ar      1 <0>        -0.1425
     14 C12         3.4626    9.7436   -3.3896 C.ar      1 <0>         0.1241
     15 C13         4.8317    9.8542   -3.1950 C.ar      1 <0>        -0.1361
     16 C14         5.4410    9.1569   -2.1698 C.ar      1 <0>        -0.0813
     17 O1          2.8609   10.4282   -4.3977 O.3       1 <0>        -0.4971
     18 C15         5.0295    8.2440    1.0964 C.2       1 <0>         0.5246
     19 O2          4.3628    7.6529    1.9192 O.2       1 <0>        -0.5459
     20 N2          5.4792    9.4868    1.3603 N.am      1 <0>        -0.7114
     21 C16         5.1629   10.1236    2.6412 C.3       1 <0>         0.1482
     22 C17         3.7921   10.7973    2.5510 C.3       1 <0>        -0.1259
     23 C18         3.4617   11.4624    3.8887 C.3       1 <0>        -0.1156
     24 C19         4.5259   12.5129    4.2126 C.3       1 <0>        -0.1255
     25 C20         5.8967   11.8392    4.3028 C.3       1 <0>        -0.1156
     26 C21         6.2271   11.1741    2.9651 C.3       1 <0>        -0.1302
     27 C22         5.6954    5.2000   -0.5594 C.2       1 <0>         0.5948
     28 O3          6.8734    5.4240   -0.7682 O.2       1 <0>        -0.5031
     29 C23         5.1752    3.8354   -0.6851 C.2       1 <0>        -0.0497
     30 C24         5.9295    2.6920   -0.8575 C.2       1 <0>        -0.0865
     31 C25         5.0466    1.6161   -0.9291 C.2       1 <0>        -0.1741
     32 C26         3.7684    2.1149   -0.7998 C.2       1 <0>         0.0772
     33 N3          3.8482    3.4691   -0.6570 N.pl3     1 <0>        -0.5477
     34 H2          3.0963    4.0727   -0.5511 H         1 <0>         0.4132
     35 C27         2.5231    1.3190   -0.8191 C.ar      1 <0>        -0.0247
     36 C28         1.2909    1.9398   -0.6070 C.ar      1 <0>        -0.1418
     37 C29         0.1324    1.1910   -0.6258 C.ar      1 <0>        -0.1120
     38 C30         0.1899   -0.1724   -0.8542 C.ar      1 <0>        -0.1106
     39 C31         1.4080   -0.7941   -1.0646 C.ar      1 <0>        -0.1014
     40 C32         2.5740   -0.0570   -1.0484 C.ar      1 <0>        -0.0924
     41 H3          0.4766    5.3195    4.6649 H         1 <0>         0.0789
     42 H4          1.7929    6.4081    5.1656 H         1 <0>         0.1050
     43 H5          1.3005    6.3341    3.4567 H         1 <0>         0.0794
     44 H6          2.5135    4.0063    5.0120 H         1 <0>         0.1301
     45 H7          3.4249    5.0753    3.9189 H         1 <0>         0.1316
     46 H8         -0.0290    4.0420    3.3916 H         1 <0>         0.1332
     47 H9          0.3884    2.6715    2.3354 H         1 <0>         0.1269
     48 H10         1.5332    1.5794    4.2882 H         1 <0>         0.0798
     49 H11         0.9630    2.9113    5.3222 H         1 <0>         0.0816
     50 H12        -0.2111    1.8190    4.5497 H         1 <0>         0.1061
     51 H13         1.4436    5.5252    1.8799 H         1 <0>         0.1406
     52 H14         1.6138    4.0318    0.9264 H         1 <0>         0.1162
     53 H15         4.0512    4.1021    1.1828 H         1 <0>         0.1057
     54 H16         3.9254    5.5249    2.2448 H         1 <0>         0.1246
     55 H17         2.9737    6.8512    0.4126 H         1 <0>         0.1188
     56 H18         2.9734    5.4252   -0.6526 H         1 <0>         0.0633
     57 H19         2.7381    7.5971   -0.8861 H         1 <0>         0.1260
     58 H20         1.6428    8.8446   -2.7035 H         1 <0>         0.1326
     59 H21         5.4207   10.4852   -3.8441 H         1 <0>         0.1382
     60 H22         6.5068    9.2426   -2.0179 H         1 <0>         0.1349
     61 H23         2.8193    9.9426   -5.2328 H         1 <0>         0.3981
     62 H24         6.0124    9.9596    0.7022 H         1 <0>         0.4049
     63 H25         5.1459    9.3692    3.4277 H         1 <0>         0.0891
     64 H26         3.8091   11.5518    1.7645 H         1 <0>         0.0659
     65 H27         3.0340   10.0490    2.3202 H         1 <0>         0.0625
     66 H28         3.4447   10.7079    4.6752 H         1 <0>         0.0619
     67 H29         2.4852   11.9424    3.8244 H         1 <0>         0.0663
     68 H30         4.2906   12.9867    5.1656 H         1 <0>         0.0673
     69 H31         4.5430   13.2673    3.4261 H         1 <0>         0.0652
     70 H32         5.8797   11.0847    5.0893 H         1 <0>         0.0645
     71 H33         6.6548   12.5875    4.5335 H         1 <0>         0.0716
     72 H34         7.2036   10.6941    3.0294 H         1 <0>         0.0710
     73 H35         6.2441   11.9286    2.1786 H         1 <0>         0.0713
     74 H36         7.0062    2.6407   -0.9240 H         1 <0>         0.1570
     75 H37         5.3156    0.5786   -1.0622 H         1 <0>         0.1527
     76 H38         1.2446    3.0041   -0.4290 H         1 <0>         0.1045
     77 H39        -0.8219    1.6708   -0.4664 H         1 <0>         0.1274
     78 H40        -0.7199   -0.7540   -0.8679 H         1 <0>         0.1303
     79 H41         1.4459   -1.8587   -1.2423 H         1 <0>         0.1342
     80 H42         3.5241   -0.5436   -1.2125 H         1 <0>         0.1348
     81 N4          2.0383    3.8076    2.9746 N.4       1 <0>        -0.3915
     82 H43         2.7075    3.0366    2.8647 H         1 <0>         0.4282
@<TRIPOS>BOND
     1    1    2 1
     2    1   41 1
     3    1   42 1
     4    1   43 1
     5    2   44 1
     6    2   45 1
     7    2   81 1
     8    3    4 1
     9    3   46 1
    10    3   47 1
    11    3   81 1
    12    4   48 1
    13    4   49 1
    14    4   50 1
    15    5    6 1
    16    5   51 1
    17    5   52 1
    18    5   81 1
    19    6    7 1
    20    6   53 1
    21    6   54 1
    22    7    8 1
    23    7   55 1
    24    7   56 1
    25    8    9 1
    26    8   27 am
    27    9   10 1
    28    9   11 1
    29    9   18 1
    30   11   16 ar
    31   11   12 ar
    32   12   13 ar
    33   12   57 1
    34   13   14 ar
    35   13   58 1
    36   14   15 ar
    37   14   17 1
    38   15   16 ar
    39   15   59 1
    40   16   60 1
    41   17   61 1
    42   18   19 2
    43   18   20 am
    44   20   21 1
    45   20   62 1
    46   21   26 1
    47   21   22 1
    48   21   63 1
    49   22   23 1
    50   22   64 1
    51   22   65 1
    52   23   24 1
    53   23   66 1
    54   23   67 1
    55   24   25 1
    56   24   68 1
    57   24   69 1
    58   25   26 1
    59   25   70 1
    60   25   71 1
    61   26   72 1
    62   26   73 1
    63   27   28 2
    64   27   29 1
    65   29   33 1
    66   29   30 2
    67   30   31 1
    68   30   74 1
    69   31   32 2
    70   31   75 1
    71   32   33 1
    72   32   35 1
    73   33   34 1
    74   35   40 ar
    75   35   36 ar
    76   36   37 ar
    77   36   76 1
    78   37   38 ar
    79   37   77 1
    80   38   39 ar
    81   38   78 1
    82   39   40 ar
    83   39   79 1
    84   40   80 1
    85   81   82 1
@<TRIPOS>MOLECULE
ZINC06511241
   82    85     0     0     0
SMALL
USER_CHARGES
N-[cyclohexylcarbamoyl-(4-hydroxyphenyl)-methyl]-N-(3-diethylaminopropyl)-5-phenyl-1H-pyrrole-2-carboxamide
@<TRIPOS>ATOM
      1 C1         -6.3439    0.7203   -3.0011 C.3       1 <0>        -0.1845
      2 C2         -5.2872    0.9395   -1.9165 C.3       1 <0>        -0.0230
      3 C3         -5.9148    3.2244   -1.4188 C.3       1 <0>        -0.0116
      4 C4         -5.6542    4.6584   -1.8845 C.3       1 <0>        -0.1881
      5 C5         -3.6120    2.5195   -1.1683 C.3       1 <0>        -0.0125
      6 C6         -2.4345    1.9813   -1.9837 C.3       1 <0>        -0.2122
      7 C7         -1.1607    2.0368   -1.1380 C.3       1 <0>         0.1105
      8 N1         -0.0337    1.5195   -1.9180 N.am      1 <0>        -0.5911
      9 C8          1.0630    2.4121   -2.3011 C.3       1 <0>         0.1679
     10 H1          1.7153    1.9026   -3.0102 H         1 <0>         0.1427
     11 C9          1.8530    2.7921   -1.0753 C.ar      1 <0>        -0.1179
     12 C10         1.2120    2.9376    0.1411 C.ar      1 <0>        -0.1042
     13 C11         1.9348    3.2803    1.2674 C.ar      1 <0>        -0.1407
     14 C12         3.3030    3.4900    1.1749 C.ar      1 <0>         0.1226
     15 C13         3.9429    3.3489   -0.0480 C.ar      1 <0>        -0.1337
     16 C14         3.2166    3.0001   -1.1701 C.ar      1 <0>        -0.0866
     17 O1          4.0153    3.8335    2.2801 O.3       1 <0>        -0.4963
     18 C15         0.4993    3.6548   -2.9406 C.2       1 <0>         0.5245
     19 O2         -0.7005    3.7824   -3.0641 O.2       1 <0>        -0.5452
     20 N2          1.3283    4.6245   -3.3751 N.am      1 <0>        -0.7118
     21 C16         0.7803    5.8326   -3.9968 C.3       1 <0>         0.1486
     22 C17         0.5384    5.5753   -5.4855 C.3       1 <0>        -0.1291
     23 C18        -0.0339    6.8370   -6.1347 C.3       1 <0>        -0.1157
     24 C19         0.9586    7.9899   -5.9710 C.3       1 <0>        -0.1256
     25 C20         1.2004    8.2472   -4.4823 C.3       1 <0>        -0.1154
     26 C21         1.7728    6.9855   -3.8331 C.3       1 <0>        -0.1289
     27 C22        -0.0059    0.2225   -2.2832 C.2       1 <0>         0.5953
     28 O3          0.8792   -0.1856   -3.0123 O.2       1 <0>        -0.5017
     29 C23        -1.0415   -0.6967   -1.8024 C.2       1 <0>        -0.0477
     30 C24        -1.1456   -2.0373   -2.1153 C.2       1 <0>        -0.0847
     31 C25        -2.2654   -2.5353   -1.4518 C.2       1 <0>        -0.1705
     32 C26        -2.8290   -1.4954   -0.7444 C.2       1 <0>         0.0718
     33 N3         -2.0780   -0.3762   -0.9546 N.pl3     1 <0>        -0.5521
     34 H2         -2.2473    0.4993   -0.5729 H         1 <0>         0.4141
     35 C27        -4.0370   -1.5801    0.1031 C.ar      1 <0>        -0.0228
     36 C28        -4.5166   -0.4431    0.7556 C.ar      1 <0>        -0.1467
     37 C29        -5.6474   -0.5280    1.5414 C.ar      1 <0>        -0.1135
     38 C30        -6.2997   -1.7389    1.6918 C.ar      1 <0>        -0.1097
     39 C31        -5.8265   -2.8708    1.0520 C.ar      1 <0>        -0.0995
     40 C32        -4.6999   -2.7986    0.2591 C.ar      1 <0>        -0.0913
     41 H3         -5.9194    0.9609   -3.9758 H         1 <0>         0.0810
     42 H4         -6.6639   -0.3216   -2.9913 H         1 <0>         0.1077
     43 H5         -7.2011    1.3655   -2.8088 H         1 <0>         0.0814
     44 H6         -4.4299    0.2943   -2.1087 H         1 <0>         0.1245
     45 H7         -5.7116    0.6989   -0.9418 H         1 <0>         0.1356
     46 H8         -6.8804    2.8892   -1.7975 H         1 <0>         0.1325
     47 H9         -5.9205    3.1916   -0.3293 H         1 <0>         0.1306
     48 H10        -5.5578    4.6760   -2.9701 H         1 <0>         0.0808
     49 H11        -6.4861    5.2950   -1.5832 H         1 <0>         0.1068
     50 H12        -4.7332    5.0257   -1.4319 H         1 <0>         0.0800
     51 H13        -3.6818    1.9739   -0.2273 H         1 <0>         0.1183
     52 H14        -3.4580    3.5790   -0.9635 H         1 <0>         0.1417
     53 H15        -2.3036    2.5903   -2.8783 H         1 <0>         0.1376
     54 H16        -2.6341    0.9494   -2.2727 H         1 <0>         0.0996
     55 H17        -0.9603    3.0689   -0.8504 H         1 <0>         0.1163
     56 H18        -1.2923    1.4292   -0.2427 H         1 <0>         0.0710
     57 H19         0.1460    2.7792    0.2117 H         1 <0>         0.1272
     58 H20         1.4344    3.3891    2.2183 H         1 <0>         0.1328
     59 H21         5.0079    3.5120   -0.1226 H         1 <0>         0.1386
     60 H22         3.7142    2.8902   -2.1223 H         1 <0>         0.1338
     61 H23         4.0784    4.7872    2.4266 H         1 <0>         0.3973
     62 H24         2.2879    4.5225   -3.2763 H         1 <0>         0.4043
     63 H25        -0.1622    6.0934   -3.5153 H         1 <0>         0.0884
     64 H26         1.4809    5.3145   -5.9669 H         1 <0>         0.0669
     65 H27        -0.1686    4.7540   -5.6021 H         1 <0>         0.0647
     66 H28        -0.9764    7.0978   -5.6532 H         1 <0>         0.0618
     67 H29        -0.2062    6.6537   -7.1952 H         1 <0>         0.0673
     68 H30         0.5508    8.8887   -6.4335 H         1 <0>         0.0674
     69 H31         1.9010    7.7291   -6.4525 H         1 <0>         0.0656
     70 H32         0.2579    8.5080   -4.0008 H         1 <0>         0.0639
     71 H33         1.9075    9.0685   -4.3657 H         1 <0>         0.0713
     72 H34         1.9451    7.1688   -2.7725 H         1 <0>         0.0695
     73 H35         2.7152    6.7247   -4.3145 H         1 <0>         0.0714
     74 H36        -0.4814   -2.5972   -2.7569 H         1 <0>         0.1580
     75 H37        -2.6262   -3.5527   -1.4856 H         1 <0>         0.1535
     76 H38        -4.0060    0.5018    0.6424 H         1 <0>         0.1019
     77 H39        -6.0217    0.3517    2.0438 H         1 <0>         0.1272
     78 H40        -7.1823   -1.8008    2.3111 H         1 <0>         0.1311
     79 H41        -6.3405   -3.8129    1.1733 H         1 <0>         0.1351
     80 H42        -4.3318   -3.6828   -0.2400 H         1 <0>         0.1360
     81 N4         -4.8507    2.3510   -1.9569 N.4       1 <0>        -0.3929
     82 H43        -4.6640    2.6146   -2.9316 H         1 <0>         0.4289
@<TRIPOS>BOND
     1    1    2 1
     2    1   41 1
     3    1   42 1
     4    1   43 1
     5    2   44 1
     6    2   45 1
     7    2   81 1
     8    3    4 1
     9    3   46 1
    10    3   47 1
    11    3   81 1
    12    4   48 1
    13    4   49 1
    14    4   50 1
    15    5    6 1
    16    5   51 1
    17    5   52 1
    18    5   81 1
    19    6    7 1
    20    6   53 1
    21    6   54 1
    22    7    8 1
    23    7   55 1
    24    7   56 1
    25    8    9 1
    26    8   27 am
    27    9   10 1
    28    9   11 1
    29    9   18 1
    30   11   16 ar
    31   11   12 ar
    32   12   13 ar
    33   12   57 1
    34   13   14 ar
    35   13   58 1
    36   14   15 ar
    37   14   17 1
    38   15   16 ar
    39   15   59 1
    40   16   60 1
    41   17   61 1
    42   18   19 2
    43   18   20 am
    44   20   21 1
    45   20   62 1
    46   21   26 1
    47   21   22 1
    48   21   63 1
    49   22   23 1
    50   22   64 1
    51   22   65 1
    52   23   24 1
    53   23   66 1
    54   23   67 1
    55   24   25 1
    56   24   68 1
    57   24   69 1
    58   25   26 1
    59   25   70 1
    60   25   71 1
    61   26   72 1
    62   26   73 1
    63   27   28 2
    64   27   29 1
    65   29   33 1
    66   29   30 2
    67   30   31 1
    68   30   74 1
    69   31   32 2
    70   31   75 1
    71   32   33 1
    72   32   35 1
    73   33   34 1
    74   35   40 ar
    75   35   36 ar
    76   36   37 ar
    77   36   76 1
    78   37   38 ar
    79   37   77 1
    80   38   39 ar
    81   38   78 1
    82   39   40 ar
    83   39   79 1
    84   40   80 1
    85   81   82 1
@<TRIPOS>MOLECULE
ZINC06481371
   83    85     0     0     0
SMALL
USER_CHARGES
N-[1-(cyclohexylcarbamoyl)pentyl]-N-(3-diethylaminopropyl)-5-phenyl-1H-pyrrole-2-carboxamide
@<TRIPOS>ATOM
      1 C1         -1.4993    4.4964   -5.7223 C.3       1 <0>        -0.1561
      2 C2         -0.5322    4.5188   -4.5370 C.3       1 <0>        -0.1227
      3 C3         -0.0720    3.0930   -4.2271 C.3       1 <0>        -0.1187
      4 C4          0.8952    3.1154   -3.0418 C.3       1 <0>        -0.1260
      5 C5          1.3554    1.6895   -2.7320 C.3       1 <0>         0.1204
      6 H1          1.7795    1.2413   -3.6305 H         1 <0>         0.1374
      7 C6          2.4002    1.7236   -1.6465 C.2       1 <0>         0.5156
      8 O1          2.2392    1.0826   -0.6296 O.2       1 <0>        -0.5460
      9 N1          3.5134    2.4663   -1.8057 N.am      1 <0>        -0.7161
     10 C7          4.5291    2.4994   -0.7505 C.3       1 <0>         0.1454
     11 C8          4.1499    3.5558    0.2893 C.3       1 <0>        -0.1238
     12 C9          5.2107    3.5904    1.3914 C.3       1 <0>        -0.1166
     13 C10         6.5692    3.9403    0.7809 C.3       1 <0>        -0.1251
     14 C11         6.9484    2.8839   -0.2589 C.3       1 <0>        -0.1170
     15 C12         5.8877    2.8493   -1.3610 C.3       1 <0>        -0.1301
     16 N2          0.2104    0.8936   -2.2829 N.am      1 <0>        -0.5896
     17 C13        -0.6355    1.3789   -1.1897 C.3       1 <0>         0.1089
     18 C14        -0.3203    0.5947    0.0857 C.3       1 <0>        -0.2346
     19 C15        -1.1528    1.1486    1.2438 C.3       1 <0>        -0.0156
     20 C16         0.6099    0.7941    2.8655 C.3       1 <0>        -0.0179
     21 C17         0.7102    2.2837    3.2001 C.3       1 <0>        -0.1806
     22 C18        -1.7051    0.7987    3.5751 C.3       1 <0>        -0.0127
     23 C19        -1.3674   -0.0395    4.8097 C.3       1 <0>        -0.1890
     24 C20        -0.0648   -0.2852   -2.8756 C.2       1 <0>         0.5965
     25 O2          0.5702   -0.6383   -3.8521 O.2       1 <0>        -0.5040
     26 C21        -1.1289   -1.1420   -2.3442 C.2       1 <0>        -0.0487
     27 C22        -1.4453   -2.4112   -2.7854 C.2       1 <0>        -0.0871
     28 C23        -2.5127   -2.8676   -2.0143 C.2       1 <0>        -0.1728
     29 C24        -2.8334   -1.8739   -1.1148 C.2       1 <0>         0.0747
     30 N3         -1.9847   -0.8246   -1.3133 N.pl3     1 <0>        -0.5507
     31 H2         -1.9856    0.0069   -0.8138 H         1 <0>         0.4152
     32 C25        -3.9087   -1.9372   -0.1027 C.ar      1 <0>        -0.0211
     33 C26        -4.2049   -0.8175    0.6766 C.ar      1 <0>        -0.1424
     34 C27        -5.2130   -0.8820    1.6161 C.ar      1 <0>        -0.1134
     35 C28        -5.9228   -2.0562    1.7942 C.ar      1 <0>        -0.1120
     36 C29        -5.6309   -3.1713    1.0288 C.ar      1 <0>        -0.1009
     37 C30        -4.6288   -3.1188    0.0821 C.ar      1 <0>        -0.0927
     38 H3         -0.9955    4.0796   -6.5944 H         1 <0>         0.0573
     39 H4         -2.3642    3.8813   -5.4739 H         1 <0>         0.0527
     40 H5         -1.8272    5.5122   -5.9430 H         1 <0>         0.0577
     41 H6         -1.0360    4.9356   -3.6648 H         1 <0>         0.0587
     42 H7          0.3328    5.1339   -4.7853 H         1 <0>         0.0648
     43 H8          0.4318    2.6762   -5.0993 H         1 <0>         0.0718
     44 H9         -0.9369    2.4779   -3.9788 H         1 <0>         0.0625
     45 H10         0.3914    3.5322   -2.1697 H         1 <0>         0.0718
     46 H11         1.7601    3.7305   -3.2902 H         1 <0>         0.0866
     47 H12         3.6422    2.9790   -2.6191 H         1 <0>         0.4047
     48 H13         4.5870    1.5222   -0.2712 H         1 <0>         0.0890
     49 H14         4.0920    4.5331   -0.1900 H         1 <0>         0.0658
     50 H15         3.1821    3.3065    0.7243 H         1 <0>         0.0596
     51 H16         5.2686    2.6131    1.8707 H         1 <0>         0.0624
     52 H17         4.9405    4.3430    2.1322 H         1 <0>         0.0654
     53 H18         7.3249    3.9649    1.5660 H         1 <0>         0.0675
     54 H19         6.5113    4.9175    0.3016 H         1 <0>         0.0651
     55 H20         7.0063    1.9067    0.2204 H         1 <0>         0.0652
     56 H21         7.9163    3.1332   -0.6939 H         1 <0>         0.0720
     57 H22         6.1578    2.0968   -2.1018 H         1 <0>         0.0717
     58 H23         5.8297    3.8266   -1.8403 H         1 <0>         0.0709
     59 H24        -1.6841    1.2393   -1.4522 H         1 <0>         0.0785
     60 H25        -0.4407    2.4382   -1.0224 H         1 <0>         0.1047
     61 H26        -0.5626   -0.4573   -0.0654 H         1 <0>         0.1029
     62 H27         0.7395    0.6934    0.3203 H         1 <0>         0.1538
     63 H28        -0.9701    2.2185    1.3434 H         1 <0>         0.1394
     64 H29        -2.2108    0.9775    1.0451 H         1 <0>         0.1169
     65 H30         0.8972    0.2059    3.7370 H         1 <0>         0.1305
     66 H31         1.2766    0.5626    2.0349 H         1 <0>         0.1365
     67 H32         0.3396    2.8706    2.3597 H         1 <0>         0.0764
     68 H33         0.1116    2.4984    4.0853 H         1 <0>         0.0800
     69 H34         1.7510    2.5433    3.3936 H         1 <0>         0.1050
     70 H35        -1.6181    1.8573    3.8198 H         1 <0>         0.1331
     71 H36        -2.7248    0.5820    3.2566 H         1 <0>         0.1269
     72 H37        -1.5327   -1.0941    4.5892 H         1 <0>         0.0813
     73 H38        -0.3229    0.1160    5.0799 H         1 <0>         0.0811
     74 H39        -2.0062    0.2626    5.6397 H         1 <0>         0.1066
     75 H40        -0.9558   -2.9513   -3.5824 H         1 <0>         0.1567
     76 H41        -3.0003   -3.8269   -2.1050 H         1 <0>         0.1523
     77 H42        -3.6488    0.0984    0.5414 H         1 <0>         0.1023
     78 H43        -5.4456   -0.0153    2.2170 H         1 <0>         0.1260
     79 H44        -6.7086   -2.1025    2.5337 H         1 <0>         0.1300
     80 H45        -6.1889   -4.0846    1.1725 H         1 <0>         0.1343
     81 H46        -4.4021   -3.9897   -0.5149 H         1 <0>         0.1351
     82 N4         -0.7739    0.4405    2.4846 N.4       1 <0>        -0.3918
     83 H47        -0.8263   -0.5717    2.3203 H         1 <0>         0.4283
@<TRIPOS>BOND
     1    1    2 1
     2    1   38 1
     3    1   39 1
     4    1   40 1
     5    2    3 1
     6    2   41 1
     7    2   42 1
     8    3    4 1
     9    3   43 1
    10    3   44 1
    11    4    5 1
    12    4   45 1
    13    4   46 1
    14    5    6 1
    15    5    7 1
    16    5   16 1
    17    7    8 2
    18    7    9 am
    19    9   10 1
    20    9   47 1
    21   10   15 1
    22   10   11 1
    23   10   48 1
    24   11   12 1
    25   11   49 1
    26   11   50 1
    27   12   13 1
    28   12   51 1
    29   12   52 1
    30   13   14 1
    31   13   53 1
    32   13   54 1
    33   14   15 1
    34   14   55 1
    35   14   56 1
    36   15   57 1
    37   15   58 1
    38   16   17 1
    39   16   24 am
    40   17   18 1
    41   17   59 1
    42   17   60 1
    43   18   19 1
    44   18   61 1
    45   18   62 1
    46   19   63 1
    47   19   64 1
    48   19   82 1
    49   20   21 1
    50   20   65 1
    51   20   66 1
    52   20   82 1
    53   21   67 1
    54   21   68 1
    55   21   69 1
    56   22   23 1
    57   22   70 1
    58   22   71 1
    59   22   82 1
    60   23   72 1
    61   23   73 1
    62   23   74 1
    63   24   25 2
    64   24   26 1
    65   26   30 1
    66   26   27 2
    67   27   28 1
    68   27   75 1
    69   28   29 2
    70   28   76 1
    71   29   30 1
    72   29   32 1
    73   30   31 1
    74   32   37 ar
    75   32   33 ar
    76   33   34 ar
    77   33   77 1
    78   34   35 ar
    79   34   78 1
    80   35   36 ar
    81   35   79 1
    82   36   37 ar
    83   36   80 1
    84   37   81 1
    85   82   83 1
@<TRIPOS>MOLECULE
ZINC06481530
   83    85     0     0     0
SMALL
USER_CHARGES
N-[1-(cyclohexylcarbamoyl)pentyl]-N-(3-diethylaminopropyl)-5-phenyl-1H-pyrrole-2-carboxamide
@<TRIPOS>ATOM
      1 C1          1.3858    3.6561   -1.6902 C.3       1 <0>        -0.1577
      2 C2          0.4736    3.9541   -0.4986 C.3       1 <0>        -0.1208
      3 C3          0.6810    2.8900    0.5811 C.3       1 <0>        -0.1271
      4 C4         -0.2312    3.1880    1.7727 C.3       1 <0>        -0.1291
      5 C5         -0.0238    2.1239    2.8524 C.3       1 <0>         0.1209
      6 H1         -0.1798    1.1346    2.4223 H         1 <0>         0.1370
      7 C6         -1.0078    2.3458    3.9720 C.2       1 <0>         0.5054
      8 O1         -0.6082    2.5646    5.0960 O.2       1 <0>        -0.5297
      9 N1         -2.3318    2.3011    3.7242 N.am      1 <0>        -0.7194
     10 C7         -3.2884    2.5168    4.8126 C.3       1 <0>         0.1466
     11 C8         -3.5303    1.1972    5.5480 C.3       1 <0>        -0.1303
     12 C9         -4.5293    1.4224    6.6847 C.3       1 <0>        -0.1176
     13 C10        -5.8508    1.9346    6.1083 C.3       1 <0>        -0.1247
     14 C11        -5.6089    3.2543    5.3728 C.3       1 <0>        -0.1163
     15 C12        -4.6099    3.0290    4.2361 C.3       1 <0>        -0.1259
     16 N2          1.3412    2.2191    3.3759 N.am      1 <0>        -0.5890
     17 C13         1.7962    3.4565    4.0146 C.3       1 <0>         0.0936
     18 C14         2.3571    4.4029    2.9513 C.3       1 <0>        -0.2123
     19 C15         2.6936    5.7500    3.5940 C.3       1 <0>        -0.0135
     20 C16         1.9403    7.1069    1.7356 C.3       1 <0>        -0.0144
     21 C17         2.4269    7.8951    0.5179 C.3       1 <0>        -0.1894
     22 C18         3.7599    7.8751    3.1361 C.3       1 <0>        -0.0141
     23 C19         5.1921    7.5050    3.5270 C.3       1 <0>        -0.1985
     24 C20         2.1784    1.1682    3.2699 C.2       1 <0>         0.5956
     25 O2          1.7830    0.1210    2.7919 O.2       1 <0>        -0.5047
     26 C21         3.5650    1.2864    3.7302 C.2       1 <0>        -0.0510
     27 C22         4.4690    0.2508    3.8575 C.2       1 <0>        -0.0856
     28 C23         5.6646    0.7949    4.3231 C.2       1 <0>        -0.1739
     29 C24         5.4758    2.1517    4.4737 C.2       1 <0>         0.0812
     30 N3          4.1966    2.4507    4.1061 N.pl3     1 <0>        -0.5498
     31 H2          3.7980    3.3350    4.1111 H         1 <0>         0.4110
     32 C25         6.4887    3.1190    4.9461 C.ar      1 <0>        -0.0203
     33 C26         6.1698    4.4742    5.0483 C.ar      1 <0>        -0.1354
     34 C27         7.1184    5.3710    5.4945 C.ar      1 <0>        -0.1145
     35 C28         8.3867    4.9314    5.8302 C.ar      1 <0>        -0.1117
     36 C29         8.7109    3.5903    5.7261 C.ar      1 <0>        -0.1012
     37 C30         7.7701    2.6822    5.2864 C.ar      1 <0>        -0.0917
     38 H3          1.2380    4.4142   -2.4594 H         1 <0>         0.0584
     39 H4          2.4256    3.6678   -1.3636 H         1 <0>         0.0507
     40 H5          1.1436    2.6741   -2.0966 H         1 <0>         0.0619
     41 H6         -0.5663    3.9424   -0.8252 H         1 <0>         0.0701
     42 H7          0.7157    4.9361   -0.0922 H         1 <0>         0.0486
     43 H8          0.4388    1.9080    0.1747 H         1 <0>         0.0783
     44 H9          1.7209    2.9017    0.9077 H         1 <0>         0.0627
     45 H10         0.0110    4.1700    2.1791 H         1 <0>         0.0683
     46 H11        -1.2711    3.1763    1.4461 H         1 <0>         0.0896
     47 H12        -2.6514    2.1262    2.8252 H         1 <0>         0.4018
     48 H13        -2.8864    3.2526    5.5092 H         1 <0>         0.0884
     49 H14        -3.9323    0.4614    4.8515 H         1 <0>         0.0659
     50 H15        -2.5888    0.8322    5.9587 H         1 <0>         0.0663
     51 H16        -4.1273    2.1582    7.3813 H         1 <0>         0.0637
     52 H17        -4.7016    0.4823    7.2087 H         1 <0>         0.0681
     53 H18        -6.5625    2.0951    6.9181 H         1 <0>         0.0674
     54 H19        -6.2527    1.1989    5.4117 H         1 <0>         0.0647
     55 H20        -5.2069    3.9901    6.0694 H         1 <0>         0.0645
     56 H21        -6.5503    3.6192    4.9622 H         1 <0>         0.0703
     57 H22        -4.4376    3.9692    3.7122 H         1 <0>         0.0671
     58 H23        -5.0119    2.2933    3.5396 H         1 <0>         0.0705
     59 H24         0.9569    3.9343    4.5200 H         1 <0>         0.1159
     60 H25         2.5743    3.2251    4.7420 H         1 <0>         0.0967
     61 H26         3.2598    3.9705    2.5199 H         1 <0>         0.0933
     62 H27         1.6141    4.5499    2.1674 H         1 <0>         0.1171
     63 H28         1.8175    6.1314    4.1184 H         1 <0>         0.1444
     64 H29         3.5127    5.6204    4.3015 H         1 <0>         0.1260
     65 H30         1.4027    6.2191    1.4026 H         1 <0>         0.1268
     66 H31         1.2752    7.7323    2.3311 H         1 <0>         0.1346
     67 H32         2.9645    8.7829    0.8508 H         1 <0>         0.0824
     68 H33         3.0920    7.2696   -0.0776 H         1 <0>         0.0811
     69 H34         1.5710    8.1941   -0.0871 H         1 <0>         0.1082
     70 H35         3.7801    8.6841    2.4060 H         1 <0>         0.1356
     71 H36         3.2136    8.1988    4.0221 H         1 <0>         0.1336
     72 H37         5.6547    8.3434    4.0478 H         1 <0>         0.1109
     73 H38         5.1763    6.6342    4.1824 H         1 <0>         0.0781
     74 H39         5.7655    7.2738    2.6293 H         1 <0>         0.0845
     75 H40         4.2835   -0.7901    3.6372 H         1 <0>         0.1569
     76 H41         6.5750    0.2513    4.5285 H         1 <0>         0.1530
     77 H42         5.1815    4.8192    4.7827 H         1 <0>         0.0980
     78 H43         6.8719    6.4192    5.5776 H         1 <0>         0.1242
     79 H44         9.1268    5.6381    6.1753 H         1 <0>         0.1297
     80 H45         9.7025    3.2536    5.9900 H         1 <0>         0.1344
     81 H46         8.0243    1.6356    5.2059 H         1 <0>         0.1353
     82 N4          3.1126    6.6907    2.5337 N.4       1 <0>        -0.3961
     83 H47         3.7856    6.2201    1.9174 H         1 <0>         0.4261
@<TRIPOS>BOND
     1    1    2 1
     2    1   38 1
     3    1   39 1
     4    1   40 1
     5    2    3 1
     6    2   41 1
     7    2   42 1
     8    3    4 1
     9    3   43 1
    10    3   44 1
    11    4    5 1
    12    4   45 1
    13    4   46 1
    14    5    6 1
    15    5    7 1
    16    5   16 1
    17    7    8 2
    18    7    9 am
    19    9   10 1
    20    9   47 1
    21   10   15 1
    22   10   11 1
    23   10   48 1
    24   11   12 1
    25   11   49 1
    26   11   50 1
    27   12   13 1
    28   12   51 1
    29   12   52 1
    30   13   14 1
    31   13   53 1
    32   13   54 1
    33   14   15 1
    34   14   55 1
    35   14   56 1
    36   15   57 1
    37   15   58 1
    38   16   17 1
    39   16   24 am
    40   17   18 1
    41   17   59 1
    42   17   60 1
    43   18   19 1
    44   18   61 1
    45   18   62 1
    46   19   63 1
    47   19   64 1
    48   19   82 1
    49   20   21 1
    50   20   65 1
    51   20   66 1
    52   20   82 1
    53   21   67 1
    54   21   68 1
    55   21   69 1
    56   22   23 1
    57   22   70 1
    58   22   71 1
    59   22   82 1
    60   23   72 1
    61   23   73 1
    62   23   74 1
    63   24   25 2
    64   24   26 1
    65   26   30 1
    66   26   27 2
    67   27   28 1
    68   27   75 1
    69   28   29 2
    70   28   76 1
    71   29   30 1
    72   29   32 1
    73   30   31 1
    74   32   37 ar
    75   32   33 ar
    76   33   34 ar
    77   33   77 1
    78   34   35 ar
    79   34   78 1
    80   35   36 ar
    81   35   79 1
    82   36   37 ar
    83   36   80 1
    84   37   81 1
    85   82   83 1
