@<TRIPOS>MOLECULE
ZINC13601808
   24    24     0     0     0
SMALL
USER_CHARGES
(2R,3R,4S)-2-(hydroxymethyl)piperidine-3,4-diol
@<TRIPOS>ATOM
      1 C1         -3.5450   -2.1286   -1.1647 C.3       1 <0>        -0.1820
      2 C2         -3.5034   -0.6009   -1.2450 C.3       1 <0>        -0.0019
      3 C3         -1.4333   -0.5336    0.0129 C.3       1 <0>         0.0420
      4 H1         -1.9700   -0.1108    0.8622 H         1 <0>         0.1588
      5 C4         -1.4130   -2.0593    0.1308 C.3       1 <0>         0.1082
      6 H2         -0.8648   -2.4821   -0.7111 H         1 <0>         0.0927
      7 C5         -2.8507   -2.5863    0.1210 C.3       1 <0>         0.0582
      8 H3         -2.8397   -3.6754    0.1623 H         1 <0>         0.0909
      9 O1         -3.5553   -2.0726    1.2531 O.3       1 <0>        -0.5518
     10 O2         -0.7747   -2.4350    1.3529 O.3       1 <0>        -0.5374
     11 C6          0.0021   -0.0041    0.0020 C.3       1 <0>         0.0543
     12 O3         -0.0173    1.4248    0.0099 O.3       1 <0>        -0.5810
     13 H4         -3.0302   -2.5525   -2.0269 H         1 <0>         0.1009
     14 H5         -4.5817   -2.4652   -1.1580 H         1 <0>         0.1210
     15 H6         -3.9844   -0.2725   -2.1664 H         1 <0>         0.1377
     16 H7         -4.0303   -0.1778   -0.3897 H         1 <0>         0.1370
     17 H8         -4.4748   -2.3663    1.3106 H         1 <0>         0.3948
     18 H9         -0.7264   -3.3904    1.4939 H         1 <0>         0.4049
     19 H10         0.5123   -0.3556   -0.8948 H         1 <0>         0.0701
     20 H11         0.5293   -0.3651    0.8851 H         1 <0>         0.1040
     21 H12         0.8606    1.8301    0.0037 H         1 <0>         0.4108
     22 N1         -2.1017   -0.1408   -1.2423 N.4       1 <0>        -0.5070
     23 H13        -2.0813    0.8820   -1.3306 H         1 <0>         0.4479
     24 H14        -1.6057   -0.5628   -2.0361 H         1 <0>         0.4269
@<TRIPOS>BOND
     1    1    7 1
     2    1    2 1
     3    1   13 1
     4    1   14 1
     5    2   15 1
     6    2   16 1
     7    2   22 1
     8    3    4 1
     9    3    5 1
    10    3   11 1
    11    3   22 1
    12    5    6 1
    13    5    7 1
    14    5   10 1
    15    7    8 1
    16    7    9 1
    17    9   17 1
    18   10   18 1
    19   11   12 1
    20   11   19 1
    21   11   20 1
    22   12   21 1
    23   22   23 1
    24   22   24 1
