@<TRIPOS>MOLECULE
ZINC02562346
   25    25     0     0     0
SMALL
USER_CHARGES
2,5-bis(hydroxymethyl)pyrrolidine-3,4-diol
@<TRIPOS>ATOM
      1 C1         -0.0173    1.4248    0.0099 C.3       1 <0>         0.0619
      2 C2         -0.7334    1.9182    1.2687 C.3       1 <0>         0.0435
      3 H1         -1.7235    1.4682    1.3421 H         1 <0>         0.1611
      4 C3         -0.8429    3.4633    1.2563 C.3       1 <0>         0.0613
      5 H2         -1.7281    3.7877    0.7092 H         1 <0>         0.1206
      6 C4         -0.9763    3.7802    2.7691 C.3       1 <0>         0.0662
      7 H3         -0.6152    4.7856    2.9855 H         1 <0>         0.1179
      8 C5         -0.0679    2.7207    3.4276 C.3       1 <0>         0.0423
      9 H4          0.9108    3.1513    3.6393 H         1 <0>         0.1596
     10 C6         -0.7075    2.2202    4.7243 C.3       1 <0>         0.0620
     11 O1          0.1917    1.3278    5.3854 O.3       1 <0>        -0.5824
     12 O2         -2.3296    3.6241    3.2006 O.3       1 <0>        -0.5470
     13 O3          0.3379    4.0558    0.7113 O.3       1 <0>        -0.5492
     14 O4          0.0021   -0.0041    0.0020 O.3       1 <0>        -0.5806
     15 H5          1.0053    1.8021    0.0021 H         1 <0>         0.0824
     16 H6         -0.5445    1.7859   -0.8732 H         1 <0>         0.0947
     17 H7         -0.9216    3.0682    5.3747 H         1 <0>         0.0961
     18 H8         -1.6350    1.6962    4.4932 H         1 <0>         0.0808
     19 H9         -0.1490    0.9707    6.2170 H         1 <0>         0.4102
     20 H10        -2.9539    4.2160    2.7592 H         1 <0>         0.4068
     21 H11         0.3160    5.0221    0.6830 H         1 <0>         0.4092
     22 H12         0.4417   -0.3872   -0.7693 H         1 <0>         0.4099
     23 N1          0.0618    1.6093    2.4712 N.4       1 <0>        -0.5066
     24 H13         1.0481    1.4916    2.2113 H         1 <0>         0.4380
     25 H14        -0.2847    0.7432    2.9003 H         1 <0>         0.4415
@<TRIPOS>BOND
     1    1    2 1
     2    1   14 1
     3    1   15 1
     4    1   16 1
     5    2    3 1
     6    2    4 1
     7    2   23 1
     8    4    5 1
     9    4    6 1
    10    4   13 1
    11    6    7 1
    12    6    8 1
    13    6   12 1
    14    8    9 1
    15    8   10 1
    16    8   23 1
    17   10   11 1
    18   10   17 1
    19   10   18 1
    20   11   19 1
    21   12   20 1
    22   13   21 1
    23   14   22 1
    24   23   24 1
    25   23   25 1
@<TRIPOS>MOLECULE
ZINC05766623
   25    25     0     0     0
SMALL
USER_CHARGES
2,5-bis(hydroxymethyl)pyrrolidine-3,4-diol
@<TRIPOS>ATOM
      1 C1          1.2864    1.5618   -0.0018 C.3       1 <0>         0.0568
      2 C2          1.1449    3.0852    0.0077 C.3       1 <0>         0.0350
      3 H1          0.5071    3.4039   -0.8168 H         1 <0>         0.1626
      4 C3          2.5322    3.7417   -0.1181 C.3       1 <0>         0.0640
      5 H2          3.3059    2.9783   -0.2000 H         1 <0>         0.1121
      6 C4          2.7147    4.5529    1.1852 C.3       1 <0>         0.0547
      7 H3          3.7394    4.4743    1.5482 H         1 <0>         0.1206
      8 C5          1.7284    3.8651    2.1624 C.3       1 <0>         0.0415
      9 H4          2.1699    2.9609    2.5814 H         1 <0>         0.1615
     10 C6          1.3131    4.8276    3.2768 C.3       1 <0>         0.0663
     11 O1          0.4985    4.1353    4.2251 O.3       1 <0>        -0.5803
     12 O2          2.3552    5.9212    0.9837 O.3       1 <0>        -0.5440
     13 O3          2.5689    4.6103   -1.2522 O.3       1 <0>        -0.5387
     14 O4         -0.0110    0.9628    0.0073 O.3       1 <0>        -0.5753
     15 H5          1.8401    1.2428    0.8812 H         1 <0>         0.0735
     16 H6          1.8231    1.2523   -0.8987 H         1 <0>         0.0981
     17 H7          2.2030    5.2126    3.7748 H         1 <0>         0.0962
     18 H8          0.7486    5.6564    2.8495 H         1 <0>         0.0820
     19 H9          0.1980    4.6855    4.9614 H         1 <0>         0.4102
     20 H10         2.8939    6.3760    0.3219 H         1 <0>         0.4057
     21 H11         3.4192    5.0522   -1.3819 H         1 <0>         0.4033
     22 H12         0.0021   -0.0041    0.0020 H         1 <0>         0.4125
     23 N1          0.5915    3.5276    1.2874 N.4       1 <0>        -0.5042
     24 H13         0.0350    2.7747    1.7089 H         1 <0>         0.4460
     25 H14        -0.0014    4.3541    1.1472 H         1 <0>         0.4399
@<TRIPOS>BOND
     1    1    2 1
     2    1   14 1
     3    1   15 1
     4    1   16 1
     5    2    3 1
     6    2    4 1
     7    2   23 1
     8    4    5 1
     9    4    6 1
    10    4   13 1
    11    6    7 1
    12    6    8 1
    13    6   12 1
    14    8    9 1
    15    8   10 1
    16    8   23 1
    17   10   11 1
    18   10   17 1
    19   10   18 1
    20   11   19 1
    21   12   20 1
    22   13   21 1
    23   14   22 1
    24   23   24 1
    25   23   25 1
@<TRIPOS>MOLECULE
ZINC49054534
   68    71     0     0     0
SMALL
USER_CHARGES

@<TRIPOS>ATOM
      1 C1         -0.0408    1.4963   -0.0860 C.3       1 <0>         0.0008
      2 C2          1.4070    1.9844   -0.1715 C.3       1 <0>         0.0582
      3 H1          1.4205    3.0714   -0.2507 H         1 <0>         0.1016
      4 C3          2.1603    1.5543    1.0905 C.3       1 <0>         0.0279
      5 H2          3.2062    1.8503    1.0094 H         1 <0>         0.0893
      6 C4          2.0685    0.0324    1.2342 C.3       1 <0>         0.1078
      7 H3          2.5548   -0.2758    2.1597 H         1 <0>         0.1029
      8 C5          0.5962   -0.3834    1.2676 C.3       1 <0>         0.0466
      9 H4          0.1038    0.0930    2.1154 H         1 <0>         0.1587
     10 N1         -0.0618    0.0327    0.0233 N.4       1 <0>        -0.3707
     11 C6         -1.4538   -0.4366    0.0267 C.3       1 <0>        -0.0181
     12 C7         -2.1057   -0.1092   -1.3183 C.3       1 <0>        -0.1445
     13 C8         -3.5555   -0.5980   -1.3148 C.3       1 <0>        -0.1138
     14 C9         -4.2073   -0.2705   -2.6597 C.3       1 <0>        -0.1189
     15 C10        -5.6571   -0.7594   -2.6562 C.3       1 <0>         0.0607
     16 O1         -6.2659   -0.4535   -3.9123 O.3       1 <0>        -0.3814
     17 C11        -7.6290   -0.8703   -4.0144 C.3       1 <0>         0.0731
     18 C12        -8.1756   -0.4938   -5.3929 C.3       1 <0>        -0.0495
     19 C13        -7.3477   -1.1873   -6.4766 C.3       1 <0>        -0.0959
     20 C14        -7.8943   -0.8108   -7.8552 C.3       1 <0>        -0.0876
     21 C15        -9.3537   -1.2571   -7.9645 C.3       1 <0>        -0.1103
     22 C16       -10.1816   -0.5635   -6.8807 C.3       1 <0>        -0.0845
     23 C17        -9.6350   -0.9400   -5.5022 C.3       1 <0>        -0.1029
     24 C18       -10.0966    0.9529   -7.0663 C.3       1 <0>        -0.1103
     25 C19        -8.6372    1.3991   -6.9570 C.3       1 <0>        -0.0876
     26 C20        -7.8094    0.7055   -8.0407 C.3       1 <0>        -0.1078
     27 C21        -8.0906    1.0226   -5.5785 C.3       1 <0>        -0.0957
     28 C22         0.4994   -1.9036    1.4106 C.3       1 <0>         0.0519
     29 O2          1.2049   -2.5289    0.3367 O.3       1 <0>        -0.5514
     30 O3          2.7164   -0.5916    0.1239 O.3       1 <0>        -0.5208
     31 O4          1.5739    2.1800    2.2337 O.3       1 <0>        -0.5536
     32 O5          2.0356    1.4143   -1.3211 O.3       1 <0>        -0.5473
     33 H5         -0.5196    1.9326    0.7907 H         1 <0>         0.1424
     34 H6         -0.5800    1.8010   -0.9829 H         1 <0>         0.1395
     35 H7         -1.4734   -1.5146    0.1870 H         1 <0>         0.1331
     36 H8         -2.0027    0.0598    0.8269 H         1 <0>         0.1286
     37 H9         -2.0861    0.9688   -1.4786 H         1 <0>         0.0867
     38 H10        -1.5568   -0.6056   -2.1185 H         1 <0>         0.0901
     39 H11        -3.5751   -1.6760   -1.1544 H         1 <0>         0.0757
     40 H12        -4.1044   -0.1016   -0.5145 H         1 <0>         0.0754
     41 H13        -4.1877    0.8074   -2.8200 H         1 <0>         0.0744
     42 H14        -3.6584   -0.7670   -3.4599 H         1 <0>         0.0754
     43 H15        -5.6767   -1.8373   -2.4958 H         1 <0>         0.0480
     44 H16        -6.2060   -0.2630   -1.8560 H         1 <0>         0.0477
     45 H17        -7.6895   -1.9506   -3.8822 H         1 <0>         0.0491
     46 H18        -8.2188   -0.3762   -3.2423 H         1 <0>         0.0489
     47 H19        -6.3080   -0.8694   -6.3988 H         1 <0>         0.0682
     48 H20        -7.4082   -2.2676   -6.3445 H         1 <0>         0.0578
     49 H21        -7.3045   -1.3049   -8.6273 H         1 <0>         0.0694
     50 H22        -9.7431   -0.9888   -8.9466 H         1 <0>         0.0633
     51 H23        -9.4142   -2.3373   -7.8323 H         1 <0>         0.0615
     52 H24       -11.2213   -0.8814   -6.9586 H         1 <0>         0.0722
     53 H25        -9.6955   -2.0203   -5.3700 H         1 <0>         0.0634
     54 H26       -10.2248   -0.4459   -4.7301 H         1 <0>         0.0633
     55 H27       -10.4860    1.2211   -8.0484 H         1 <0>         0.0633
     56 H28       -10.6864    1.4470   -6.2942 H         1 <0>         0.0614
     57 H29        -8.5767    2.4793   -7.0892 H         1 <0>         0.0692
     58 H30        -6.7696    1.0234   -7.9629 H         1 <0>         0.0605
     59 H31        -8.1987    0.9738   -9.0228 H         1 <0>         0.0619
     60 H32        -8.6805    1.5167   -4.8064 H         1 <0>         0.0576
     61 H33        -7.0509    1.3405   -5.5006 H         1 <0>         0.0681
     62 H34         0.9394   -2.2080    2.3603 H         1 <0>         0.0898
     63 H35        -0.5476   -2.2053    1.3820 H         1 <0>         0.0714
     64 H36         1.1855   -3.4954    0.3634 H         1 <0>         0.3986
     65 H37         3.6537   -0.3694    0.0397 H         1 <0>         0.3930
     66 H38         1.5929    3.1464    2.2061 H         1 <0>         0.3988
     67 H39         2.9577    1.6812   -1.4382 H         1 <0>         0.4017
     68 H40         0.4247   -0.3694   -0.7639 H         1 <0>         0.4434
@<TRIPOS>BOND
     1    1   10 1
     2    1    2 1
     3    1   33 1
     4    1   34 1
     5    2    3 1
     6    2    4 1
     7    2   32 1
     8    4    5 1
     9    4    6 1
    10    4   31 1
    11    6    7 1
    12    6    8 1
    13    6   30 1
    14    8    9 1
    15    8   10 1
    16    8   28 1
    17   10   11 1
    18   10   68 1
    19   11   12 1
    20   11   35 1
    21   11   36 1
    22   12   13 1
    23   12   37 1
    24   12   38 1
    25   13   14 1
    26   13   39 1
    27   13   40 1
    28   14   15 1
    29   14   41 1
    30   14   42 1
    31   15   16 1
    32   15   43 1
    33   15   44 1
    34   16   17 1
    35   17   18 1
    36   17   45 1
    37   17   46 1
    38   18   23 1
    39   18   27 1
    40   18   19 1
    41   19   20 1
    42   19   47 1
    43   19   48 1
    44   20   26 1
    45   20   21 1
    46   20   49 1
    47   21   22 1
    48   21   50 1
    49   21   51 1
    50   22   23 1
    51   22   24 1
    52   22   52 1
    53   23   53 1
    54   23   54 1
    55   24   25 1
    56   24   55 1
    57   24   56 1
    58   25   26 1
    59   25   27 1
    60   25   57 1
    61   26   58 1
    62   26   59 1
    63   27   60 1
    64   27   61 1
    65   28   29 1
    66   28   62 1
    67   28   63 1
    68   29   64 1
    69   30   65 1
    70   31   66 1
    71   32   67 1
@<TRIPOS>MOLECULE
ZINC14658010
   21    21     0     0     0
SMALL
USER_CHARGES
(3S,5R)-piperidine-3,4,5-triol
@<TRIPOS>ATOM
      1 C1          2.0644    1.1143    1.2377 C.3       1 <0>        -0.0433
      2 C2          1.2864    1.5618   -0.0018 C.3       1 <0>         0.1045
      3 H1          1.8230    1.2538   -0.8992 H         1 <0>         0.0943
      4 C3          1.1457    3.0864    0.0127 C.3       1 <0>         0.1006
      5 C4          2.5391    3.7192    0.0634 C.3       1 <0>         0.0611
      6 H2          3.0958    3.4458   -0.8329 H         1 <0>         0.0909
      7 C5          3.2808    3.2093    1.3011 C.3       1 <0>        -0.0409
      8 O1          2.4158    5.1412    0.1332 O.3       1 <0>        -0.5357
      9 O2          0.3975    3.4860    1.1627 O.3       1 <0>        -0.5474
     10 O3         -0.0110    0.9628    0.0073 O.3       1 <0>        -0.5228
     11 H3          1.5200    1.4099    2.1345 H         1 <0>         0.1475
     12 H4          2.1787    0.0305    1.2231 H         1 <0>         0.1386
     13 H5          0.6299    3.4132   -0.8902 H         1 <0>         0.0982
     14 H6          2.7307    3.4950    2.1976 H         1 <0>         0.1447
     15 H7          4.2786    3.6469    1.3323 H         1 <0>         0.1377
     16 H8          3.2619    5.6079    0.1709 H         1 <0>         0.4016
     17 H9          0.2695    4.4417    1.2360 H         1 <0>         0.4005
     18 H10         0.0021   -0.0041    0.0020 H         1 <0>         0.3957
     19 N1          3.4005    1.7400    1.2392 N.4       1 <0>        -0.5026
     20 H11         3.8980    1.4771    0.3804 H         1 <0>         0.4324
     21 H12         3.9281    1.4090    2.0554 H         1 <0>         0.4442
@<TRIPOS>BOND
     1    1    2 1
     2    1   11 1
     3    1   12 1
     4    1   19 1
     5    2    3 1
     6    2    4 1
     7    2   10 1
     8    4    5 1
     9    4    9 1
    10    4   13 1
    11    5    6 1
    12    5    7 1
    13    5    8 1
    14    7   14 1
    15    7   15 1
    16    7   19 1
    17    8   16 1
    18    9   17 1
    19   10   18 1
    20   19   20 1
    21   19   21 1
@<TRIPOS>MOLECULE
ZINC03813668
   24    24     0     0     0
SMALL
USER_CHARGES
5-(hydroxymethyl)piperidine-3,4-diol
@<TRIPOS>ATOM
      1 C1         -0.0127    1.0858    0.0080 C.3       1 <0>         0.0019
      2 C2         -0.7286    1.5791    1.2674 C.3       1 <0>        -0.1023
      3 H1         -0.7316    2.6691    1.2810 H         1 <0>         0.1126
      4 C3         -2.1703    1.0639    1.2644 C.3       1 <0>         0.1089
      5 H2         -2.1688   -0.0258    1.2907 H         1 <0>         0.0820
      6 C4         -2.8727    1.5441   -0.0087 C.3       1 <0>         0.0566
      7 H3         -2.9100    2.6334   -0.0156 H         1 <0>         0.0901
      8 C5         -2.0949    1.0518   -1.2313 C.3       1 <0>        -0.0409
      9 O1         -4.2019    1.0209   -0.0465 O.3       1 <0>        -0.5391
     10 O2         -2.8602    1.5683    2.4096 O.3       1 <0>        -0.5462
     11 C6         -0.0015    1.0541    2.5071 C.3       1 <0>         0.0845
     12 O3          1.3073    1.6242    2.5688 O.3       1 <0>        -0.5791
     13 H4          0.0021   -0.0041    0.0020 H         1 <0>         0.1346
     14 H5          1.0099    1.4629    0.0003 H         1 <0>         0.1504
     15 H6         -2.5844    1.4040   -2.1392 H         1 <0>         0.1385
     16 H7         -2.0703   -0.0380   -1.2313 H         1 <0>         0.1401
     17 H8         -4.7056    1.2828   -0.8292 H         1 <0>         0.4002
     18 H9         -3.7828    1.2851    2.4693 H         1 <0>         0.4024
     19 H10        -0.5609    1.3308    3.4008 H         1 <0>         0.0787
     20 H11         0.0774   -0.0315    2.4494 H         1 <0>         0.0582
     21 H12         1.8268    1.3350    3.3314 H         1 <0>         0.4003
     22 N1         -0.7177    1.5794   -1.1903 N.4       1 <0>        -0.5113
     23 H13        -0.2128    1.2727   -2.0301 H         1 <0>         0.4429
     24 H14        -0.7491    2.6054   -1.1656 H         1 <0>         0.4358
@<TRIPOS>BOND
     1    1    2 1
     2    1   13 1
     3    1   14 1
     4    1   22 1
     5    2    3 1
     6    2    4 1
     7    2   11 1
     8    4    5 1
     9    4    6 1
    10    4   10 1
    11    6    7 1
    12    6    8 1
    13    6    9 1
    14    8   15 1
    15    8   16 1
    16    8   22 1
    17    9   17 1
    18   10   18 1
    19   11   12 1
    20   11   19 1
    21   11   20 1
    22   12   21 1
    23   22   23 1
    24   22   24 1
@<TRIPOS>MOLECULE
ZINC03625134
   45    47     0     0     0
SMALL
USER_CHARGES

@<TRIPOS>ATOM
      1 C1          1.5138    1.0606   -0.2807 C.3       1 <0>        -0.1147
      2 C2          0.7246   -0.2152   -0.1368 C.ar      1 <0>        -0.0667
      3 C3         -0.0269   -0.6860   -1.1981 C.ar      1 <0>        -0.1381
      4 C4         -0.7526   -1.8559   -1.0701 C.ar      1 <0>        -0.0979
      5 C5         -0.7293   -2.5583    0.1191 C.ar      1 <0>        -0.1163
      6 C6          0.0246   -2.0885    1.1865 C.ar      1 <0>         0.1696
      7 C7          0.7571   -0.9158    1.0527 C.ar      1 <0>        -0.1490
      8 N1          0.0504   -2.7972    2.3917 N.pl3     1 <0>        -0.6298
      9 C8         -0.0360   -4.1760    2.3843 C.ar      1 <0>         0.6514
     10 N2         -0.0276   -4.8363    1.2304 N.ar      1 <0>        -0.6626
     11 C9         -0.1103   -6.1629    1.2233 C.ar      1 <0>         0.6511
     12 N3         -0.2015   -6.8295    2.3700 N.ar      1 <0>        -0.6732
     13 C10        -0.2099   -6.1692    3.5237 C.ar      1 <0>         0.6722
     14 N4         -0.1221   -4.8427    3.5310 N.ar      1 <0>        -0.6728
     15 N5         -0.3046   -6.8612    4.7141 N.pl3     1 <0>        -0.5819
     16 C11        -0.3955   -8.3222    4.8511 C.3       1 <0>         0.1249
     17 C12        -0.5091   -8.6349    6.3580 C.3       1 <0>        -0.1341
     18 C13        -1.0452   -7.3044    6.9496 C.3       1 <0>        -0.1352
     19 C14        -0.3249   -6.2581    6.0592 C.3       1 <0>         0.1218
     20 N6         -0.1020   -6.8484    0.0254 N.pl3     1 <0>        -0.6800
     21 C15        -0.0020   -6.1139   -1.2382 C.3       1 <0>         0.1388
     22 C16        -0.0140   -7.1031   -2.4054 C.3       1 <0>         0.0613
     23 O1         -1.2781   -7.7677   -2.4535 O.3       1 <0>        -0.5709
     24 H1          2.5116    0.8305   -0.6541 H         1 <0>         0.0707
     25 H2          1.0074    1.7239   -0.9819 H         1 <0>         0.0677
     26 H3          1.5931    1.5502    0.6900 H         1 <0>         0.0657
     27 H4         -0.0471   -0.1385   -2.1288 H         1 <0>         0.1211
     28 H5         -1.3387   -2.2207   -1.9006 H         1 <0>         0.1233
     29 H6         -1.2970   -3.4716    0.2187 H         1 <0>         0.1344
     30 H7          1.3476   -0.5499    1.8797 H         1 <0>         0.1231
     31 H8          0.1291   -2.3207    3.2330 H         1 <0>         0.4241
     32 H9         -1.2790   -8.6892    4.3287 H         1 <0>         0.0700
     33 H10         0.5003   -8.7893    4.4420 H         1 <0>         0.0690
     34 H11        -1.2158   -9.4464    6.5313 H         1 <0>         0.0856
     35 H12         0.4679   -8.8770    6.7763 H         1 <0>         0.0783
     36 H13        -2.1275   -7.2364    6.8404 H         1 <0>         0.0776
     37 H14        -0.7517   -7.1947    7.9936 H         1 <0>         0.0878
     38 H15         0.6917   -6.0895    6.4147 H         1 <0>         0.0685
     39 H16        -0.8835   -5.3222    6.0469 H         1 <0>         0.0825
     40 H17        -0.1624   -7.8165    0.0202 H         1 <0>         0.4180
     41 H18        -0.8480   -5.4328   -1.3304 H         1 <0>         0.0767
     42 H19         0.9269   -5.5439   -1.2546 H         1 <0>         0.0836
     43 H20         0.1494   -6.5651   -3.3392 H         1 <0>         0.0673
     44 H21         0.7782   -7.8387   -2.2664 H         1 <0>         0.0540
     45 H22        -1.3571   -8.4112   -3.1710 H         1 <0>         0.3836
@<TRIPOS>BOND
     1    1    2 1
     2    1   24 1
     3    1   25 1
     4    1   26 1
     5    2    7 ar
     6    2    3 ar
     7    3    4 ar
     8    3   27 1
     9    4    5 ar
    10    4   28 1
    11    5    6 ar
    12    5   29 1
    13    6    7 ar
    14    6    8 1
    15    7   30 1
    16    8    9 1
    17    8   31 1
    18    9   14 ar
    19    9   10 ar
    20   10   11 ar
    21   11   12 ar
    22   11   20 1
    23   12   13 ar
    24   13   14 ar
    25   13   15 1
    26   15   19 1
    27   15   16 1
    28   16   17 1
    29   16   32 1
    30   16   33 1
    31   17   18 1
    32   17   34 1
    33   17   35 1
    34   18   19 1
    35   18   36 1
    36   18   37 1
    37   19   38 1
    38   19   39 1
    39   20   21 1
    40   20   40 1
    41   21   22 1
    42   21   41 1
    43   21   42 1
    44   22   23 1
    45   22   43 1
    46   22   44 1
    47   23   45 1
@<TRIPOS>MOLECULE
ZINC02479533
   42    44     0     0     0
SMALL
USER_CHARGES

@<TRIPOS>ATOM
      1 C1          1.0684   -0.4520   -0.7763 C.ar      1 <0>        -0.1000
      2 C2          2.2523    0.2590   -0.7936 C.ar      1 <0>        -0.0905
      3 C3          2.3759    1.4177   -0.0472 C.ar      1 <0>        -0.0534
      4 C4          1.3145    1.8669    0.7187 C.ar      1 <0>        -0.0884
      5 C5          0.1285    1.1595    0.7400 C.ar      1 <0>        -0.1364
      6 C6          0.0014   -0.0032   -0.0089 C.ar      1 <0>         0.1736
      7 N1         -1.1991   -0.7212    0.0101 N.pl3     1 <0>        -0.6293
      8 C7         -1.1823   -2.0980   -0.1017 C.ar      1 <0>         0.6511
      9 N2         -0.0237   -2.7501   -0.1115 N.ar      1 <0>        -0.6650
     10 C8         -0.0075   -4.0748   -0.2191 C.ar      1 <0>         0.6524
     11 N3         -1.1499   -4.7478   -0.3170 N.ar      1 <0>        -0.6717
     12 C9         -2.3083   -4.0959   -0.3073 C.ar      1 <0>         0.6727
     13 N4         -2.3247   -2.7713   -0.1941 N.ar      1 <0>        -0.6712
     14 N5         -3.4942   -4.7945   -0.4090 N.pl3     1 <0>        -0.5811
     15 C10        -3.6212   -6.2544   -0.5267 C.3       1 <0>         0.1245
     16 C11        -5.1265   -6.5758   -0.6387 C.3       1 <0>        -0.1342
     17 C12        -5.7302   -5.2399   -1.1467 C.3       1 <0>        -0.1353
     18 C13        -4.8436   -4.2008   -0.4113 C.3       1 <0>         0.1215
     19 N6          1.1952   -4.7517   -0.2297 N.pl3     1 <0>        -0.6791
     20 C14         2.4541   -4.0101   -0.1222 C.3       1 <0>         0.1381
     21 C15         3.6282   -4.9904   -0.1586 C.3       1 <0>         0.0610
     22 O1          3.6745   -5.6309   -1.4352 O.3       1 <0>        -0.5710
     23 Cl1         3.8654    2.3090   -0.0712 Cl        1 <0>        -0.0724
     24 H1          0.9709   -1.3538   -1.3625 H         1 <0>         0.1442
     25 H2          3.0824   -0.0898   -1.3899 H         1 <0>         0.1348
     26 H3          1.4137    2.7713    1.3006 H         1 <0>         0.1368
     27 H4         -0.6993    1.5102    1.3384 H         1 <0>         0.1346
     28 H5         -2.0432   -0.2523    0.1018 H         1 <0>         0.4264
     29 H6         -3.1008   -6.6011   -1.4195 H         1 <0>         0.0705
     30 H7         -3.2043   -6.7353    0.3581 H         1 <0>         0.0694
     31 H8         -5.2975   -7.3752   -1.3596 H         1 <0>         0.0859
     32 H9         -5.5380   -6.8392    0.3357 H         1 <0>         0.0785
     33 H10        -5.6271   -5.1508   -2.2281 H         1 <0>         0.0777
     34 H11        -6.7734   -5.1433   -0.8460 H         1 <0>         0.0881
     35 H12        -5.1951   -4.0539    0.6100 H         1 <0>         0.0689
     36 H13        -4.8409   -3.2545   -0.9523 H         1 <0>         0.0828
     37 H14         1.2070   -5.7184   -0.3082 H         1 <0>         0.4186
     38 H15         2.5371   -3.3126   -0.9557 H         1 <0>         0.0768
     39 H16         2.4712   -3.4574    0.8171 H         1 <0>         0.0841
     40 H17         4.5590   -4.4489    0.0102 H         1 <0>         0.0678
     41 H18         3.4985   -5.7417    0.6203 H         1 <0>         0.0543
     42 H19         4.3962   -6.2675   -1.5298 H         1 <0>         0.3840
@<TRIPOS>BOND
     1    1    6 ar
     2    1    2 ar
     3    1   24 1
     4    2    3 ar
     5    2   25 1
     6    3    4 ar
     7    3   23 1
     8    4    5 ar
     9    4   26 1
    10    5    6 ar
    11    5   27 1
    12    6    7 1
    13    7    8 1
    14    7   28 1
    15    8   13 ar
    16    8    9 ar
    17    9   10 ar
    18   10   11 ar
    19   10   19 1
    20   11   12 ar
    21   12   13 ar
    22   12   14 1
    23   14   18 1
    24   14   15 1
    25   15   16 1
    26   15   29 1
    27   15   30 1
    28   16   17 1
    29   16   31 1
    30   16   32 1
    31   17   18 1
    32   17   33 1
    33   17   34 1
    34   18   35 1
    35   18   36 1
    36   19   20 1
    37   19   37 1
    38   20   21 1
    39   20   38 1
    40   20   39 1
    41   21   22 1
    42   21   40 1
    43   21   41 1
    44   22   42 1
@<TRIPOS>MOLECULE
ZINC03894450
   58    60     0     0     0
SMALL
USER_CHARGES

@<TRIPOS>ATOM
      1 C1         -0.0369    1.4913   -0.2049 C.3       1 <0>        -0.1811
      2 C2         -0.0000   -0.0222    0.0163 C.3       1 <0>         0.0832
      3 N1          0.7417   -0.3183    1.2444 N.pl3     1 <0>        -0.5751
      4 C3          0.0359   -0.3950    2.5259 C.3       1 <0>         0.0999
      5 C4         -0.4312   -1.8321    2.7657 C.3       1 <0>        -0.1802
      6 C5          2.1127   -0.5261    1.1939 C.ar      1 <0>         0.4965
      7 C6          2.8056   -0.8141    2.3787 C.ar      1 <0>        -0.2257
      8 C7          4.1516   -1.0204    2.3441 C.ar      1 <0>         0.0988
      9 C8          4.8093   -0.9357    1.0994 C.ar      1 <0>        -0.0921
     10 C9          6.1936   -1.1379    0.9944 C.ar      1 <0>        -0.0677
     11 C10         6.8006   -1.0473   -0.2391 C.ar      1 <0>         0.1579
     12 C11         6.0485   -0.7557   -1.3820 C.ar      1 <0>        -0.0627
     13 C12         4.7057   -0.5555   -1.3037 C.ar      1 <0>        -0.1230
     14 C13         4.0535   -0.6413   -0.0614 C.ar      1 <0>         0.1429
     15 N2          2.7316   -0.4535    0.0340 N.ar      1 <0>        -0.5274
     16 N3          8.1816   -1.2482   -0.3495 N.am      1 <0>        -0.6774
     17 C14         8.8011   -2.1299    0.4599 C.2       1 <0>         0.5266
     18 O1          8.1507   -2.8185    1.2174 O.2       1 <0>        -0.5058
     19 C15        10.3020   -2.2603    0.4236 C.3       1 <0>        -0.1061
     20 C16        10.7442   -2.6744   -0.9813 C.3       1 <0>        -0.1146
     21 C17        10.1068   -4.0178   -1.3415 C.3       1 <0>        -0.1185
     22 C18        10.5509   -5.0796   -0.3334 C.3       1 <0>        -0.0941
     23 C19        10.1088   -4.6656    1.0716 C.3       1 <0>        -0.1284
     24 C20        10.7462   -3.3221    1.4317 C.3       1 <0>        -0.1011
     25 C21         9.9135   -6.4230   -0.6935 C.3       1 <0>        -0.1486
     26 C22         4.9184   -1.3308    3.6038 C.3       1 <0>        -0.1434
     27 H1          0.9812    1.8702   -0.2950 H         1 <0>         0.0583
     28 H2         -0.5887    1.7116   -1.1187 H         1 <0>         0.0897
     29 H3         -0.5293    1.9703    0.6413 H         1 <0>         0.0760
     30 H4         -1.0181   -0.4011    0.1063 H         1 <0>         0.1157
     31 H5          0.4924   -0.5012   -0.8300 H         1 <0>         0.0808
     32 H6          0.7075   -0.0925    3.3293 H         1 <0>         0.0987
     33 H7         -0.8281    0.2692    2.5052 H         1 <0>         0.1075
     34 H8         -0.9563   -1.8892    3.7191 H         1 <0>         0.0882
     35 H9         -1.1028   -2.1347    1.9623 H         1 <0>         0.0676
     36 H10         0.4328   -2.4963    2.7864 H         1 <0>         0.0644
     37 H11         2.2732   -0.8718    3.3165 H         1 <0>         0.1790
     38 H12         6.7789   -1.3626    1.8738 H         1 <0>         0.1656
     39 H13         6.5415   -0.6882   -2.3406 H         1 <0>         0.1544
     40 H14         4.1403   -0.3309   -2.1960 H         1 <0>         0.1543
     41 H15         8.6926   -0.7528   -1.0086 H         1 <0>         0.4199
     42 H16        10.7562   -1.3032    0.6802 H         1 <0>         0.1060
     43 H17        10.4278   -1.9179   -1.6995 H         1 <0>         0.0662
     44 H18        11.8298   -2.7687   -1.0075 H         1 <0>         0.0847
     45 H19         9.0212   -3.9235   -1.3152 H         1 <0>         0.0563
     46 H20        10.4218   -4.3128   -2.3424 H         1 <0>         0.0695
     47 H21        11.6365   -5.1739   -0.3596 H         1 <0>         0.0717
     48 H22         9.0232   -4.5713    1.0978 H         1 <0>         0.0863
     49 H23        10.4252   -5.4220    1.7898 H         1 <0>         0.0636
     50 H24        11.8318   -3.4164    1.4055 H         1 <0>         0.0755
     51 H25        10.4312   -3.0271    2.4326 H         1 <0>         0.0708
     52 H26        10.2285   -6.7180   -1.6944 H         1 <0>         0.0550
     53 H27        10.2299   -7.1795    0.0247 H         1 <0>         0.0572
     54 H28         8.8279   -6.3287   -0.6673 H         1 <0>         0.0512
     55 H29         4.9454   -2.4098    3.7561 H         1 <0>         0.1098
     56 H30         5.9360   -0.9512    3.5125 H         1 <0>         0.0932
     57 H31         4.4283   -0.8561    4.4538 H         1 <0>         0.0966
     58 H32         2.2202   -0.2565   -0.7664 H         1 <0>         0.4337
@<TRIPOS>BOND
     1    1    2 1
     2    1   27 1
     3    1   28 1
     4    1   29 1
     5    2    3 1
     6    2   30 1
     7    2   31 1
     8    3    4 1
     9    3    6 1
    10    4    5 1
    11    4   32 1
    12    4   33 1
    13    5   34 1
    14    5   35 1
    15    5   36 1
    16    6   15 ar
    17    6    7 ar
    18    7    8 ar
    19    7   37 1
    20    8    9 ar
    21    8   26 1
    22    9   14 ar
    23    9   10 ar
    24   10   11 ar
    25   10   38 1
    26   11   12 ar
    27   11   16 1
    28   12   13 ar
    29   12   39 1
    30   13   14 ar
    31   13   40 1
    32   14   15 ar
    33   15   58 1
    34   16   17 am
    35   16   41 1
    36   17   18 2
    37   17   19 1
    38   19   24 1
    39   19   20 1
    40   19   42 1
    41   20   21 1
    42   20   43 1
    43   20   44 1
    44   21   22 1
    45   21   45 1
    46   21   46 1
    47   22   23 1
    48   22   25 1
    49   22   47 1
    50   23   24 1
    51   23   48 1
    52   23   49 1
    53   24   50 1
    54   24   51 1
    55   25   52 1
    56   25   53 1
    57   25   54 1
    58   26   55 1
    59   26   56 1
    60   26   57 1
@<TRIPOS>MOLECULE
ZINC03894450
   57    59     0     0     0
SMALL
USER_CHARGES

@<TRIPOS>ATOM
      1 C1         -0.0778    1.1583   -0.3341 C.3       1 <0>        -0.1746
      2 C2         -0.0518   -0.3553   -0.1119 C.3       1 <0>         0.1186
      3 N1          0.6849   -0.6557    1.1182 N.pl3     1 <0>        -0.6035
      4 C3         -0.0244   -0.7268    2.3981 C.3       1 <0>         0.1256
      5 C4         -0.5019   -2.1605    2.6376 C.3       1 <0>        -0.1659
      6 C5          2.0545   -0.8729    1.0711 C.ar      1 <0>         0.4297
      7 C6          2.7351   -0.6919   -0.1416 C.ar      1 <0>        -0.2190
      8 C7          4.0797   -0.9014   -0.2026 C.ar      1 <0>         0.0107
      9 C8          4.7485   -1.2989    0.9738 C.ar      1 <0>        -0.1297
     10 C9          6.1322   -1.5306    0.9794 C.ar      1 <0>        -0.0800
     11 C10         6.7504   -1.9174    2.1483 C.ar      1 <0>         0.1145
     12 C11         6.0100   -2.0801    3.3241 C.ar      1 <0>        -0.1039
     13 C12         4.6680   -1.8614    3.3417 C.ar      1 <0>        -0.0953
     14 C13         4.0049   -1.4648    2.1674 C.ar      1 <0>         0.1745
     15 N2          2.6854   -1.2390    2.1674 N.ar      1 <0>        -0.5480
     16 N3          8.1308   -2.1499    2.1594 N.am      1 <0>        -0.6729
     17 C14         8.9436   -1.4195    1.3705 C.2       1 <0>         0.5197
     18 O1          8.4929   -0.4982    0.7232 O.2       1 <0>        -0.5129
     19 C15        10.4123   -1.7477    1.2927 C.3       1 <0>        -0.1071
     20 C16        11.0372   -1.6227    2.6837 C.3       1 <0>        -0.1119
     21 C17        10.8608   -0.1916    3.1953 C.3       1 <0>        -0.1190
     22 C18        11.5506    0.7813    2.2370 C.3       1 <0>        -0.0916
     23 C19        10.9258    0.6563    0.8460 C.3       1 <0>        -0.1291
     24 C20        11.1022   -0.7748    0.3344 C.3       1 <0>        -0.0982
     25 C21        11.3742    2.2124    2.7486 C.3       1 <0>        -0.1480
     26 C22         4.8333   -0.7139   -1.4941 C.3       1 <0>        -0.1200
     27 H1          0.9430    1.5302   -0.4219 H         1 <0>         0.0587
     28 H2         -0.6259    1.3818   -1.2493 H         1 <0>         0.0676
     29 H3         -0.5689    1.6412    0.5107 H         1 <0>         0.0588
     30 H4         -1.0727   -0.7271   -0.0240 H         1 <0>         0.0805
     31 H5          0.4393   -0.8381   -0.9567 H         1 <0>         0.0770
     32 H6          0.6473   -0.4283    3.2029 H         1 <0>         0.0842
     33 H7         -0.8839   -0.0567    2.3749 H         1 <0>         0.0693
     34 H8         -1.0297   -2.2134    3.5898 H         1 <0>         0.0628
     35 H9         -1.1737   -2.4590    1.8328 H         1 <0>         0.0503
     36 H10         0.3575   -2.8306    2.6608 H         1 <0>         0.0604
     37 H11         2.1943   -0.3872   -1.0254 H         1 <0>         0.1351
     38 H12         6.7082   -1.4070    0.0742 H         1 <0>         0.1401
     39 H13         6.5116   -2.3843    4.2309 H         1 <0>         0.1293
     40 H14         4.1116   -1.9921    4.2581 H         1 <0>         0.1360
     41 H15         8.5023   -2.8367    2.7350 H         1 <0>         0.4093
     42 H16        10.5380   -2.7672    0.9282 H         1 <0>         0.0999
     43 H17        10.5457   -2.3158    3.3664 H         1 <0>         0.0659
     44 H18        12.0996   -1.8600    2.6274 H         1 <0>         0.0783
     45 H19         9.7984    0.0457    3.2516 H         1 <0>         0.0610
     46 H20        11.3060   -0.1025    4.1863 H         1 <0>         0.0659
     47 H21        12.6130    0.5440    2.1807 H         1 <0>         0.0676
     48 H22         9.8634    0.8937    0.9023 H         1 <0>         0.0907
     49 H23        11.4172    1.3494    0.1633 H         1 <0>         0.0594
     50 H24        12.1646   -1.0121    0.2781 H         1 <0>         0.0693
     51 H25        10.6570   -0.8638   -0.6566 H         1 <0>         0.0690
     52 H26        11.8194    2.3015    3.7396 H         1 <0>         0.0528
     53 H27        11.8657    2.9055    2.0659 H         1 <0>         0.0546
     54 H28        10.3118    2.4498    2.8049 H         1 <0>         0.0535
     55 H29         5.1794    0.3171   -1.5664 H         1 <0>         0.0822
     56 H30         5.6901   -1.3873   -1.5159 H         1 <0>         0.0742
     57 H31         4.1752   -0.9360   -2.3342 H         1 <0>         0.0734
@<TRIPOS>BOND
     1    1    2 1
     2    1   27 1
     3    1   28 1
     4    1   29 1
     5    2    3 1
     6    2   30 1
     7    2   31 1
     8    3    4 1
     9    3    6 1
    10    4    5 1
    11    4   32 1
    12    4   33 1
    13    5   34 1
    14    5   35 1
    15    5   36 1
    16    6   15 ar
    17    6    7 ar
    18    7    8 ar
    19    7   37 1
    20    8    9 ar
    21    8   26 1
    22    9   14 ar
    23    9   10 ar
    24   10   11 ar
    25   10   38 1
    26   11   12 ar
    27   11   16 1
    28   12   13 ar
    29   12   39 1
    30   13   14 ar
    31   13   40 1
    32   14   15 ar
    33   16   17 am
    34   16   41 1
    35   17   18 2
    36   17   19 1
    37   19   24 1
    38   19   20 1
    39   19   42 1
    40   20   21 1
    41   20   43 1
    42   20   44 1
    43   21   22 1
    44   21   45 1
    45   21   46 1
    46   22   23 1
    47   22   25 1
    48   22   47 1
    49   23   24 1
    50   23   48 1
    51   23   49 1
    52   24   50 1
    53   24   51 1
    54   25   52 1
    55   25   53 1
    56   25   54 1
    57   26   55 1
    58   26   56 1
    59   26   57 1
@<TRIPOS>MOLECULE
ZINC03650178
   66    70     0     0     0
SMALL
USER_CHARGES

@<TRIPOS>ATOM
      1 C1         -0.2832    1.8764    0.0724 C.3       1 <0>        -0.1437
      2 C2         -0.3443    0.3768   -0.0640 C.ar      1 <0>         0.0968
      3 C3         -0.4586   -0.2093   -1.2887 C.ar      1 <0>        -0.2254
      4 C4         -0.5131   -1.6064   -1.3917 C.ar      1 <0>         0.4974
      5 N1         -0.4568   -2.3787   -0.3264 N.ar      1 <0>        -0.5270
      6 C5         -0.3444   -1.8605    0.9024 C.ar      1 <0>         0.1475
      7 C6         -0.2786   -0.4558    1.0720 C.ar      1 <0>        -0.0908
      8 C7         -0.1557    0.0832    2.3615 C.ar      1 <0>        -0.0962
      9 C8         -0.0951   -0.7628    3.4472 C.ar      1 <0>         0.1684
     10 C9         -0.1550   -2.1495    3.2725 C.ar      1 <0>        -0.0404
     11 C10        -0.2856   -2.6936    2.0331 C.ar      1 <0>        -0.1244
     12 N2          0.0280   -0.2302    4.7360 N.am      1 <0>        -0.6791
     13 C11         0.7499   -0.8826    5.6686 C.2       1 <0>         0.5266
     14 O1          1.3748   -1.8770    5.3657 O.2       1 <0>        -0.5036
     15 C12         0.7807   -0.3765    7.0877 C.3       1 <0>        -0.1061
     16 C13         1.3462    1.0450    7.1101 C.3       1 <0>        -0.1142
     17 C14         2.7661    1.0380    6.5402 C.3       1 <0>        -0.1183
     18 C15         3.6517    0.1234    7.3888 C.3       1 <0>        -0.0941
     19 C16         3.0862   -1.2981    7.3664 C.3       1 <0>        -0.1288
     20 C17         1.6663   -1.2911    7.9363 C.3       1 <0>        -0.1017
     21 C18         5.0716    0.1163    6.8189 C.3       1 <0>        -0.1486
     22 N3         -0.6297   -2.1893   -2.6456 N.pl3     1 <0>        -0.5786
     23 C19        -0.5706   -3.6496   -2.8000 C.3       1 <0>         0.0803
     24 C20        -1.8356   -4.1167   -3.5305 C.3       1 <0>         0.1155
     25 N4         -2.0209   -3.2848   -4.7277 N.pl3     1 <0>        -0.5936
     26 C21        -2.0799   -1.8245   -4.5733 C.3       1 <0>         0.1128
     27 C22        -0.8205   -1.3576   -3.8421 C.3       1 <0>         0.0916
     28 C23        -2.1371   -3.8661   -5.9784 C.ar      1 <0>         0.5588
     29 N5         -2.0850   -5.1857   -6.0856 N.ar      1 <0>        -0.5703
     30 C24        -2.1932   -5.7730   -7.2659 C.ar      1 <0>         0.1952
     31 C25        -2.3628   -4.9906   -8.3974 C.ar      1 <0>        -0.2765
     32 C26        -2.4130   -3.6134   -8.2493 C.ar      1 <0>         0.1958
     33 N6         -2.3033   -3.0901   -7.0394 N.ar      1 <0>        -0.5683
     34 H1          0.7551    2.2039    0.0211 H         1 <0>         0.1084
     35 H2         -0.8502    2.3381   -0.7360 H         1 <0>         0.0977
     36 H3         -0.7105    2.1718    1.0306 H         1 <0>         0.0937
     37 H4         -0.5076    0.4011   -2.1783 H         1 <0>         0.1797
     38 H5         -0.1087    1.1530    2.5019 H         1 <0>         0.1578
     39 H6         -0.1056   -2.7971    4.1354 H         1 <0>         0.1601
     40 H7         -0.3310   -3.7663    1.9164 H         1 <0>         0.1543
     41 H8         -0.4063    0.6083    4.9578 H         1 <0>         0.4197
     42 H9         -0.2309   -0.3715    7.4937 H         1 <0>         0.1062
     43 H10         0.7153    1.6966    6.5055 H         1 <0>         0.0661
     44 H11         1.3685    1.4111    8.1365 H         1 <0>         0.0848
     45 H12         2.7438    0.6719    5.5137 H         1 <0>         0.0563
     46 H13         3.1690    2.0507    6.5561 H         1 <0>         0.0695
     47 H14         3.6740    0.4894    8.4152 H         1 <0>         0.0718
     48 H15         3.0639   -1.6642    6.3400 H         1 <0>         0.0862
     49 H16         3.7171   -1.9497    7.9709 H         1 <0>         0.0639
     50 H17         1.6885   -0.9250    8.9627 H         1 <0>         0.0757
     51 H18         1.2634   -2.3038    7.9203 H         1 <0>         0.0710
     52 H19         5.4745    1.1290    6.8348 H         1 <0>         0.0549
     53 H20         5.7025   -0.5353    7.4234 H         1 <0>         0.0573
     54 H21         5.0493   -0.2497    5.7924 H         1 <0>         0.0512
     55 H22         0.3096   -3.9204   -3.3831 H         1 <0>         0.1082
     56 H23        -0.5206   -4.1196   -1.8178 H         1 <0>         0.0907
     57 H24        -1.7242   -5.1605   -3.8240 H         1 <0>         0.1269
     58 H25        -2.6984   -4.0090   -2.8731 H         1 <0>         0.0771
     59 H26        -2.1299   -1.3544   -5.5555 H         1 <0>         0.1279
     60 H27        -2.9601   -1.5536   -3.9902 H         1 <0>         0.0779
     61 H28        -0.9355   -0.3144   -3.5480 H         1 <0>         0.1155
     62 H29         0.0415   -1.4616   -4.5011 H         1 <0>         0.1018
     63 H30        -2.1496   -6.8490   -7.3469 H         1 <0>         0.1729
     64 H31        -2.4535   -5.4443   -9.3733 H         1 <0>         0.1512
     65 H32        -2.5439   -2.9755   -9.1108 H         1 <0>         0.1734
     66 H33        -0.4979   -3.3418   -0.4344 H         1 <0>         0.4330
@<TRIPOS>BOND
     1    1    2 1
     2    1   34 1
     3    1   35 1
     4    1   36 1
     5    2    7 ar
     6    2    3 ar
     7    3    4 ar
     8    3   37 1
     9    4    5 ar
    10    4   22 1
    11    5    6 ar
    12    5   66 1
    13    6   11 ar
    14    6    7 ar
    15    7    8 ar
    16    8    9 ar
    17    8   38 1
    18    9   10 ar
    19    9   12 1
    20   10   11 ar
    21   10   39 1
    22   11   40 1
    23   12   13 am
    24   12   41 1
    25   13   14 2
    26   13   15 1
    27   15   20 1
    28   15   16 1
    29   15   42 1
    30   16   17 1
    31   16   43 1
    32   16   44 1
    33   17   18 1
    34   17   45 1
    35   17   46 1
    36   18   19 1
    37   18   21 1
    38   18   47 1
    39   19   20 1
    40   19   48 1
    41   19   49 1
    42   20   50 1
    43   20   51 1
    44   21   52 1
    45   21   53 1
    46   21   54 1
    47   22   27 1
    48   22   23 1
    49   23   24 1
    50   23   55 1
    51   23   56 1
    52   24   25 1
    53   24   57 1
    54   24   58 1
    55   25   26 1
    56   25   28 1
    57   26   27 1
    58   26   59 1
    59   26   60 1
    60   27   61 1
    61   27   62 1
    62   28   33 ar
    63   28   29 ar
    64   29   30 ar
    65   30   31 ar
    66   30   63 1
    67   31   32 ar
    68   31   64 1
    69   32   33 ar
    70   32   65 1
@<TRIPOS>MOLECULE
ZINC04563123
   63    66     0     0     0
SMALL
USER_CHARGES

@<TRIPOS>ATOM
      1 C1         -0.4920    1.6252   -3.9518 C.3       1 <0>        -0.1547
      2 C2         -0.4579    0.2898   -3.2058 C.3       1 <0>        -0.1265
      3 C3          0.4860   -0.6738   -3.9279 C.3       1 <0>        -0.1134
      4 C4          0.5201   -2.0092   -3.1819 C.3       1 <0>        -0.0897
      5 C5          1.1344   -1.8035   -1.7958 C.3       1 <0>        -0.1287
      6 C6          1.1686   -3.1389   -1.0499 C.3       1 <0>        -0.1020
      7 C7          2.0131   -4.1420   -1.8382 C.3       1 <0>        -0.1056
      8 C8          1.3988   -4.3477   -3.2243 C.3       1 <0>        -0.1130
      9 C9          1.3646   -3.0123   -3.9703 C.3       1 <0>        -0.1173
     10 C10         3.4163   -3.6121   -1.9842 C.2       1 <0>         0.5276
     11 O1          3.7118   -2.5379   -1.5049 O.2       1 <0>        -0.5048
     12 N1          4.3428   -4.3320   -2.6474 N.am      1 <0>        -0.6782
     13 C11         5.6200   -3.8008   -2.8620 C.ar      1 <0>         0.1670
     14 C12         6.2076   -2.9908   -1.8843 C.ar      1 <0>        -0.0407
     15 C13         7.4469   -2.4616   -2.0664 C.ar      1 <0>        -0.1261
     16 C14         8.1571   -2.7257   -3.2505 C.ar      1 <0>         0.1472
     17 C15         7.5680   -3.5454   -4.2440 C.ar      1 <0>        -0.0918
     18 C16         6.2902   -4.0847   -4.0318 C.ar      1 <0>        -0.0954
     19 C17         8.2833   -3.8082   -5.4303 C.ar      1 <0>         0.0982
     20 C18         9.5218   -3.2583   -5.5730 C.ar      1 <0>        -0.2262
     21 C19        10.0507   -2.4550   -4.5530 C.ar      1 <0>         0.4980
     22 N2          9.3778   -2.2136   -3.4470 N.ar      1 <0>        -0.5264
     23 N3         11.3134   -1.9021   -4.7122 N.pl3     1 <0>        -0.5846
     24 C20        12.0458   -2.0389   -5.9811 C.3       1 <0>         0.0711
     25 C21        12.5269   -0.6492   -6.4139 C.3       1 <0>         0.0427
     26 O2         13.2372   -0.0394   -5.3335 O.3       1 <0>        -0.3628
     27 C22        12.4447    0.1858   -4.1651 C.3       1 <0>         0.0458
     28 C23        11.9570   -1.1563   -3.6190 C.3       1 <0>         0.0588
     29 C24         7.6935   -4.6755   -6.5124 C.3       1 <0>        -0.1440
     30 H1          0.5107    2.0515   -3.9797 H         1 <0>         0.0515
     31 H2         -0.8467    1.4637   -4.9697 H         1 <0>         0.0534
     32 H3         -1.1645    2.3117   -3.4373 H         1 <0>         0.0553
     33 H4         -0.1032    0.4513   -2.1878 H         1 <0>         0.0637
     34 H5         -1.4607   -0.1365   -3.1779 H         1 <0>         0.0617
     35 H6          0.1313   -0.8352   -4.9459 H         1 <0>         0.0607
     36 H7          1.4888   -0.2475   -3.9558 H         1 <0>         0.0577
     37 H8         -0.4948   -2.3924   -3.0763 H         1 <0>         0.0721
     38 H9          2.1494   -1.4202   -1.9015 H         1 <0>         0.0857
     39 H10         0.5328   -1.0888   -1.2342 H         1 <0>         0.0664
     40 H11         1.6062   -2.9923   -0.0624 H         1 <0>         0.0710
     41 H12         0.1537   -3.5221   -0.9442 H         1 <0>         0.0756
     42 H13         2.0374   -5.0933   -1.3068 H         1 <0>         0.1055
     43 H14         2.0004   -5.0623   -3.7859 H         1 <0>         0.0662
     44 H15         0.3838   -4.7309   -3.1187 H         1 <0>         0.0845
     45 H16         0.9270   -3.1588   -4.9578 H         1 <0>         0.0688
     46 H17         2.3795   -2.6291   -4.0759 H         1 <0>         0.0553
     47 H18         4.1246   -5.2181   -2.9760 H         1 <0>         0.4200
     48 H19         5.6689   -2.7824   -0.9718 H         1 <0>         0.1663
     49 H20         7.8855   -1.8380   -1.3014 H         1 <0>         0.1540
     50 H21         5.8339   -4.7141   -4.7814 H         1 <0>         0.1582
     51 H22        10.0949   -3.4411   -6.4699 H         1 <0>         0.1792
     52 H23        12.9033   -2.6970   -5.8409 H         1 <0>         0.1076
     53 H24        11.3855   -2.4526   -6.7433 H         1 <0>         0.1130
     54 H25        13.1872   -0.7447   -7.2759 H         1 <0>         0.1274
     55 H26        11.6679   -0.0327   -6.6789 H         1 <0>         0.0667
     56 H27        13.0458    0.6911   -3.4093 H         1 <0>         0.1264
     57 H28        11.5854    0.8053   -4.4219 H         1 <0>         0.0656
     58 H29        11.2380   -0.9858   -2.8178 H         1 <0>         0.0892
     59 H30        12.8054   -1.7240   -3.2370 H         1 <0>         0.1128
     60 H31         7.1319   -4.0543   -7.2101 H         1 <0>         0.1089
     61 H32         8.4950   -5.1870   -7.0454 H         1 <0>         0.0979
     62 H33         7.0269   -5.4125   -6.0644 H         1 <0>         0.0942
     63 H34         9.7743   -1.6528   -2.7619 H         1 <0>         0.4330
@<TRIPOS>BOND
     1    1    2 1
     2    1   30 1
     3    1   31 1
     4    1   32 1
     5    2    3 1
     6    2   33 1
     7    2   34 1
     8    3    4 1
     9    3   35 1
    10    3   36 1
    11    4    9 1
    12    4    5 1
    13    4   37 1
    14    5    6 1
    15    5   38 1
    16    5   39 1
    17    6    7 1
    18    6   40 1
    19    6   41 1
    20    7    8 1
    21    7   10 1
    22    7   42 1
    23    8    9 1
    24    8   43 1
    25    8   44 1
    26    9   45 1
    27    9   46 1
    28   10   11 2
    29   10   12 am
    30   12   13 1
    31   12   47 1
    32   13   18 ar
    33   13   14 ar
    34   14   15 ar
    35   14   48 1
    36   15   16 ar
    37   15   49 1
    38   16   22 ar
    39   16   17 ar
    40   17   18 ar
    41   17   19 ar
    42   18   50 1
    43   19   20 ar
    44   19   29 1
    45   20   21 ar
    46   20   51 1
    47   21   22 ar
    48   21   23 1
    49   22   63 1
    50   23   28 1
    51   23   24 1
    52   24   25 1
    53   24   52 1
    54   24   53 1
    55   25   26 1
    56   25   54 1
    57   25   55 1
    58   26   27 1
    59   27   28 1
    60   27   56 1
    61   27   57 1
    62   28   58 1
    63   28   59 1
    64   29   60 1
    65   29   61 1
    66   29   62 1
@<TRIPOS>MOLECULE
ZINC01124348
   43    45     0     0     0
SMALL
USER_CHARGES

@<TRIPOS>ATOM
      1 C1          0.0230  -10.7177    2.9585 C.3       1 <0>        -0.1276
      2 C2          0.0407   -9.3820    2.2610 C.ar      1 <0>        -0.0234
      3 C3         -0.1525   -8.2210    2.9861 C.ar      1 <0>        -0.1415
      4 C4         -0.1362   -6.9958    2.3463 C.ar      1 <0>        -0.0117
      5 C5          0.0737   -6.9314    0.9815 C.ar      1 <0>        -0.6845
      6 C6          0.2678   -8.0924    0.2566 C.ar      1 <0>        -0.0137
      7 C7          0.2558   -9.3173    0.8971 C.ar      1 <0>        -0.1425
      8 S1          0.0933   -5.3698    0.1658 S.o2      1 <0>         2.6880
      9 O1         -0.3571   -5.5995   -1.1622 O.2       1 <0>        -0.9473
     10 O2         -0.5457   -4.4479    1.0381 O.2       1 <0>        -0.9436
     11 N1          1.6761   -4.8959    0.0534 N.pl3     1 <0>        -1.0658
     12 C8          2.3998   -4.6105    1.2058 C.ar      1 <0>         0.1589
     13 C9          2.1677   -3.4238    1.8959 C.ar      1 <0>        -0.1101
     14 C10         2.8826   -3.1382    3.0364 C.ar      1 <0>        -0.0398
     15 C11         3.8426   -4.0415    3.5024 C.ar      1 <0>        -0.1318
     16 C12         4.0730   -5.2326    2.8074 C.ar      1 <0>        -0.0758
     17 C13         3.3511   -5.5147    1.6704 C.ar      1 <0>        -0.1174
     18 C14         4.6109   -3.7384    4.7242 C.2       1 <0>         0.5737
     19 O3          4.4098   -2.7019    5.3274 O.2       1 <0>        -0.4958
     20 N2          5.5360   -4.6102    5.1722 N.am      1 <0>        -0.6309
     21 C15         6.2623   -4.3236    6.3272 C.2       1 <0>         0.3322
     22 C16         6.1300   -3.1665    7.1274 C.2       1 <0>        -0.2872
     23 C17         7.0015   -3.2622    8.1469 C.2       1 <0>         0.0814
     24 O4          7.6685   -4.4201    8.0204 O.3       1 <0>        -0.0689
     25 N3          7.1836   -5.0811    6.8656 N.2       1 <0>        -0.3527
     26 C18         7.1959   -2.2453    9.2421 C.3       1 <0>        -0.0894
     27 H1          1.0308  -10.9681    3.2897 H         1 <0>         0.0809
     28 H2         -0.6412  -10.6683    3.8214 H         1 <0>         0.0743
     29 H3         -0.3335  -11.4830    2.2690 H         1 <0>         0.0743
     30 H4         -0.3165   -8.2713    4.0524 H         1 <0>         0.1339
     31 H5         -0.2879   -6.0888    2.9127 H         1 <0>         0.1414
     32 H6          0.4315   -8.0421   -0.8098 H         1 <0>         0.1396
     33 H7          0.4112  -10.2241    0.3313 H         1 <0>         0.1343
     34 H8          2.0983   -4.8174   -0.8163 H         1 <0>         0.4303
     35 H9          1.4260   -2.7264    1.5354 H         1 <0>         0.1485
     36 H10         2.7026   -2.2171    3.5708 H         1 <0>         0.1496
     37 H11         4.8139   -5.9324    3.1649 H         1 <0>         0.1335
     38 H12         3.5257   -6.4365    1.1354 H         1 <0>         0.1400
     39 H13         5.6965   -5.4370    4.6910 H         1 <0>         0.4214
     40 H14         5.4480   -2.3479    6.9508 H         1 <0>         0.1831
     41 H15         6.5280   -2.4738   10.0726 H         1 <0>         0.0964
     42 H16         8.2292   -2.2764    9.5876 H         1 <0>         0.0884
     43 H17         6.9710   -1.2503    8.8581 H         1 <0>         0.0976
@<TRIPOS>BOND
     1    1    2 1
     2    1   27 1
     3    1   28 1
     4    1   29 1
     5    2    7 ar
     6    2    3 ar
     7    3    4 ar
     8    3   30 1
     9    4    5 ar
    10    4   31 1
    11    5    6 ar
    12    5    8 1
    13    6    7 ar
    14    6   32 1
    15    7   33 1
    16    8    9 2
    17    8   10 2
    18    8   11 1
    19   11   12 1
    20   11   34 1
    21   12   17 ar
    22   12   13 ar
    23   13   14 ar
    24   13   35 1
    25   14   15 ar
    26   14   36 1
    27   15   16 ar
    28   15   18 1
    29   16   17 ar
    30   16   37 1
    31   17   38 1
    32   18   19 2
    33   18   20 am
    34   20   21 1
    35   20   39 1
    36   21   25 2
    37   21   22 1
    38   22   23 2
    39   22   40 1
    40   23   24 1
    41   23   26 1
    42   24   25 1
    43   26   41 1
    44   26   42 1
    45   26   43 1
@<TRIPOS>MOLECULE
ZINC01135954
   45    47     0     0     0
SMALL
USER_CHARGES

@<TRIPOS>ATOM
      1 C1         -0.2135    1.2207    0.0790 C.3       1 <0>        -0.1504
      2 C2          0.0622   -0.2836    0.1251 C.3       1 <0>        -0.0277
      3 C3          0.7625   -0.7050   -1.1410 C.2       1 <0>         0.0738
      4 N1          2.0503   -0.7703   -1.4152 N.2       1 <0>        -0.2553
      5 N2          2.4793   -1.1492   -2.5391 N.2       1 <0>        -0.2796
      6 C4          1.6581   -1.5064   -3.5170 C.2       1 <0>         0.2927
      7 S1          0.0831   -1.2674   -2.6992 S.3       1 <0>        -0.0314
      8 N3          1.9392   -1.9456   -4.8052 N.am      1 <0>        -0.6100
      9 C5          3.2183   -2.0583   -5.2146 C.2       1 <0>         0.5578
     10 O1          4.1264   -1.7757   -4.4568 O.2       1 <0>        -0.4567
     11 C6          3.5167   -2.5243   -6.5816 C.ar      1 <0>        -0.1349
     12 C7          2.4736   -2.8441   -7.4560 C.ar      1 <0>        -0.0744
     13 C8          2.7553   -3.2782   -8.7311 C.ar      1 <0>        -0.1249
     14 C9          4.0773   -3.3996   -9.1505 C.ar      1 <0>         0.1700
     15 C10         5.1182   -3.0824   -8.2821 C.ar      1 <0>        -0.1107
     16 C11         4.8431   -2.6418   -7.0079 C.ar      1 <0>        -0.0330
     17 N4          4.3585   -3.8390  -10.4395 N.pl3     1 <0>        -0.9531
     18 C12         3.8714   -3.0808  -11.5945 C.3       1 <0>         0.0869
     19 S2          5.2442   -5.2193  -10.6689 S.o2      1 <0>         2.6818
     20 O2          5.9355   -5.0584  -11.8999 O.2       1 <0>        -0.9418
     21 O3          5.9180   -5.4777   -9.4448 O.2       1 <0>        -0.9389
     22 C13         4.1005   -6.5392  -10.9025 C.ar      1 <0>        -0.6774
     23 C14         3.6392   -7.2549   -9.8135 C.ar      1 <0>        -0.0173
     24 C15         2.7419   -8.2904   -9.9967 C.ar      1 <0>        -0.1387
     25 C16         2.3057   -8.6100  -11.2689 C.ar      1 <0>        -0.0600
     26 C17         2.7664   -7.8938  -12.3578 C.ar      1 <0>        -0.1389
     27 C18         3.6603   -6.8555  -12.1741 C.ar      1 <0>        -0.0225
     28 H1          0.7293    1.7602   -0.0116 H         1 <0>         0.0652
     29 H2         -0.8461    1.4480   -0.7791 H         1 <0>         0.0593
     30 H3         -0.7200    1.5255    0.9947 H         1 <0>         0.0755
     31 H4          0.6948   -0.5109    0.9832 H         1 <0>         0.1085
     32 H5         -0.8806   -0.8231    0.2157 H         1 <0>         0.0965
     33 H6          1.2148   -2.1710   -5.4097 H         1 <0>         0.4276
     34 H7          1.4479   -2.7508   -7.1310 H         1 <0>         0.1317
     35 H8          1.9500   -3.5253   -9.4070 H         1 <0>         0.1390
     36 H9          6.1426   -3.1783   -8.6103 H         1 <0>         0.1427
     37 H10         5.6509   -2.3913   -6.3363 H         1 <0>         0.1494
     38 H11         4.6155   -2.3377  -11.8814 H         1 <0>         0.0735
     39 H12         3.6969   -3.7609  -12.4282 H         1 <0>         0.0784
     40 H13         2.9394   -2.5795  -11.3332 H         1 <0>         0.0819
     41 H14         3.9800   -7.0052   -8.8195 H         1 <0>         0.1403
     42 H15         2.3820   -8.8500   -9.1460 H         1 <0>         0.1352
     43 H16         1.6053   -9.4195  -11.4121 H         1 <0>         0.1335
     44 H17         2.4259   -8.1437  -13.3518 H         1 <0>         0.1356
     45 H18         4.0174   -6.2935  -13.0245 H         1 <0>         0.1405
@<TRIPOS>BOND
     1    1    2 1
     2    1   28 1
     3    1   29 1
     4    1   30 1
     5    2    3 1
     6    2   31 1
     7    2   32 1
     8    3    7 1
     9    3    4 2
    10    4    5 1
    11    5    6 2
    12    6    7 1
    13    6    8 1
    14    8    9 am
    15    8   33 1
    16    9   10 2
    17    9   11 1
    18   11   16 ar
    19   11   12 ar
    20   12   13 ar
    21   12   34 1
    22   13   14 ar
    23   13   35 1
    24   14   15 ar
    25   14   17 1
    26   15   16 ar
    27   15   36 1
    28   16   37 1
    29   17   18 1
    30   17   19 1
    31   18   38 1
    32   18   39 1
    33   18   40 1
    34   19   20 2
    35   19   21 2
    36   19   22 1
    37   22   27 ar
    38   22   23 ar
    39   23   24 ar
    40   23   41 1
    41   24   25 ar
    42   24   42 1
    43   25   26 ar
    44   25   43 1
    45   26   27 ar
    46   26   44 1
    47   27   45 1
@<TRIPOS>MOLECULE
ZINC01205976
   41    43     0     0     0
SMALL
USER_CHARGES

@<TRIPOS>ATOM
      1 C1          0.4677    2.0062    0.8168 C.ar      1 <0>        -0.1327
      2 C2          1.6409    2.4425    1.4045 C.ar      1 <0>        -0.1021
      3 C3          2.7925    1.6882    1.2939 C.ar      1 <0>        -0.1444
      4 C4          2.7714    0.4902    0.5915 C.ar      1 <0>         0.1406
      5 C5          1.5913    0.0548    0.0025 C.ar      1 <0>        -0.1194
      6 C6          0.4432    0.8138    0.1168 C.ar      1 <0>        -0.1019
      7 N1          3.9358   -0.2758    0.4772 N.am      1 <0>        -0.6705
      8 C7          3.8602   -1.6214    0.4797 C.2       1 <0>         0.5612
      9 O1          2.7747   -2.1694    0.4951 O.2       1 <0>        -0.5132
     10 C8          5.0940   -2.4294    0.4638 C.ar      1 <0>        -0.1481
     11 C9          6.3428   -1.8009    0.4519 C.ar      1 <0>        -0.0656
     12 C10         7.4921   -2.5576    0.4375 C.ar      1 <0>        -0.1364
     13 C11         7.4122   -3.9475    0.4343 C.ar      1 <0>         0.1750
     14 C12         6.1702   -4.5764    0.4456 C.ar      1 <0>        -0.1619
     15 C13         5.0173   -3.8254    0.4663 C.ar      1 <0>        -0.0289
     16 N2          8.5755   -4.7092    0.4193 N.pl3     1 <0>        -1.0558
     17 S1          8.7274   -6.0087    1.4345 S.o2      1 <0>         2.6886
     18 O2          7.5596   -6.7993    1.2597 O.2       1 <0>        -0.9431
     19 O3         10.0353   -6.5278    1.2368 O.2       1 <0>        -0.9446
     20 C14         8.6749   -5.3904    3.0836 C.ar      1 <0>        -0.6776
     21 C15         9.8268   -4.9121    3.6794 C.ar      1 <0>        -0.0187
     22 C16         9.7856   -4.4270    4.9732 C.ar      1 <0>        -0.1398
     23 C17         8.5924   -4.4199    5.6710 C.ar      1 <0>        -0.0584
     24 C18         7.4402   -4.8974    5.0749 C.ar      1 <0>        -0.1384
     25 C19         7.4805   -5.3785    3.7796 C.ar      1 <0>        -0.0164
     26 H1         -0.4326    2.5957    0.9085 H         1 <0>         0.1240
     27 H2          1.6568    3.3744    1.9502 H         1 <0>         0.1268
     28 H3          3.7086    2.0298    1.7528 H         1 <0>         0.1249
     29 H4          1.5716   -0.8761   -0.5447 H         1 <0>         0.1391
     30 H5         -0.4747    0.4758   -0.3409 H         1 <0>         0.1266
     31 H6          4.7979    0.1614    0.3962 H         1 <0>         0.4099
     32 H7          6.4055   -0.7228    0.4537 H         1 <0>         0.1318
     33 H8          8.4571   -2.0727    0.4284 H         1 <0>         0.1381
     34 H9          6.1116   -5.6548    0.4423 H         1 <0>         0.1670
     35 H10         4.0542   -4.3138    0.4796 H         1 <0>         0.1472
     36 H11         9.2979   -4.4794   -0.1858 H         1 <0>         0.4310
     37 H12        10.7591   -4.9177    3.1342 H         1 <0>         0.1395
     38 H13        10.6858   -4.0540    5.4390 H         1 <0>         0.1352
     39 H14         8.5603   -4.0416    6.6821 H         1 <0>         0.1333
     40 H15         6.5080   -4.8921    5.6202 H         1 <0>         0.1355
     41 H16         6.5796   -5.7481    3.3125 H         1 <0>         0.1425
@<TRIPOS>BOND
     1    1    6 ar
     2    1    2 ar
     3    1   26 1
     4    2    3 ar
     5    2   27 1
     6    3    4 ar
     7    3   28 1
     8    4    5 ar
     9    4    7 1
    10    5    6 ar
    11    5   29 1
    12    6   30 1
    13    7    8 am
    14    7   31 1
    15    8    9 2
    16    8   10 1
    17   10   15 ar
    18   10   11 ar
    19   11   12 ar
    20   11   32 1
    21   12   13 ar
    22   12   33 1
    23   13   14 ar
    24   13   16 1
    25   14   15 ar
    26   14   34 1
    27   15   35 1
    28   16   17 1
    29   16   36 1
    30   17   18 2
    31   17   19 2
    32   17   20 1
    33   20   25 ar
    34   20   21 ar
    35   21   22 ar
    36   21   37 1
    37   22   23 ar
    38   22   38 1
    39   23   24 ar
    40   23   39 1
    41   24   25 ar
    42   24   40 1
    43   25   41 1
@<TRIPOS>MOLECULE
ZINC01205976
   40    42     0     0     0
SMALL
USER_CHARGES

@<TRIPOS>ATOM
      1 C1         -0.0176    1.3774   -0.0130 C.ar      1 <0>        -0.1462
      2 C2          1.0918    1.9440    0.5874 C.ar      1 <0>        -0.1037
      3 C3          2.2997    1.2743    0.5815 C.ar      1 <0>        -0.1533
      4 C4          2.3993    0.0305   -0.0284 C.ar      1 <0>         0.1592
      5 C5          1.2832   -0.5358   -0.6305 C.ar      1 <0>        -0.1241
      6 C6          0.0783    0.1391   -0.6210 C.ar      1 <0>        -0.1033
      7 N1          3.6210   -0.6501   -0.0365 N.am      1 <0>        -0.6813
      8 C7          3.6442   -1.9944    0.0577 C.2       1 <0>         0.5748
      9 O1          2.6023   -2.6215    0.0649 O.2       1 <0>        -0.5430
     10 C8          4.9332   -2.7049    0.1522 C.ar      1 <0>        -0.2632
     11 C9          6.1317   -1.9851    0.1499 C.ar      1 <0>        -0.0388
     12 C10         7.3327   -2.6509    0.2387 C.ar      1 <0>        -0.1900
     13 C11         7.3551   -4.0399    0.3302 C.ar      1 <0>         0.3134
     14 C12         6.1634   -4.7597    0.3323 C.ar      1 <0>        -0.2780
     15 C13         4.9589   -4.0994    0.2501 C.ar      1 <0>         0.0088
     16 N2          8.5704   -4.7098    0.4193 N.2       1 <0>        -1.0790
     17 S1          8.5991   -6.3620    0.5283 S.o2      1 <0>         2.6058
     18 O2          8.0094   -6.6969    1.7770 O.2       1 <0>        -1.0237
     19 O3          8.1021   -6.8591   -0.7067 O.2       1 <0>        -1.0237
     20 C14        10.2899   -6.8485    0.6232 C.ar      1 <0>        -0.6172
     21 C15        10.9993   -7.1118   -0.5337 C.ar      1 <0>        -0.0245
     22 C16        12.3259   -7.4935   -0.4593 C.ar      1 <0>        -0.1472
     23 C17        12.9431   -7.6114    0.7720 C.ar      1 <0>        -0.0830
     24 C18        12.2340   -7.3472    1.9288 C.ar      1 <0>        -0.1473
     25 C19        10.9086   -6.9614    1.8542 C.ar      1 <0>        -0.0246
     26 H1         -0.9620    1.9012   -0.0031 H         1 <0>         0.1180
     27 H2          1.0138    2.9114    1.0612 H         1 <0>         0.1215
     28 H3          3.1658    1.7175    1.0503 H         1 <0>         0.1234
     29 H4          1.3574   -1.5027   -1.1059 H         1 <0>         0.1406
     30 H5         -0.7900   -0.3006   -1.0890 H         1 <0>         0.1216
     31 H6          4.4517   -0.1547   -0.1101 H         1 <0>         0.4089
     32 H7          6.1150   -0.9076    0.0783 H         1 <0>         0.1077
     33 H8          8.2589   -2.0954    0.2370 H         1 <0>         0.1200
     34 H9          6.1842   -5.8372    0.4027 H         1 <0>         0.1048
     35 H10         4.0347   -4.6580    0.2562 H         1 <0>         0.1179
     36 H11        10.5171   -7.0197   -1.4956 H         1 <0>         0.1363
     37 H12        12.8799   -7.6999   -1.3630 H         1 <0>         0.1263
     38 H13        13.9793   -7.9103    0.8302 H         1 <0>         0.1235
     39 H14        12.7161   -7.4397    2.8908 H         1 <0>         0.1263
     40 H15        10.3556   -6.7514    2.7578 H         1 <0>         0.1364
@<TRIPOS>BOND
     1    1    6 ar
     2    1    2 ar
     3    1   26 1
     4    2    3 ar
     5    2   27 1
     6    3    4 ar
     7    3   28 1
     8    4    5 ar
     9    4    7 1
    10    5    6 ar
    11    5   29 1
    12    6   30 1
    13    7    8 am
    14    7   31 1
    15    8    9 2
    16    8   10 1
    17   10   15 ar
    18   10   11 ar
    19   11   12 ar
    20   11   32 1
    21   12   13 ar
    22   12   33 1
    23   13   14 ar
    24   13   16 1
    25   14   15 ar
    26   14   34 1
    27   15   35 1
    28   16   17 1
    29   17   18 2
    30   17   19 2
    31   17   20 1
    32   20   25 ar
    33   20   21 ar
    34   21   22 ar
    35   21   36 1
    36   22   23 ar
    37   22   37 1
    38   23   24 ar
    39   23   38 1
    40   24   25 ar
    41   24   39 1
    42   25   40 1
@<TRIPOS>MOLECULE
ZINC03794714
   25    25     0     0     0
SMALL
USER_CHARGES

@<TRIPOS>ATOM
      1 C1         -0.0178    1.4636    0.0101 C.3       1 <0>        -0.0466
      2 C2          1.4163    1.9970   -0.0007 C.3       1 <0>         0.0566
      3 H1          1.9452    1.6372    0.8818 H         1 <0>         0.0917
      4 C3          2.1299    1.5015   -1.2619 C.3       1 <0>         0.0695
      5 H2          1.6316    1.9031   -2.1442 H         1 <0>         0.0909
      6 C4          2.0795   -0.0286   -1.2972 C.3       1 <0>         0.1094
      7 H3          2.6221   -0.4305   -0.4415 H         1 <0>         0.0913
      8 C5          0.6208   -0.4870   -1.2383 C.3       1 <0>         0.0351
      9 H4          0.0792   -0.0848   -2.0945 H         1 <0>         0.1577
     10 N1          0.0021   -0.0041    0.0020 N.4       1 <0>        -0.4918
     11 C6          0.5654   -2.0156   -1.2729 C.3       1 <0>         0.0570
     12 O1         -0.7972   -2.4415   -1.3354 O.3       1 <0>        -0.5813
     13 O2          2.6797   -0.4981   -2.5061 O.3       1 <0>        -0.5386
     14 O3          3.4911    1.9360   -1.2427 O.3       1 <0>        -0.5488
     15 O4          1.3941    3.4258    0.0058 O.3       1 <0>        -0.5365
     16 H5         -0.5288    1.8147    0.9066 H         1 <0>         0.1451
     17 H6         -0.5458    1.8242   -0.8727 H         1 <0>         0.1438
     18 H7          0.5329   -0.3366    0.7931 H         1 <0>         0.4276
     19 H8          1.1002   -2.3788   -2.1504 H         1 <0>         0.1086
     20 H9          1.0304   -2.4165   -0.3722 H         1 <0>         0.0746
     21 H10        -0.9084   -3.4018   -1.3601 H         1 <0>         0.4135
     22 H11         3.6059   -0.2409   -2.6111 H         1 <0>         0.4148
     23 H12         3.5970    2.8968   -1.2145 H         1 <0>         0.4074
     24 H13         0.9534    3.8088    0.7767 H         1 <0>         0.4013
     25 H14        -0.9428   -0.3526    0.0632 H         1 <0>         0.4478
@<TRIPOS>BOND
     1    1   10 1
     2    1    2 1
     3    1   16 1
     4    1   17 1
     5    2    3 1
     6    2    4 1
     7    2   15 1
     8    4    5 1
     9    4    6 1
    10    4   14 1
    11    6    7 1
    12    6    8 1
    13    6   13 1
    14    8    9 1
    15    8   10 1
    16    8   11 1
    17   10   18 1
    18   10   25 1
    19   11   12 1
    20   11   19 1
    21   11   20 1
    22   12   21 1
    23   13   22 1
    24   14   23 1
    25   15   24 1
@<TRIPOS>MOLECULE
ZINC06361525
   24    24     0     0     0
SMALL
USER_CHARGES
5-(hydroxymethyl)piperidine-3,4-diol
@<TRIPOS>ATOM
      1 C1         -0.7107    3.1243   -1.2534 C.3       1 <0>         0.0013
      2 C2         -0.7462    1.5945   -1.2361 C.3       1 <0>        -0.0967
      3 H1         -0.2564    1.2090   -2.1303 H         1 <0>         0.1153
      4 C3         -0.0127    1.0858    0.0080 C.3       1 <0>         0.1034
      5 H2          0.0021   -0.0041    0.0020 H         1 <0>         0.0944
      6 C4          1.4233    1.6171   -0.0028 C.3       1 <0>         0.0596
      7 H3          1.9472    1.2320   -0.8777 H         1 <0>         0.0889
      8 C5          1.3959    3.1463   -0.0559 C.3       1 <0>        -0.0389
      9 O1          2.0982    1.1921    1.1829 O.3       1 <0>        -0.5392
     10 O2         -0.6840    1.5478    1.1819 O.3       1 <0>        -0.5571
     11 C6         -2.1996    1.1176   -1.2029 C.3       1 <0>         0.0849
     12 O3         -2.8519    1.4928   -2.4177 O.3       1 <0>        -0.5803
     13 H4         -1.2127    3.5093   -0.3658 H         1 <0>         0.1389
     14 H5         -1.2197    3.4893   -2.1455 H         1 <0>         0.1435
     15 H6          0.8840    3.5312    0.8261 H         1 <0>         0.1427
     16 H7          2.4169    3.5273   -0.0784 H         1 <0>         0.1340
     17 H8          3.0151    1.4934    1.2430 H         1 <0>         0.4003
     18 H9         -0.2707    1.2640    2.0087 H         1 <0>         0.4030
     19 H10        -2.2237    0.0329   -1.0976 H         1 <0>         0.0673
     20 H11        -2.7133    1.5762   -0.3580 H         1 <0>         0.0697
     21 H12        -3.7789    1.2220   -2.4662 H         1 <0>         0.4003
     22 N1          0.6893    3.5893   -1.2729 N.4       1 <0>        -0.5091
     23 H13         0.7044    4.6150   -1.3183 H         1 <0>         0.4417
     24 H14         1.1625    3.2032   -2.0982 H         1 <0>         0.4320
@<TRIPOS>BOND
     1    1    2 1
     2    1   13 1
     3    1   14 1
     4    1   22 1
     5    2    3 1
     6    2    4 1
     7    2   11 1
     8    4    5 1
     9    4    6 1
    10    4   10 1
    11    6    7 1
    12    6    8 1
    13    6    9 1
    14    8   15 1
    15    8   16 1
    16    8   22 1
    17    9   17 1
    18   10   18 1
    19   11   12 1
    20   11   19 1
    21   11   20 1
    22   12   21 1
    23   22   23 1
    24   22   24 1
@<TRIPOS>MOLECULE
ZINC06361554
   24    24     0     0     0
SMALL
USER_CHARGES
5-(hydroxymethyl)piperidine-3,4-diol
@<TRIPOS>ATOM
      1 C1         -2.1470    0.9642   -1.2868 C.3       1 <0>         0.0044
      2 C2         -0.7527    1.5927   -1.2315 C.3       1 <0>        -0.1021
      3 H1         -0.8443    2.6777   -1.1824 H         1 <0>         0.1178
      4 C3          0.0285    1.2012   -2.4889 C.3       1 <0>         0.1113
      5 H2          0.1539    0.1188   -2.5176 H         1 <0>         0.0884
      6 C4         -0.7486    1.6592   -3.7262 C.3       1 <0>         0.0498
      7 H3         -0.2187    1.3463   -4.6259 H         1 <0>         0.1082
      8 C5         -2.1430    1.0288   -3.7092 C.3       1 <0>        -0.0386
      9 O1         -0.8686    3.0831   -3.7142 O.3       1 <0>        -0.5455
     10 O2          1.3108    1.8314   -2.4700 O.3       1 <0>        -0.5387
     11 C6         -0.0127    1.0858    0.0080 C.3       1 <0>         0.0826
     12 O3         -0.6816    1.5467    1.1837 O.3       1 <0>        -0.5787
     13 H4         -2.0549   -0.1214   -1.3213 H         1 <0>         0.1314
     14 H5         -2.7108    1.2527   -0.3997 H         1 <0>         0.1469
     15 H6         -2.0510   -0.0570   -3.7323 H         1 <0>         0.1419
     16 H7         -2.7038    1.3645   -4.5815 H         1 <0>         0.1392
     17 H8         -1.3535    3.4434   -4.4693 H         1 <0>         0.3927
     18 H9          1.8609    1.6271   -3.2386 H         1 <0>         0.3943
     19 H10         0.0021   -0.0041    0.0020 H         1 <0>         0.0553
     20 H11         1.0099    1.4631    0.0003 H         1 <0>         0.0766
     21 H12        -0.2663    1.2624    2.0094 H         1 <0>         0.3986
     22 N1         -2.8601    1.4404   -2.4873 N.4       1 <0>        -0.5130
     23 H13        -2.9215    2.4650   -2.4601 H         1 <0>         0.4381
     24 H14        -3.8059    1.0411   -2.4996 H         1 <0>         0.4392
@<TRIPOS>BOND
     1    1    2 1
     2    1   13 1
     3    1   14 1
     4    1   22 1
     5    2    3 1
     6    2    4 1
     7    2   11 1
     8    4    5 1
     9    4    6 1
    10    4   10 1
    11    6    7 1
    12    6    8 1
    13    6    9 1
    14    8   15 1
    15    8   16 1
    16    8   22 1
    17    9   17 1
    18   10   18 1
    19   11   12 1
    20   11   19 1
    21   11   20 1
    22   12   21 1
    23   22   23 1
    24   22   24 1
@<TRIPOS>MOLECULE
ZINC06361564
   24    24     0     0     0
SMALL
USER_CHARGES
5-(hydroxymethyl)piperidine-3,4-diol
@<TRIPOS>ATOM
      1 C1         -0.7246    1.5802    1.2693 C.3       1 <0>         0.0036
      2 C2         -0.0127    1.0858    0.0080 C.3       1 <0>        -0.0935
      3 H1          0.0021   -0.0041    0.0020 H         1 <0>         0.1200
      4 C3          1.4235    1.6166   -0.0029 C.3       1 <0>         0.1044
      5 H2          1.9476    1.2315   -0.8776 H         1 <0>         0.0971
      6 C4          2.1402    1.1530    1.2683 C.3       1 <0>         0.0548
      7 H3          3.1499    1.5633    1.2870 H         1 <0>         0.1080
      8 C5          1.3660    1.6455    2.4931 C.3       1 <0>        -0.0366
      9 O1          2.2048   -0.2744    1.2860 O.3       1 <0>        -0.5534
     10 O2          1.4045    3.0448   -0.0465 O.3       1 <0>        -0.5528
     11 C6         -0.7543    1.5934   -1.2303 C.3       1 <0>         0.0830
     12 O3         -2.0563    1.0066   -1.2797 O.3       1 <0>        -0.5799
     13 H4         -0.7512    2.6699    1.2678 H         1 <0>         0.1359
     14 H5         -1.7430    1.1923    1.2872 H         1 <0>         0.1404
     15 H6          1.8659    1.3050    3.3999 H         1 <0>         0.1353
     16 H7          1.3296    2.7349    2.4859 H         1 <0>         0.1444
     17 H8          2.6472   -0.6385    2.0651 H         1 <0>         0.3984
     18 H9          2.2825    3.4498   -0.0556 H         1 <0>         0.3979
     19 H10        -0.8464    2.6783   -1.1793 H         1 <0>         0.0670
     20 H11        -0.1973    1.3178   -2.1257 H         1 <0>         0.0654
     21 H12        -2.5842    1.2842   -2.0408 H         1 <0>         0.3987
     22 N1         -0.0056    1.1027    2.4659 N.4       1 <0>        -0.5109
     23 H13         0.0369    0.0769    2.4481 H         1 <0>         0.4346
     24 H14        -0.5077    1.4098    3.3072 H         1 <0>         0.4380
@<TRIPOS>BOND
     1    1    2 1
     2    1   13 1
     3    1   14 1
     4    1   22 1
     5    2    3 1
     6    2    4 1
     7    2   11 1
     8    4    5 1
     9    4    6 1
    10    4   10 1
    11    6    7 1
    12    6    8 1
    13    6    9 1
    14    8   15 1
    15    8   16 1
    16    8   22 1
    17    9   17 1
    18   10   18 1
    19   11   12 1
    20   11   19 1
    21   11   20 1
    22   12   21 1
    23   22   23 1
    24   22   24 1
@<TRIPOS>MOLECULE
ZINC06613627
   21    21     0     0     0
SMALL
USER_CHARGES
piperidine-3,4,5-triol
@<TRIPOS>ATOM
      1 C1         -0.8002    1.5266   -1.1159 C.3       1 <0>        -0.0397
      2 C2         -0.1535    1.1011   -2.4360 C.3       1 <0>         0.0502
      3 H1         -0.7301    1.5011   -3.2700 H         1 <0>         0.1139
      4 C3          1.2769    1.6442   -2.4964 C.3       1 <0>         0.1112
      5 C4          2.0630    1.1248   -1.2894 C.3       1 <0>         0.0969
      6 H2          2.1189    0.0371   -1.3322 H         1 <0>         0.0956
      7 C5          1.3520    1.5497   -0.0025 C.3       1 <0>        -0.0393
      8 O1          3.3829    1.6722   -1.3083 O.3       1 <0>        -0.5288
      9 O2          1.9050    1.2023   -3.7015 O.3       1 <0>        -0.5304
     10 O3         -0.1259   -0.3254   -2.5158 O.3       1 <0>        -0.5467
     11 H3         -1.8139    1.1294   -1.0635 H         1 <0>         0.1429
     12 H4         -0.8334    2.6148   -1.0619 H         1 <0>         0.1444
     13 H5          1.2540    2.7337   -2.4748 H         1 <0>         0.0931
     14 H6          1.3087    2.6377    0.0463 H         1 <0>         0.1404
     15 H7          1.9015    1.1693    0.8585 H         1 <0>         0.1422
     16 H8          3.9373    1.3876   -0.5689 H         1 <0>         0.3942
     17 H9          1.4590    1.4954   -4.5078 H         1 <0>         0.3927
     18 H10        -0.9998   -0.7381   -2.4833 H         1 <0>         0.3941
     19 N1         -0.0158    0.9970    0.0159 N.4       1 <0>        -0.5068
     20 H11         0.0319   -0.0262   -0.0550 H         1 <0>         0.4384
     21 H12        -0.4743    1.2581    0.8967 H         1 <0>         0.4417
@<TRIPOS>BOND
     1    1    2 1
     2    1   11 1
     3    1   12 1
     4    1   19 1
     5    2    3 1
     6    2    4 1
     7    2   10 1
     8    4    5 1
     9    4    9 1
    10    4   13 1
    11    5    6 1
    12    5    7 1
    13    5    8 1
    14    7   14 1
    15    7   15 1
    16    7   19 1
    17    8   16 1
    18    9   17 1
    19   10   18 1
    20   19   20 1
    21   19   21 1
@<TRIPOS>MOLECULE
ZINC06613653
   21    21     0     0     0
SMALL
USER_CHARGES
piperidine-3,4,5-triol
@<TRIPOS>ATOM
      1 C1         -0.7246    1.5802    1.2693 C.3       1 <0>        -0.0393
      2 C2         -0.0127    1.0858    0.0080 C.3       1 <0>         0.0968
      3 H1          0.0021   -0.0041    0.0020 H         1 <0>         0.0955
      4 C3          1.4235    1.6166   -0.0029 C.3       1 <0>         0.1112
      5 C4          2.1402    1.1530    1.2683 C.3       1 <0>         0.0502
      6 H2          3.1499    1.5633    1.2870 H         1 <0>         0.1138
      7 C5          1.3660    1.6455    2.4931 C.3       1 <0>        -0.0397
      8 O1          2.2048   -0.2744    1.2860 O.3       1 <0>        -0.5466
      9 O2          2.1106    1.1117   -1.1496 O.3       1 <0>        -0.5304
     10 O3         -0.7053    1.5599   -1.1485 O.3       1 <0>        -0.5288
     11 H3         -0.7512    2.6699    1.2678 H         1 <0>         0.1404
     12 H4         -1.7430    1.1923    1.2872 H         1 <0>         0.1422
     13 H5          1.4090    2.7060   -0.0362 H         1 <0>         0.0931
     14 H6          1.8659    1.3050    3.3999 H         1 <0>         0.1429
     15 H7          1.3296    2.7349    2.4859 H         1 <0>         0.1444
     16 H8          2.6472   -0.6385    2.0651 H         1 <0>         0.3941
     17 H9          3.0282    1.4083   -1.2205 H         1 <0>         0.3927
     18 H10        -1.6237    1.2627   -1.2063 H         1 <0>         0.3942
     19 N1         -0.0056    1.1027    2.4659 N.4       1 <0>        -0.5068
     20 H11         0.0369    0.0769    2.4481 H         1 <0>         0.4384
     21 H12        -0.5077    1.4098    3.3072 H         1 <0>         0.4417
@<TRIPOS>BOND
     1    1    2 1
     2    1   11 1
     3    1   12 1
     4    1   19 1
     5    2    3 1
     6    2    4 1
     7    2   10 1
     8    4    5 1
     9    4    9 1
    10    4   13 1
    11    5    6 1
    12    5    7 1
    13    5    8 1
    14    7   14 1
    15    7   15 1
    16    7   19 1
    17    8   16 1
    18    9   17 1
    19   10   18 1
    20   19   20 1
    21   19   21 1
@<TRIPOS>MOLECULE
ZINC06244051
   43    44     0     0     0
SMALL
USER_CHARGES

@<TRIPOS>ATOM
      1 C1          0.0976    1.3823    0.3894 C.3       1 <0>        -0.1535
      2 C2          0.0932   -0.1451    0.2991 C.3       1 <0>        -0.1223
      3 C3         -1.3507   -0.6509    0.2843 C.3       1 <0>        -0.1327
      4 C4         -1.3551   -2.1782    0.1941 C.3       1 <0>         0.1170
      5 N1         -2.7377   -2.6626    0.1800 N.am      1 <0>        -0.7283
      6 C5         -2.9877   -3.9848    0.1044 C.2       1 <0>         0.5584
      7 O1         -2.0658   -4.7757    0.0480 O.2       1 <0>        -0.5329
      8 C6         -4.3799   -4.4726    0.0902 C.ar      1 <0>        -0.1453
      9 C7         -5.4409   -3.5643    0.1491 C.ar      1 <0>        -0.0675
     10 C8         -6.7385   -4.0223    0.1352 C.ar      1 <0>        -0.1362
     11 C9         -6.9951   -5.3887    0.0629 C.ar      1 <0>         0.1707
     12 C10        -5.9406   -6.2959    0.0045 C.ar      1 <0>        -0.1606
     13 C11        -4.6410   -5.8437    0.0119 C.ar      1 <0>        -0.0328
     14 N2         -8.3073   -5.8484    0.0495 N.pl3     1 <0>        -1.0560
     15 S1         -8.7699   -7.0004   -1.0466 S.o2      1 <0>         2.6887
     16 O2         -7.8453   -8.0725   -0.9236 O.2       1 <0>        -0.9436
     17 O3        -10.1699   -7.1791   -0.8815 O.2       1 <0>        -0.9458
     18 C12        -8.5356   -6.3151   -2.6528 C.ar      1 <0>        -0.6770
     19 C13        -9.5183   -5.5229   -3.2163 C.ar      1 <0>        -0.0186
     20 C14        -9.3344   -4.9853   -4.4765 C.ar      1 <0>        -0.1400
     21 C15        -8.1678   -5.2395   -5.1730 C.ar      1 <0>        -0.0586
     22 C16        -7.1847   -6.0310   -4.6091 C.ar      1 <0>        -0.1385
     23 C17        -7.3667   -6.5652   -3.3472 C.ar      1 <0>        -0.0161
     24 H1          1.1262    1.7427    0.3999 H         1 <0>         0.0570
     25 H2         -0.4245    1.7987   -0.4721 H         1 <0>         0.0545
     26 H3         -0.4059    1.6936    1.3046 H         1 <0>         0.0547
     27 H4          0.5966   -0.4564   -0.6161 H         1 <0>         0.0659
     28 H5          0.6152   -0.5614    1.1606 H         1 <0>         0.0661
     29 H6         -1.8542   -0.3396    1.1996 H         1 <0>         0.0698
     30 H7         -1.8728   -0.2345   -0.5772 H         1 <0>         0.0695
     31 H8         -0.8517   -2.4896   -0.7212 H         1 <0>         0.0701
     32 H9         -0.8331   -2.5946    1.0556 H         1 <0>         0.0704
     33 H10        -3.4731   -2.0317    0.2250 H         1 <0>         0.3997
     34 H11        -5.2425   -2.5042    0.2059 H         1 <0>         0.1312
     35 H12        -7.5586   -3.3211    0.1807 H         1 <0>         0.1367
     36 H13        -6.1429   -7.3553   -0.0511 H         1 <0>         0.1644
     37 H14        -3.8234   -6.5476   -0.0383 H         1 <0>         0.1459
     38 H15        -8.9517   -5.4944    0.6821 H         1 <0>         0.4304
     39 H16       -10.4298   -5.3242   -2.6722 H         1 <0>         0.1394
     40 H17       -10.1025   -4.3669   -4.9171 H         1 <0>         0.1350
     41 H18        -8.0245   -4.8201   -6.1579 H         1 <0>         0.1331
     42 H19        -6.2733   -6.2300   -5.1534 H         1 <0>         0.1353
     43 H20        -6.5971   -7.1805   -2.9051 H         1 <0>         0.1425
@<TRIPOS>BOND
     1    1    2 1
     2    1   24 1
     3    1   25 1
     4    1   26 1
     5    2    3 1
     6    2   27 1
     7    2   28 1
     8    3    4 1
     9    3   29 1
    10    3   30 1
    11    4    5 1
    12    4   31 1
    13    4   32 1
    14    5    6 am
    15    5   33 1
    16    6    7 2
    17    6    8 1
    18    8   13 ar
    19    8    9 ar
    20    9   10 ar
    21    9   34 1
    22   10   11 ar
    23   10   35 1
    24   11   12 ar
    25   11   14 1
    26   12   13 ar
    27   12   36 1
    28   13   37 1
    29   14   15 1
    30   14   38 1
    31   15   16 2
    32   15   17 2
    33   15   18 1
    34   18   23 ar
    35   18   19 ar
    36   19   20 ar
    37   19   39 1
    38   20   21 ar
    39   20   40 1
    40   21   22 ar
    41   21   41 1
    42   22   23 ar
    43   22   42 1
    44   23   43 1
@<TRIPOS>MOLECULE
ZINC06244051
   42    43     0     0     0
SMALL
USER_CHARGES

@<TRIPOS>ATOM
      1 C1         -0.0187    1.5258    0.0104 C.3       1 <0>        -0.1519
      2 C2          0.0021   -0.0041    0.0020 C.3       1 <0>        -0.1216
      3 C3          0.7182   -0.4975   -1.2568 C.3       1 <0>        -0.1323
      4 C4          0.7390   -2.0273   -1.2652 C.3       1 <0>         0.1214
      5 N1          1.4247   -2.4998   -2.4705 N.am      1 <0>        -0.7400
      6 C5          1.5637   -3.8219   -2.6922 C.2       1 <0>         0.5732
      7 O1          1.1200   -4.6226   -1.8919 O.2       1 <0>        -0.5641
      8 C6          2.2542   -4.2976   -3.9060 C.ar      1 <0>        -0.2600
      9 C7          2.7700   -3.3784   -4.8242 C.ar      1 <0>        -0.0401
     10 C8          3.4140   -3.8253   -5.9552 C.ar      1 <0>        -0.1918
     11 C9          3.5517   -5.1913   -6.1857 C.ar      1 <0>         0.3100
     12 C10         3.0388   -6.1093   -5.2734 C.ar      1 <0>        -0.2782
     13 C11         2.3993   -5.6686   -4.1374 C.ar      1 <0>         0.0046
     14 N2          4.2026   -5.6397   -7.3297 N.2       1 <0>        -1.0808
     15 S1          4.3674   -7.2642   -7.6055 S.o2      1 <0>         2.6049
     16 O2          5.2252   -7.7638   -6.5887 O.2       1 <0>        -1.0248
     17 O3          3.0584   -7.7752   -7.8170 O.2       1 <0>        -1.0247
     18 C12         5.2323   -7.4488   -9.1295 C.ar      1 <0>        -0.6165
     19 C13         4.5304   -7.5209  -10.3182 C.ar      1 <0>        -0.0247
     20 C14         5.2089   -7.6657  -11.5138 C.ar      1 <0>        -0.1474
     21 C15         6.5894   -7.7378  -11.5208 C.ar      1 <0>        -0.0835
     22 C16         7.2913   -7.6648  -10.3322 C.ar      1 <0>        -0.1474
     23 C17         6.6130   -7.5157   -9.1369 C.ar      1 <0>        -0.0248
     24 H1          1.0039    1.9031    0.0027 H         1 <0>         0.0539
     25 H2         -0.5459    1.8868   -0.8726 H         1 <0>         0.0539
     26 H3         -0.5289    1.8773    0.9072 H         1 <0>         0.0533
     27 H4          0.5293   -0.3651    0.8851 H         1 <0>         0.0641
     28 H5         -1.0205   -0.3814    0.0098 H         1 <0>         0.0641
     29 H6          0.1910   -0.1364   -2.1398 H         1 <0>         0.0683
     30 H7          1.7408   -0.1202   -1.2645 H         1 <0>         0.0682
     31 H8          1.2661   -2.3884   -0.3821 H         1 <0>         0.0621
     32 H9         -0.2836   -2.4046   -1.2575 H         1 <0>         0.0621
     33 H10         1.7786   -1.8611   -3.1090 H         1 <0>         0.3977
     34 H11         2.6628   -2.3185   -4.6463 H         1 <0>         0.1071
     35 H12         3.8126   -3.1155   -6.6650 H         1 <0>         0.1183
     36 H13         3.1470   -7.1684   -5.4551 H         1 <0>         0.1034
     37 H14         2.0058   -6.3813   -3.4276 H         1 <0>         0.1163
     38 H15         3.4519   -7.4645  -10.3128 H         1 <0>         0.1362
     39 H16         4.6605   -7.7228  -12.4425 H         1 <0>         0.1260
     40 H17         7.1195   -7.8517  -12.4549 H         1 <0>         0.1233
     41 H18         8.3698   -7.7215  -10.3376 H         1 <0>         0.1260
     42 H19         7.1616   -7.4549   -8.2086 H         1 <0>         0.1363
@<TRIPOS>BOND
     1    1    2 1
     2    1   24 1
     3    1   25 1
     4    1   26 1
     5    2    3 1
     6    2   27 1
     7    2   28 1
     8    3    4 1
     9    3   29 1
    10    3   30 1
    11    4    5 1
    12    4   31 1
    13    4   32 1
    14    5    6 am
    15    5   33 1
    16    6    7 2
    17    6    8 1
    18    8   13 ar
    19    8    9 ar
    20    9   10 ar
    21    9   34 1
    22   10   11 ar
    23   10   35 1
    24   11   12 ar
    25   11   14 1
    26   12   13 ar
    27   12   36 1
    28   13   37 1
    29   14   15 1
    30   15   16 2
    31   15   17 2
    32   15   18 1
    33   18   23 ar
    34   18   19 ar
    35   19   20 ar
    36   19   38 1
    37   20   21 ar
    38   20   39 1
    39   21   22 ar
    40   21   40 1
    41   22   23 ar
    42   22   41 1
    43   23   42 1
@<TRIPOS>MOLECULE
ZINC03649803
   54    57     0     0     0
SMALL
USER_CHARGES

@<TRIPOS>ATOM
      1 C1         -0.3046    1.9063    0.0810 C.3       1 <0>        -0.1440
      2 C2         -0.3584    0.4074   -0.0660 C.ar      1 <0>         0.0981
      3 C3         -0.4746   -0.1704   -1.2945 C.ar      1 <0>        -0.2264
      4 C4         -0.5223   -1.5669   -1.4075 C.ar      1 <0>         0.4982
      5 N1         -0.4578   -2.3466   -0.3481 N.ar      1 <0>        -0.5259
      6 C5         -0.3432   -1.8368    0.8839 C.ar      1 <0>         0.1471
      7 C6         -0.2839   -0.4331    1.0636 C.ar      1 <0>        -0.0908
      8 C7         -0.1587    0.0971    2.3565 C.ar      1 <0>        -0.0954
      9 C8         -0.0894   -0.7564    3.4357 C.ar      1 <0>         0.1680
     10 C9         -0.1428   -2.1421    3.2512 C.ar      1 <0>        -0.0399
     11 C10        -0.2755   -2.6779    2.0083 C.ar      1 <0>        -0.1240
     12 N2          0.0361   -0.2326    4.7279 N.am      1 <0>        -0.6785
     13 C11         0.7660   -0.8874    5.6525 C.2       1 <0>         0.5231
     14 O1          1.3940   -1.8769    5.3400 O.2       1 <0>        -0.5086
     15 C12         0.8018   -0.3902    7.0746 C.3       1 <0>        -0.1047
     16 C13         1.3607    1.0338    7.1031 C.3       1 <0>        -0.1120
     17 C14         1.3971    1.5386    8.5470 C.3       1 <0>        -0.1193
     18 C15         2.2915    0.6229    9.3850 C.3       1 <0>        -0.1255
     19 C16         1.7326   -0.8011    9.3566 C.3       1 <0>        -0.1218
     20 C17         1.6963   -1.3059    7.9127 C.3       1 <0>        -0.1014
     21 N3         -0.6408   -2.1412   -2.6651 N.pl3     1 <0>        -0.5841
     22 C18        -0.8274   -1.3082   -3.8637 C.3       1 <0>         0.0707
     23 C19         0.2037   -1.7353   -4.9147 C.3       1 <0>         0.0424
     24 O2          0.1228   -3.1498   -5.1057 O.3       1 <0>        -0.3631
     25 C20         0.4360   -3.9166   -3.9405 C.3       1 <0>         0.0470
     26 C21        -0.5775   -3.6009   -2.8404 C.3       1 <0>         0.0573
     27 H1          0.7319    2.2395    0.0281 H         1 <0>         0.1090
     28 H2         -0.8771    2.3709   -0.7217 H         1 <0>         0.0980
     29 H3         -0.7295    2.1924    1.0431 H         1 <0>         0.0944
     30 H4         -0.5302    0.4463   -2.1794 H         1 <0>         0.1795
     31 H5         -0.1166    1.1661    2.5045 H         1 <0>         0.1588
     32 H6         -0.0867   -2.7957    4.1091 H         1 <0>         0.1605
     33 H7         -0.3159   -3.7499    1.8839 H         1 <0>         0.1549
     34 H8         -0.4023    0.6015    4.9577 H         1 <0>         0.4207
     35 H9         -0.2076   -0.3926    7.4859 H         1 <0>         0.1074
     36 H10         2.3701    1.0363    6.6918 H         1 <0>         0.0714
     37 H11         0.7235    1.6862    6.5060 H         1 <0>         0.0657
     38 H12         1.7952    2.5531    8.5672 H         1 <0>         0.0705
     39 H13         0.3877    1.5362    8.9583 H         1 <0>         0.0673
     40 H14         3.3009    0.6253    8.9737 H         1 <0>         0.0644
     41 H15         2.3174    0.9825   10.4136 H         1 <0>         0.0681
     42 H16         2.3698   -1.4535    9.9536 H         1 <0>         0.0708
     43 H17         0.7232   -0.8036    9.7679 H         1 <0>         0.0652
     44 H18         1.2981   -2.3204    7.8924 H         1 <0>         0.0715
     45 H19         2.7057   -1.3035    7.5014 H         1 <0>         0.0722
     46 H20        -1.8337   -1.4514   -4.2573 H         1 <0>         0.1077
     47 H21        -0.6784   -0.2590   -3.6084 H         1 <0>         0.1133
     48 H22        -0.0051   -1.2282   -5.8566 H         1 <0>         0.1271
     49 H23         1.2040   -1.4708   -4.5718 H         1 <0>         0.0673
     50 H24         0.3945   -4.9788   -4.1817 H         1 <0>         0.1264
     51 H25         1.4372   -3.6600   -3.5941 H         1 <0>         0.0661
     52 H26        -0.2630   -4.0693   -1.9077 H         1 <0>         0.0905
     53 H27        -1.5582   -3.9789   -3.1292 H         1 <0>         0.1114
     54 H28        -0.4943   -3.3091   -0.4630 H         1 <0>         0.4336
@<TRIPOS>BOND
     1    1    2 1
     2    1   27 1
     3    1   28 1
     4    1   29 1
     5    2    7 ar
     6    2    3 ar
     7    3    4 ar
     8    3   30 1
     9    4    5 ar
    10    4   21 1
    11    5    6 ar
    12    5   54 1
    13    6   11 ar
    14    6    7 ar
    15    7    8 ar
    16    8    9 ar
    17    8   31 1
    18    9   10 ar
    19    9   12 1
    20   10   11 ar
    21   10   32 1
    22   11   33 1
    23   12   13 am
    24   12   34 1
    25   13   14 2
    26   13   15 1
    27   15   20 1
    28   15   16 1
    29   15   35 1
    30   16   17 1
    31   16   36 1
    32   16   37 1
    33   17   18 1
    34   17   38 1
    35   17   39 1
    36   18   19 1
    37   18   40 1
    38   18   41 1
    39   19   20 1
    40   19   42 1
    41   19   43 1
    42   20   44 1
    43   20   45 1
    44   21   26 1
    45   21   22 1
    46   22   23 1
    47   22   46 1
    48   22   47 1
    49   23   24 1
    50   23   48 1
    51   23   49 1
    52   24   25 1
    53   25   26 1
    54   25   50 1
    55   25   51 1
    56   26   52 1
    57   26   53 1
@<TRIPOS>MOLECULE
ZINC06267373
   42    44     0     0     0
SMALL
USER_CHARGES

@<TRIPOS>ATOM
      1 C1          0.0444    1.2312    0.1792 C.3       1 <0>        -0.1503
      2 C2          0.1363   -0.2958    0.1561 C.3       1 <0>        -0.0277
      3 C3          0.8267   -0.7384   -1.1083 C.2       1 <0>         0.0740
      4 N1          2.1064   -0.9462   -1.3465 N.2       1 <0>        -0.2555
      5 N2          2.5275   -1.3205   -2.4749 N.2       1 <0>        -0.2795
      6 C4          1.7054   -1.5286   -3.4943 C.2       1 <0>         0.2923
      7 S1          0.1418   -1.1396   -2.7132 S.3       1 <0>        -0.0312
      8 N3          1.9785   -1.9369   -4.7943 N.am      1 <0>        -0.6103
      9 C5          3.2490   -2.1843   -5.1701 C.2       1 <0>         0.5582
     10 O1          4.1563   -2.0502   -4.3717 O.2       1 <0>        -0.4579
     11 C6          3.5388   -2.6175   -6.5497 C.ar      1 <0>        -0.1453
     12 C7          2.4973   -2.7666   -7.4706 C.ar      1 <0>        -0.0656
     13 C8          2.7711   -3.1705   -8.7572 C.ar      1 <0>        -0.1342
     14 C9          4.0833   -3.4312   -9.1422 C.ar      1 <0>         0.1791
     15 C10         5.1226   -3.2842   -8.2275 C.ar      1 <0>        -0.1593
     16 C11         4.8562   -2.8746   -6.9412 C.ar      1 <0>        -0.0244
     17 N4          4.3566   -3.8397  -10.4430 N.pl3     1 <0>        -1.0565
     18 S2          5.5982   -3.1407  -11.2868 S.o2      1 <0>         2.6881
     19 O2          6.7514   -3.2304  -10.4613 O.2       1 <0>        -0.9426
     20 O3          5.5558   -3.6863  -12.5982 O.2       1 <0>        -0.9438
     21 C12         5.2223   -1.4263  -11.4422 C.ar      1 <0>        -0.6778
     22 C13         4.4065   -0.9879  -12.4685 C.ar      1 <0>        -0.0184
     23 C14         4.1115    0.3571  -12.5904 C.ar      1 <0>        -0.1397
     24 C15         4.6320    1.2636  -11.6859 C.ar      1 <0>        -0.0581
     25 C16         5.4470    0.8251  -10.6591 C.ar      1 <0>        -0.1383
     26 C17         5.7385   -0.5204  -10.5346 C.ar      1 <0>        -0.0166
     27 H1          1.0475    1.6562    0.1451 H         1 <0>         0.0651
     28 H2         -0.5250    1.5741   -0.6847 H         1 <0>         0.0593
     29 H3         -0.4549    1.5513    1.0937 H         1 <0>         0.0755
     30 H4          0.7057   -0.6387    1.0200 H         1 <0>         0.1086
     31 H5         -0.8668   -0.7208    0.1902 H         1 <0>         0.0966
     32 H6          1.2548   -2.0438   -5.4312 H         1 <0>         0.4275
     33 H7          1.4790   -2.5652   -7.1723 H         1 <0>         0.1318
     34 H8          1.9670   -3.2858   -9.4690 H         1 <0>         0.1405
     35 H9          6.1394   -3.4879   -8.5291 H         1 <0>         0.1679
     36 H10         5.6633   -2.7561   -6.2334 H         1 <0>         0.1500
     37 H11         3.8199   -4.5341  -10.8561 H         1 <0>         0.4317
     38 H12         3.9998   -1.6962  -13.1752 H         1 <0>         0.1396
     39 H13         3.4747    0.6997  -13.3926 H         1 <0>         0.1353
     40 H14         4.4021    2.3145  -11.7816 H         1 <0>         0.1334
     41 H15         5.8539    1.5334   -9.9526 H         1 <0>         0.1356
     42 H16         6.3723   -0.8635   -9.7302 H         1 <0>         0.1428
@<TRIPOS>BOND
     1    1    2 1
     2    1   27 1
     3    1   28 1
     4    1   29 1
     5    2    3 1
     6    2   30 1
     7    2   31 1
     8    3    7 1
     9    3    4 2
    10    4    5 1
    11    5    6 2
    12    6    7 1
    13    6    8 1
    14    8    9 am
    15    8   32 1
    16    9   10 2
    17    9   11 1
    18   11   16 ar
    19   11   12 ar
    20   12   13 ar
    21   12   33 1
    22   13   14 ar
    23   13   34 1
    24   14   15 ar
    25   14   17 1
    26   15   16 ar
    27   15   35 1
    28   16   36 1
    29   17   18 1
    30   17   37 1
    31   18   19 2
    32   18   20 2
    33   18   21 1
    34   21   26 ar
    35   21   22 ar
    36   22   23 ar
    37   22   38 1
    38   23   24 ar
    39   23   39 1
    40   24   25 ar
    41   24   40 1
    42   25   26 ar
    43   25   41 1
    44   26   42 1
@<TRIPOS>MOLECULE
ZINC06267373
   41    43     0     0     0
SMALL
USER_CHARGES

@<TRIPOS>ATOM
      1 C1         -0.0187    1.5258    0.0104 C.3       1 <0>        -0.1494
      2 C2          0.0021   -0.0041    0.0020 C.3       1 <0>        -0.0214
      3 C3          0.7074   -0.4901   -1.2379 C.2       1 <0>         0.0507
      4 N1          1.9824   -0.7596   -1.4365 N.2       1 <0>        -0.2511
      5 N2          2.4182   -1.1636   -2.5490 N.2       1 <0>        -0.2917
      6 C4          1.6173   -1.3425   -3.5905 C.2       1 <0>         0.3208
      7 S1          0.0516   -0.8736   -2.8592 S.3       1 <0>        -0.0572
      8 N3          1.9087   -1.7751   -4.8787 N.am      1 <0>        -0.6129
      9 C5          3.1766   -2.0850   -5.2148 C.2       1 <0>         0.5687
     10 O1          4.0655   -1.9861   -4.3910 O.2       1 <0>        -0.4880
     11 C6          3.4858   -2.5440   -6.5818 C.ar      1 <0>        -0.2607
     12 C7          2.4658   -2.6527   -7.5319 C.ar      1 <0>        -0.0396
     13 C8          2.7577   -3.0809   -8.8066 C.ar      1 <0>        -0.1867
     14 C9          4.0670   -3.4062   -9.1506 C.ar      1 <0>         0.3167
     15 C10         5.0849   -3.2995   -8.2068 C.ar      1 <0>        -0.2765
     16 C11         4.8005   -2.8660   -6.9321 C.ar      1 <0>         0.0138
     17 N4          4.3585   -3.8390  -10.4395 N.2       1 <0>        -1.0768
     18 S2          5.9152   -4.2263  -10.8505 S.o2      1 <0>         2.6065
     19 O2          6.6633   -3.0196  -10.7909 O.2       1 <0>        -1.0223
     20 O3          6.2619   -5.3759  -10.0905 O.2       1 <0>        -1.0223
     21 C12         5.8990   -4.7258  -12.5402 C.ar      1 <0>        -0.6178
     22 C13         5.6941   -6.0534  -12.8665 C.ar      1 <0>        -0.0244
     23 C14         5.6813   -6.4453  -14.1921 C.ar      1 <0>        -0.1471
     24 C15         5.8730   -5.5095  -15.1913 C.ar      1 <0>        -0.0825
     25 C16         6.0770   -4.1818  -14.8650 C.ar      1 <0>        -0.1471
     26 C17         6.0855   -3.7893  -13.5396 C.ar      1 <0>        -0.0244
     27 H1          1.0039    1.9031    0.0027 H         1 <0>         0.0639
     28 H2         -0.5459    1.8868   -0.8726 H         1 <0>         0.0587
     29 H3         -0.5289    1.8773    0.9072 H         1 <0>         0.0706
     30 H4          0.5293   -0.3651    0.8851 H         1 <0>         0.1033
     31 H5         -1.0205   -0.3814    0.0098 H         1 <0>         0.0919
     32 H6          1.1997   -1.8539   -5.5359 H         1 <0>         0.4267
     33 H7          1.4499   -2.4012   -7.2654 H         1 <0>         0.1075
     34 H8          1.9703   -3.1651   -9.5409 H         1 <0>         0.1224
     35 H9          6.0994   -3.5532   -8.4765 H         1 <0>         0.1072
     36 H10         5.5914   -2.7788   -6.2018 H         1 <0>         0.1208
     37 H11         5.5443   -6.7845  -12.0858 H         1 <0>         0.1365
     38 H12         5.5219   -7.4826  -14.4470 H         1 <0>         0.1265
     39 H13         5.8637   -5.8158  -16.2269 H         1 <0>         0.1237
     40 H14         6.2271   -3.4508  -15.6457 H         1 <0>         0.1265
     41 H15         6.2412   -2.7513  -13.2848 H         1 <0>         0.1365
@<TRIPOS>BOND
     1    1    2 1
     2    1   27 1
     3    1   28 1
     4    1   29 1
     5    2    3 1
     6    2   30 1
     7    2   31 1
     8    3    7 1
     9    3    4 2
    10    4    5 1
    11    5    6 2
    12    6    7 1
    13    6    8 1
    14    8    9 am
    15    8   32 1
    16    9   10 2
    17    9   11 1
    18   11   16 ar
    19   11   12 ar
    20   12   13 ar
    21   12   33 1
    22   13   14 ar
    23   13   34 1
    24   14   15 ar
    25   14   17 1
    26   15   16 ar
    27   15   35 1
    28   16   36 1
    29   17   18 1
    30   18   19 2
    31   18   20 2
    32   18   21 1
    33   21   26 ar
    34   21   22 ar
    35   22   23 ar
    36   22   37 1
    37   23   24 ar
    38   23   38 1
    39   24   25 ar
    40   24   39 1
    41   25   26 ar
    42   25   40 1
    43   26   41 1
@<TRIPOS>MOLECULE
ZINC03894499
   62    65     0     0     0
SMALL
USER_CHARGES

@<TRIPOS>ATOM
      1 C1         -0.3293    1.9393    0.0892 C.3       1 <0>        -0.1433
      2 C2         -0.3970    0.4421   -0.0683 C.ar      1 <0>         0.0945
      3 C3         -0.5278   -0.1257   -1.2999 C.ar      1 <0>        -0.2256
      4 C4         -0.5882   -1.5210   -1.4226 C.ar      1 <0>         0.4969
      5 N1         -0.5219   -2.3089   -0.3694 N.ar      1 <0>        -0.5282
      6 C5         -0.3933   -1.8090    0.8654 C.ar      1 <0>         0.1472
      7 C6         -0.3208   -0.4072    1.0547 C.ar      1 <0>        -0.0912
      8 C7         -0.1809    0.1125    2.3503 C.ar      1 <0>        -0.0961
      9 C8         -0.1104   -0.7494    3.4228 C.ar      1 <0>         0.1676
     10 C9         -0.1770   -2.1332    3.2287 C.ar      1 <0>        -0.0409
     11 C10        -0.3240   -2.6588    1.9831 C.ar      1 <0>        -0.1248
     12 N2          0.0296   -0.2361    4.7176 N.am      1 <0>        -0.6790
     13 C11         0.7606   -0.9041    5.6319 C.2       1 <0>         0.5265
     14 O1          1.3783   -1.8962    5.3073 O.2       1 <0>        -0.5038
     15 C12         0.8104   -0.4184    7.0577 C.3       1 <0>        -0.1061
     16 C13         1.3811    1.0007    7.0934 C.3       1 <0>        -0.1142
     17 C14         2.7940    0.9971    6.5061 C.3       1 <0>        -0.1183
     18 C15         3.6866    0.0675    7.3307 C.3       1 <0>        -0.0941
     19 C16         3.1159   -1.3516    7.2950 C.3       1 <0>        -0.1288
     20 C17         1.7031   -1.3480    7.8822 C.3       1 <0>        -0.1017
     21 C18         5.0994    0.0639    6.7434 C.3       1 <0>        -0.1486
     22 N3         -0.7214   -2.0851   -2.6833 N.pl3     1 <0>        -0.5755
     23 C19        -0.6720   -3.5428   -2.8602 C.3       1 <0>         0.0931
     24 C20         0.3878   -3.8759   -3.9151 C.3       1 <0>        -0.1332
     25 C21         0.0875   -3.0969   -5.1977 C.3       1 <0>        -0.0958
     26 C22         0.1475   -1.5949   -4.9103 C.3       1 <0>        -0.1355
     27 C23        -0.9206   -1.2363   -3.8660 C.3       1 <0>         0.1039
     28 C24         1.1242   -3.4534   -6.2650 C.3       1 <0>        -0.1520
     29 H1          0.7095    2.2642    0.0305 H         1 <0>         0.1078
     30 H2         -0.9042    2.4146   -0.7056 H         1 <0>         0.0971
     31 H3         -0.7443    2.2221    1.0566 H         1 <0>         0.0935
     32 H4         -0.5851    0.4978   -2.1799 H         1 <0>         0.1793
     33 H5         -0.1286    1.1800    2.5057 H         1 <0>         0.1575
     34 H6         -0.1197   -2.7935    4.0814 H         1 <0>         0.1598
     35 H7         -0.3744   -3.7295    1.8513 H         1 <0>         0.1537
     36 H8         -0.3994    0.6003    4.9568 H         1 <0>         0.4196
     37 H9         -0.1961   -0.4159    7.4760 H         1 <0>         0.1062
     38 H10         0.7452    1.6629    6.5059 H         1 <0>         0.0661
     39 H11         1.4172    1.3520    8.1246 H         1 <0>         0.0847
     40 H12         2.7579    0.6458    5.4749 H         1 <0>         0.0563
     41 H13         3.2006    2.0081    6.5316 H         1 <0>         0.0695
     42 H14         3.7227    0.4188    8.3619 H         1 <0>         0.0718
     43 H15         3.0799   -1.7029    6.2638 H         1 <0>         0.0862
     44 H16         3.7519   -2.0139    7.8824 H         1 <0>         0.0638
     45 H17         1.7391   -0.9967    8.9134 H         1 <0>         0.0757
     46 H18         1.2965   -2.3590    7.8568 H         1 <0>         0.0710
     47 H19         5.5060    1.0750    6.7689 H         1 <0>         0.0549
     48 H20         5.7354   -0.5983    7.3309 H         1 <0>         0.0573
     49 H21         5.0634   -0.2873    5.7122 H         1 <0>         0.0512
     50 H22        -0.4082   -4.0169   -1.9148 H         1 <0>         0.0791
     51 H23        -1.6452   -3.9036   -3.1933 H         1 <0>         0.1028
     52 H24         1.3730   -3.5964   -3.5418 H         1 <0>         0.0755
     53 H25         0.3679   -4.9452   -4.1257 H         1 <0>         0.0950
     54 H26        -0.9078   -3.3584   -5.5569 H         1 <0>         0.0808
     55 H27         1.1350   -1.3369   -4.5276 H         1 <0>         0.0763
     56 H28        -0.0433   -1.0407   -5.8292 H         1 <0>         0.0954
     57 H29        -1.9136   -1.4128   -4.2794 H         1 <0>         0.0986
     58 H30        -0.8208   -0.1880   -3.5844 H         1 <0>         0.1031
     59 H31         1.0808   -4.5229   -6.4708 H         1 <0>         0.0624
     60 H32         0.9105   -2.8987   -7.1787 H         1 <0>         0.0638
     61 H33         2.1198   -3.1926   -5.9060 H         1 <0>         0.0579
     62 H34        -0.5675   -3.2702   -0.4910 H         1 <0>         0.4333
@<TRIPOS>BOND
     1    1    2 1
     2    1   29 1
     3    1   30 1
     4    1   31 1
     5    2    7 ar
     6    2    3 ar
     7    3    4 ar
     8    3   32 1
     9    4    5 ar
    10    4   22 1
    11    5    6 ar
    12    5   62 1
    13    6   11 ar
    14    6    7 ar
    15    7    8 ar
    16    8    9 ar
    17    8   33 1
    18    9   10 ar
    19    9   12 1
    20   10   11 ar
    21   10   34 1
    22   11   35 1
    23   12   13 am
    24   12   36 1
    25   13   14 2
    26   13   15 1
    27   15   20 1
    28   15   16 1
    29   15   37 1
    30   16   17 1
    31   16   38 1
    32   16   39 1
    33   17   18 1
    34   17   40 1
    35   17   41 1
    36   18   19 1
    37   18   21 1
    38   18   42 1
    39   19   20 1
    40   19   43 1
    41   19   44 1
    42   20   45 1
    43   20   46 1
    44   21   47 1
    45   21   48 1
    46   21   49 1
    47   22   27 1
    48   22   23 1
    49   23   24 1
    50   23   50 1
    51   23   51 1
    52   24   25 1
    53   24   52 1
    54   24   53 1
    55   25   26 1
    56   25   28 1
    57   25   54 1
    58   26   27 1
    59   26   55 1
    60   26   56 1
    61   27   57 1
    62   27   58 1
    63   28   59 1
    64   28   60 1
    65   28   61 1
@<TRIPOS>MOLECULE
ZINC03894499
   61    64     0     0     0
SMALL
USER_CHARGES

@<TRIPOS>ATOM
      1 C1          0.0989    1.2445   -0.0124 C.3       1 <0>        -0.1204
      2 C2          0.1457   -0.2595    0.0702 C.ar      1 <0>         0.0080
      3 C3          0.1971   -1.0201   -1.0592 C.ar      1 <0>        -0.2215
      4 C4          0.2406   -2.4177   -0.9583 C.ar      1 <0>         0.4317
      5 N1          0.2326   -3.0249    0.2103 N.ar      1 <0>        -0.5510
      6 C5          0.1831   -2.3309    1.3536 C.ar      1 <0>         0.1792
      7 C6          0.1434   -0.9155    1.3183 C.ar      1 <0>        -0.1294
      8 C7          0.0966   -0.1917    2.5192 C.ar      1 <0>        -0.1114
      9 C8          0.0954   -0.8683    3.7193 C.ar      1 <0>         0.1288
     10 C9          0.1403   -2.2663    3.7476 C.ar      1 <0>        -0.0816
     11 C10         0.1746   -2.9887    2.5959 C.ar      1 <0>        -0.0974
     12 N2          0.0492   -0.1510    4.9205 N.am      1 <0>        -0.6751
     13 C11         0.7100   -0.6065    6.0033 C.2       1 <0>         0.5208
     14 O1          1.4225   -1.5838    5.9122 O.2       1 <0>        -0.5109
     15 C12         0.5635    0.0984    7.3271 C.3       1 <0>        -0.1073
     16 C13         1.0355    1.5472    7.1885 C.3       1 <0>        -0.1117
     17 C14         2.5042    1.5662    6.7603 C.3       1 <0>        -0.1190
     18 C15         3.3522    0.8523    7.8149 C.3       1 <0>        -0.0916
     19 C16         2.8802   -0.5965    7.9535 C.3       1 <0>        -0.1295
     20 C17         1.4114   -0.6156    8.3817 C.3       1 <0>        -0.0986
     21 C18         4.8209    0.8713    7.3867 C.3       1 <0>        -0.1480
     22 N3          0.2927   -3.1793   -2.1171 N.pl3     1 <0>        -0.6018
     23 C19         0.3296   -4.6464   -2.0476 C.3       1 <0>         0.1225
     24 C20         1.5331   -5.1480   -2.8518 C.3       1 <0>        -0.1307
     25 C21         1.4604   -4.5877   -4.2741 C.3       1 <0>        -0.0927
     26 C22         1.5152   -3.0591   -4.2255 C.3       1 <0>        -0.1309
     27 C23         0.3058   -2.5340   -3.4370 C.3       1 <0>         0.1188
     28 C24         2.6424   -5.1144   -5.0904 C.3       1 <0>        -0.1479
     29 H1          1.1145    1.6401   -0.0131 H         1 <0>         0.0806
     30 H2         -0.4077    1.5423   -0.9305 H         1 <0>         0.0746
     31 H3         -0.4441    1.6388    0.8465 H         1 <0>         0.0744
     32 H4          0.2040   -0.5472   -2.0301 H         1 <0>         0.1361
     33 H5          0.0621    0.8877    2.5030 H         1 <0>         0.1298
     34 H6          0.1390   -2.7796    4.6978 H         1 <0>         0.1370
     35 H7          0.2083   -4.0674    2.6360 H         1 <0>         0.1354
     36 H8         -0.4583    0.6739    4.9736 H         1 <0>         0.4090
     37 H9         -0.4829    0.0848    7.6322 H         1 <0>         0.1003
     38 H10         0.4314    2.0558    6.4372 H         1 <0>         0.0655
     39 H11         0.9295    2.0570    8.1461 H         1 <0>         0.0786
     40 H12         2.6102    1.0564    5.8028 H         1 <0>         0.0609
     41 H13         2.8405    2.5984    6.6616 H         1 <0>         0.0658
     42 H14         3.2462    1.3621    8.7724 H         1 <0>         0.0678
     43 H15         2.9861   -1.1063    6.9960 H         1 <0>         0.0907
     44 H16         3.4843   -1.1051    8.7048 H         1 <0>         0.0599
     45 H17         1.3055   -0.1057    9.3392 H         1 <0>         0.0695
     46 H18         1.0751   -1.6477    8.4805 H         1 <0>         0.0696
     47 H19         5.1572    1.9035    7.2879 H         1 <0>         0.0526
     48 H20         5.4251    0.3627    8.1380 H         1 <0>         0.0548
     49 H21         4.9269    0.3615    6.4292 H         1 <0>         0.0536
     50 H22         0.4278   -4.9607   -1.0085 H         1 <0>         0.0986
     51 H23        -0.5882   -5.0554   -2.4700 H         1 <0>         0.0602
     52 H24         2.4543   -4.8127   -2.3753 H         1 <0>         0.0657
     53 H25         1.5176   -6.2373   -2.8886 H         1 <0>         0.0741
     54 H26         0.5275   -4.9030   -4.7414 H         1 <0>         0.0714
     55 H27         2.4366   -2.7434   -3.7361 H         1 <0>         0.0676
     56 H28         1.4869   -2.6616   -5.2400 H         1 <0>         0.0756
     57 H29        -0.6139   -2.7743   -3.9704 H         1 <0>         0.0685
     58 H30         0.3884   -1.4540   -3.3149 H         1 <0>         0.0851
     59 H31         2.6029   -6.2031   -5.1262 H         1 <0>         0.0560
     60 H32         2.5909   -4.7155   -6.1035 H         1 <0>         0.0552
     61 H33         3.5756   -4.7999   -4.6231 H         1 <0>         0.0540
@<TRIPOS>BOND
     1    1    2 1
     2    1   29 1
     3    1   30 1
     4    1   31 1
     5    2    7 ar
     6    2    3 ar
     7    3    4 ar
     8    3   32 1
     9    4    5 ar
    10    4   22 1
    11    5    6 ar
    12    6   11 ar
    13    6    7 ar
    14    7    8 ar
    15    8    9 ar
    16    8   33 1
    17    9   10 ar
    18    9   12 1
    19   10   11 ar
    20   10   34 1
    21   11   35 1
    22   12   13 am
    23   12   36 1
    24   13   14 2
    25   13   15 1
    26   15   20 1
    27   15   16 1
    28   15   37 1
    29   16   17 1
    30   16   38 1
    31   16   39 1
    32   17   18 1
    33   17   40 1
    34   17   41 1
    35   18   19 1
    36   18   21 1
    37   18   42 1
    38   19   20 1
    39   19   43 1
    40   19   44 1
    41   20   45 1
    42   20   46 1
    43   21   47 1
    44   21   48 1
    45   21   49 1
    46   22   27 1
    47   22   23 1
    48   23   24 1
    49   23   50 1
    50   23   51 1
    51   24   25 1
    52   24   52 1
    53   24   53 1
    54   25   26 1
    55   25   28 1
    56   25   54 1
    57   26   27 1
    58   26   55 1
    59   26   56 1
    60   27   57 1
    61   27   58 1
    62   28   59 1
    63   28   60 1
    64   28   61 1
@<TRIPOS>MOLECULE
ZINC14253608
   52    52     0     0     0
SMALL
USER_CHARGES
(2R,3R,4R,5S)-2-(hydroxymethyl)-1-nonyl-piperidine-3,4,5-triol
@<TRIPOS>ATOM
      1 C1          0.7154   -2.0470   -3.5299 C.3       1 <0>        -0.1559
      2 C2          0.0108   -1.6297   -2.2375 C.3       1 <0>        -0.1262
      3 C3          0.1604   -0.1200   -2.0396 C.3       1 <0>        -0.1219
      4 C4         -0.5442    0.2973   -0.7472 C.3       1 <0>        -0.1216
      5 C5         -0.3946    1.8071   -0.5493 C.3       1 <0>        -0.1218
      6 C6         -1.0992    2.2243    0.7431 C.3       1 <0>        -0.1209
      7 C7         -0.9496    3.7341    0.9409 C.3       1 <0>        -0.1175
      8 C8         -1.6542    4.1513    2.2334 C.3       1 <0>        -0.1485
      9 C9         -1.5046    5.6611    2.4312 C.3       1 <0>        -0.0103
     10 C10        -3.6231    5.7956    3.5949 C.3       1 <0>        -0.0457
     11 C11        -4.2704    6.0877    4.9505 C.3       1 <0>         0.0575
     12 H1         -3.8342    5.4390    5.7101 H         1 <0>         0.0901
     13 C12        -4.0219    7.5516    5.3245 C.3       1 <0>         0.0687
     14 H2         -4.4921    8.2011    4.5861 H         1 <0>         0.0870
     15 C13        -2.5137    7.8145    5.3507 C.3       1 <0>         0.1111
     16 H3         -2.0492    7.1930    6.1162 H         1 <0>         0.0964
     17 C14        -1.9173    7.4724    3.9835 C.3       1 <0>         0.0415
     18 H4         -2.3723    8.1039    3.2204 H         1 <0>         0.1581
     19 C15        -0.4069    7.7145    4.0114 C.3       1 <0>         0.0557
     20 O1          0.1793    6.9463    5.0641 O.3       1 <0>        -0.5785
     21 O2         -2.2747    9.1925    5.6441 O.3       1 <0>        -0.5400
     22 O3         -4.5751    7.8153    6.6154 O.3       1 <0>        -0.5484
     23 O4         -5.6769    5.8483    4.8692 O.3       1 <0>        -0.5369
     24 H5          0.6088   -3.1226   -3.6709 H         1 <0>         0.0560
     25 H6          0.2660   -1.5237   -4.3739 H         1 <0>         0.0541
     26 H7          1.7732   -1.7920   -3.4657 H         1 <0>         0.0542
     27 H8          0.4601   -2.1530   -1.3935 H         1 <0>         0.0608
     28 H9         -1.0470   -1.8847   -2.3017 H         1 <0>         0.0607
     29 H10        -0.2889    0.4034   -2.8836 H         1 <0>         0.0615
     30 H11         1.2182    0.1350   -1.9754 H         1 <0>         0.0616
     31 H12        -0.0949   -0.2260    0.0968 H         1 <0>         0.0619
     32 H13        -1.6020    0.0423   -0.8114 H         1 <0>         0.0617
     33 H14         0.6632    2.0621   -0.4851 H         1 <0>         0.0639
     34 H15        -0.8439    2.3304   -1.3934 H         1 <0>         0.0636
     35 H16        -2.1570    1.9693    0.6789 H         1 <0>         0.0654
     36 H17        -0.6498    1.7010    1.5871 H         1 <0>         0.0663
     37 H18         0.1082    3.9891    1.0051 H         1 <0>         0.0746
     38 H19        -1.3989    4.2574    0.0969 H         1 <0>         0.0743
     39 H20        -2.7120    3.8963    2.1692 H         1 <0>         0.0857
     40 H21        -1.2048    3.6280    3.0774 H         1 <0>         0.0885
     41 H22        -0.4468    5.9161    2.4954 H         1 <0>         0.1357
     42 H23        -1.9539    6.1844    1.5872 H         1 <0>         0.1344
     43 H24        -4.0702    6.4350    2.8337 H         1 <0>         0.1423
     44 H25        -3.7860    4.7503    3.3324 H         1 <0>         0.1402
     45 H26         0.0269    7.4143    3.0575 H         1 <0>         0.0773
     46 H27        -0.2117    8.7732    4.1821 H         1 <0>         0.1048
     47 H28         1.1376    7.0510    5.1408 H         1 <0>         0.4108
     48 H29        -2.6264    9.4796    6.4979 H         1 <0>         0.4120
     49 H30        -5.5294    7.6691    6.6717 H         1 <0>         0.4050
     50 H31        -5.9081    4.9388    4.6357 H         1 <0>         0.3994
     51 N1         -2.1691    6.0447    3.6938 N.4       1 <0>        -0.3828
     52 H32        -1.7853    5.4771    4.4584 H         1 <0>         0.4345
@<TRIPOS>BOND
     1    1    2 1
     2    1   24 1
     3    1   25 1
     4    1   26 1
     5    2    3 1
     6    2   27 1
     7    2   28 1
     8    3    4 1
     9    3   29 1
    10    3   30 1
    11    4    5 1
    12    4   31 1
    13    4   32 1
    14    5    6 1
    15    5   33 1
    16    5   34 1
    17    6    7 1
    18    6   35 1
    19    6   36 1
    20    7    8 1
    21    7   37 1
    22    7   38 1
    23    8    9 1
    24    8   39 1
    25    8   40 1
    26    9   41 1
    27    9   42 1
    28    9   51 1
    29   10   11 1
    30   10   43 1
    31   10   44 1
    32   10   51 1
    33   11   12 1
    34   11   13 1
    35   11   23 1
    36   13   14 1
    37   13   15 1
    38   13   22 1
    39   15   16 1
    40   15   17 1
    41   15   21 1
    42   17   18 1
    43   17   19 1
    44   17   51 1
    45   19   20 1
    46   19   45 1
    47   19   46 1
    48   20   47 1
    49   21   48 1
    50   22   49 1
    51   23   50 1
    52   51   52 1
@<TRIPOS>MOLECULE
ZINC16952677
   29    30     0     0     0
SMALL
USER_CHARGES
(1R,6S,7R,8R,8aR)-1,2,3,5,6,7,8,8a-octahydroindolizine-1,6,7,8-tetrol
@<TRIPOS>ATOM
      1 C1          2.0924    1.1577    1.2630 C.3       1 <0>        -0.1908
      2 C2          2.8449    2.4428    1.6857 C.3       1 <0>         0.0006
      3 C3          2.5588    4.8403    1.0713 C.3       1 <0>        -0.0275
      4 C4          2.3491    5.7011   -0.1839 C.3       1 <0>         0.0536
      5 H1          3.1808    5.5437   -0.8705 H         1 <0>         0.0911
      6 C5          1.0420    5.3269   -0.8817 C.3       1 <0>         0.0649
      7 H2          0.2026    5.5953   -0.2404 H         1 <0>         0.0897
      8 C6          0.9957    3.8186   -1.1706 C.3       1 <0>         0.1140
      9 H3          1.7960    3.5493   -1.8598 H         1 <0>         0.0873
     10 C7          1.1871    3.0899    0.1538 C.3       1 <0>         0.0332
     11 H4          0.4134    3.3599    0.8727 H         1 <0>         0.1666
     12 C8          1.2864    1.5618   -0.0018 C.3       1 <0>         0.1014
     13 H5          1.8286    1.2971   -0.9096 H         1 <0>         0.0956
     14 O1         -0.0110    0.9628    0.0073 O.3       1 <0>        -0.5292
     15 O2         -0.2694    3.4722   -1.7377 O.3       1 <0>        -0.5248
     16 O3          0.9428    6.0455   -2.1129 O.3       1 <0>        -0.5491
     17 O4          2.3035    7.0790    0.1923 O.3       1 <0>        -0.5367
     18 H6          1.4171    0.8361    2.0558 H         1 <0>         0.1177
     19 H7          2.8012    0.3651    1.0233 H         1 <0>         0.1128
     20 H8          2.4923    2.7811    2.6600 H         1 <0>         0.1403
     21 H9          3.9182    2.2555    1.7195 H         1 <0>         0.1426
     22 H10         1.7570    5.0278    1.7854 H         1 <0>         0.1426
     23 H11         3.5206    5.0776    1.5259 H         1 <0>         0.1459
     24 H12         0.0021   -0.0041    0.0020 H         1 <0>         0.4021
     25 H13        -0.4646    3.9248   -2.5696 H         1 <0>         0.4083
     26 H14         0.9478    7.0069   -2.0086 H         1 <0>         0.4055
     27 H15         3.1077    7.3950    0.6264 H         1 <0>         0.4007
     28 N1          2.5194    3.4067    0.6172 N.4       1 <0>        -0.3888
     29 H16         3.1908    3.2902   -0.1508 H         1 <0>         0.4305
@<TRIPOS>BOND
     1    1   12 1
     2    1    2 1
     3    1   18 1
     4    1   19 1
     5    2   20 1
     6    2   21 1
     7    2   28 1
     8    3    4 1
     9    3   22 1
    10    3   23 1
    11    3   28 1
    12    4    5 1
    13    4    6 1
    14    4   17 1
    15    6    7 1
    16    6    8 1
    17    6   16 1
    18    8    9 1
    19    8   10 1
    20    8   15 1
    21   10   11 1
    22   10   12 1
    23   10   28 1
    24   12   13 1
    25   12   14 1
    26   14   24 1
    27   15   25 1
    28   16   26 1
    29   17   27 1
    30   28   29 1
@<TRIPOS>MOLECULE
ZINC04400045
   46    48     0     0     0
SMALL
USER_CHARGES

@<TRIPOS>ATOM
      1 C1          1.6585    1.0556    0.6315 C.3       1 <0>         0.0281
      2 O1          1.1186   -0.2499    0.4163 O.3       1 <0>        -0.3172
      3 C2          1.1539   -0.7308   -0.8555 C.ar      1 <0>         0.1007
      4 C3          1.7012    0.0347   -1.8720 C.ar      1 <0>        -0.1750
      5 C4          1.7362   -0.4547   -3.1646 C.ar      1 <0>        -0.0913
      6 C5          1.2253   -1.7092   -3.4472 C.ar      1 <0>        -0.0498
      7 C6          0.6777   -2.4796   -2.4375 C.ar      1 <0>        -0.0840
      8 C7          0.6449   -1.9964   -1.1375 C.ar      1 <0>         0.1548
      9 N1          0.0961   -2.7769   -0.1120 N.pl3     1 <0>        -0.6158
     10 C8          0.0600   -4.1521   -0.2347 C.ar      1 <0>         0.6513
     11 N2          0.6546   -4.7433   -1.2666 N.ar      1 <0>        -0.6675
     12 C9          0.6203   -6.0668   -1.3844 C.ar      1 <0>         0.6526
     13 N3         -0.0089   -6.7994   -0.4707 N.ar      1 <0>        -0.6719
     14 C10        -0.6034   -6.2085    0.5610 C.ar      1 <0>         0.6734
     15 N4         -0.5644   -4.8851    0.6818 N.ar      1 <0>        -0.6699
     16 N5         -1.2569   -6.9690    1.5092 N.pl3     1 <0>        -0.5810
     17 C11        -1.3670   -8.4351    1.5046 C.3       1 <0>         0.1247
     18 C12        -2.2030   -8.8358    2.7383 C.3       1 <0>        -0.1341
     19 C13        -2.9947   -7.5401    3.0573 C.3       1 <0>        -0.1352
     20 C14        -1.9549   -6.4464    2.6980 C.3       1 <0>         0.1214
     21 N6          1.2374   -6.6804   -2.4555 N.pl3     1 <0>        -0.6786
     22 C15         1.9304   -5.8731   -3.4627 C.3       1 <0>         0.1357
     23 C16         2.5225   -6.7916   -4.5334 C.3       1 <0>         0.0618
     24 O2          1.4651   -7.4471   -5.2365 O.3       1 <0>        -0.5699
     25 Cl1         1.2714   -2.3173   -5.0726 Cl        1 <0>        -0.0667
     26 H1          2.7097    1.0660    0.3434 H         1 <0>         0.0579
     27 H2          1.1096    1.7796    0.0293 H         1 <0>         0.0583
     28 H3          1.5680    1.3169    1.6858 H         1 <0>         0.1027
     29 H4          2.1004    1.0144   -1.6548 H         1 <0>         0.1414
     30 H5          2.1630    0.1438   -3.9558 H         1 <0>         0.1364
     31 H6          0.2792   -3.4583   -2.6603 H         1 <0>         0.1693
     32 H7         -0.2587   -2.3516    0.6844 H         1 <0>         0.4307
     33 H8         -1.8670   -8.7665    0.5945 H         1 <0>         0.0704
     34 H9         -0.3746   -8.8815    1.5684 H         1 <0>         0.0693
     35 H10        -2.8823   -9.6528    2.4951 H         1 <0>         0.0856
     36 H11        -1.5550   -9.1068    3.5718 H         1 <0>         0.0783
     37 H12        -3.8828   -7.4605    2.4303 H         1 <0>         0.0776
     38 H13        -3.2588   -7.4936    4.1138 H         1 <0>         0.0878
     39 H14        -1.2518   -6.3039    3.5186 H         1 <0>         0.0689
     40 H15        -2.4577   -5.5087    2.4610 H         1 <0>         0.0830
     41 H16         1.2124   -7.6463   -2.5415 H         1 <0>         0.4186
     42 H17         1.2236   -5.1842   -3.9253 H         1 <0>         0.0790
     43 H18         2.7309   -5.3069   -2.9865 H         1 <0>         0.0837
     44 H19         3.1125   -6.2002   -5.2336 H         1 <0>         0.0673
     45 H20         3.1609   -7.5374   -4.0598 H         1 <0>         0.0541
     46 H21         1.7678   -8.0468   -5.9321 H         1 <0>         0.3833
@<TRIPOS>BOND
     1    1    2 1
     2    1   26 1
     3    1   27 1
     4    1   28 1
     5    2    3 1
     6    3    8 ar
     7    3    4 ar
     8    4    5 ar
     9    4   29 1
    10    5    6 ar
    11    5   30 1
    12    6    7 ar
    13    6   25 1
    14    7    8 ar
    15    7   31 1
    16    8    9 1
    17    9   10 1
    18    9   32 1
    19   10   15 ar
    20   10   11 ar
    21   11   12 ar
    22   12   13 ar
    23   12   21 1
    24   13   14 ar
    25   14   15 ar
    26   14   16 1
    27   16   20 1
    28   16   17 1
    29   17   18 1
    30   17   33 1
    31   17   34 1
    32   18   19 1
    33   18   35 1
    34   18   36 1
    35   19   20 1
    36   19   37 1
    37   19   38 1
    38   20   39 1
    39   20   40 1
    40   21   22 1
    41   21   41 1
    42   22   23 1
    43   22   42 1
    44   22   43 1
    45   23   24 1
    46   23   44 1
    47   23   45 1
    48   24   46 1
@<TRIPOS>MOLECULE
ZINC01484929
   24    24     0     0     0
SMALL
USER_CHARGES

@<TRIPOS>ATOM
      1 C1         -0.0178    1.4636    0.0101 C.3       1 <0>        -0.0027
      2 C2          1.4163    1.9970   -0.0007 C.3       1 <0>        -0.1026
      3 H1          1.9282    1.6467   -0.8971 H         1 <0>         0.1130
      4 C3          2.1538    1.4881    1.2412 C.3       1 <0>         0.1087
      5 H2          1.6725    1.8801    2.1371 H         1 <0>         0.0827
      6 C4          2.1040   -0.0424    1.2610 C.3       1 <0>         0.0566
      7 H3          2.6301   -0.4350    0.3909 H         1 <0>         0.0904
      8 C5          0.6443   -0.5002    1.2251 C.3       1 <0>        -0.0453
      9 N1          0.0021   -0.0041    0.0020 N.4       1 <0>        -0.5001
     10 O1          2.7270   -0.5247    2.4531 O.3       1 <0>        -0.5386
     11 O2          3.5145    1.9229    1.2006 O.3       1 <0>        -0.5460
     12 C6          1.3926    3.5268    0.0091 C.3       1 <0>         0.0845
     13 O3          0.8038    4.0019   -1.2032 O.3       1 <0>        -0.5791
     14 H4         -0.5288    1.8147    0.9066 H         1 <0>         0.1354
     15 H5         -0.5458    1.8242   -0.8727 H         1 <0>         0.1519
     16 H6          0.6052   -1.5894    1.2393 H         1 <0>         0.1399
     17 H7          0.1192   -0.1073    2.0957 H         1 <0>         0.1410
     18 H8         -0.9439   -0.3520   -0.0448 H         1 <0>         0.4384
     19 H9          2.7316   -1.4884    2.5323 H         1 <0>         0.4002
     20 H10         4.0419    1.6357    1.9585 H         1 <0>         0.4025
     21 H11         0.8059    3.8756    0.8590 H         1 <0>         0.0585
     22 H12         2.4114    3.9055    0.0910 H         1 <0>         0.0787
     23 H13         0.7559    4.9656   -1.2658 H         1 <0>         0.4004
     24 H14         0.5177   -0.3280   -0.8025 H         1 <0>         0.4313
@<TRIPOS>BOND
     1    1    9 1
     2    1    2 1
     3    1   14 1
     4    1   15 1
     5    2    3 1
     6    2    4 1
     7    2   12 1
     8    4    5 1
     9    4    6 1
    10    4   11 1
    11    6    7 1
    12    6    8 1
    13    6   10 1
    14    8    9 1
    15    8   16 1
    16    8   17 1
    17    9   18 1
    18    9   24 1
    19   10   19 1
    20   11   20 1
    21   12   13 1
    22   12   21 1
    23   12   22 1
    24   13   23 1
@<TRIPOS>MOLECULE
ZINC12504453
   25    26     0     0     0
SMALL
USER_CHARGES
(1R,2S,3R,4S,5R)-8-azabicyclo[3.2.1]octane-1,2,3,4-tetrol
@<TRIPOS>ATOM
      1 C1          0.5232    1.3913   -2.2938 C.3       1 <0>        -0.1544
      2 C2          1.8284    1.4045   -1.4712 C.3       1 <0>        -0.1826
      3 C3          1.3694    1.5566   -0.0027 C.3       1 <0>         0.2882
      4 C4          1.2618    3.0592    0.3030 C.3       1 <0>         0.1458
      5 H1          0.7331    3.2031    1.2452 H         1 <0>         0.0783
      6 C5          0.4879    3.7412   -0.8288 C.3       1 <0>         0.0403
      7 H2          1.0684    3.6857   -1.7497 H         1 <0>         0.0799
      8 C6         -0.8570    3.0378   -1.0325 C.3       1 <0>         0.0825
      9 H3         -1.4819    3.1825   -0.1512 H         1 <0>         0.0799
     10 C7         -0.6058    1.5367   -1.2477 C.3       1 <0>         0.0795
     11 H4         -1.5140    1.0050   -1.5317 H         1 <0>         0.1145
     12 N1         -0.0116    1.0048    0.0076 N.3       1 <0>        -0.6697
     13 O1         -1.5132    3.5825   -2.1791 O.3       1 <0>        -0.5579
     14 O2          0.2615    5.1112   -0.4915 O.3       1 <0>        -0.5610
     15 O3          2.5713    3.6237    0.3954 O.3       1 <0>        -0.5496
     16 O4          2.2287    0.8804    0.9172 O.3       1 <0>        -0.5251
     17 H5          0.4232    0.4484   -2.8314 H         1 <0>         0.0761
     18 H6          0.5041    2.2287   -2.9914 H         1 <0>         0.0848
     19 H7          2.4523    2.2493   -1.7630 H         1 <0>         0.0891
     20 H8          2.3701    0.4680   -1.6042 H         1 <0>         0.0773
     21 H9          0.0021   -0.0041    0.0020 H         1 <0>         0.3522
     22 H10        -1.6946    4.5301   -2.1153 H         1 <0>         0.3806
     23 H11        -0.2249    5.6068   -1.1646 H         1 <0>         0.3826
     24 H12         2.5784    4.5715    0.5869 H         1 <0>         0.3874
     25 H13         2.3170   -0.0677    0.7488 H         1 <0>         0.3812
@<TRIPOS>BOND
     1    1   10 1
     2    1    2 1
     3    1   17 1
     4    1   18 1
     5    2    3 1
     6    2   19 1
     7    2   20 1
     8    3   12 1
     9    3    4 1
    10    3   16 1
    11    4    5 1
    12    4    6 1
    13    4   15 1
    14    6    7 1
    15    6    8 1
    16    6   14 1
    17    8    9 1
    18    8   10 1
    19    8   13 1
    20   10   11 1
    21   10   12 1
    22   12   21 1
    23   13   22 1
    24   14   23 1
    25   15   24 1
    26   16   25 1
@<TRIPOS>MOLECULE
ZINC33375437
   38    39     0     0     0
SMALL
USER_CHARGES
[[(3S,4S,5S,6S)-3,4,5-trihydroxy-6-(hydroxymethyl)tetrahydropyran-2-ylidene]amino] N-phenylcarbamate
@<TRIPOS>ATOM
      1 C1          1.3241    3.7803   -9.6827 C.ar      1 <0>        -0.1336
      2 C2          0.2302    2.9742   -9.9389 C.ar      1 <0>        -0.0991
      3 C3         -0.3598    2.2617   -8.9133 C.ar      1 <0>        -0.1413
      4 C4          0.1470    2.3552   -7.6238 C.ar      1 <0>         0.1648
      5 C5          1.2424    3.1697   -7.3688 C.ar      1 <0>        -0.1238
      6 C6          1.8314    3.8752   -8.3998 C.ar      1 <0>        -0.0972
      7 N1         -0.4485    1.6345   -6.5824 N.am      1 <0>        -0.6595
      8 C7          0.3072    1.1631   -5.5709 C.2       1 <0>         0.6496
      9 O1          1.5163    1.2792   -5.6105 O.2       1 <0>        -0.5099
     10 O2         -0.2771    0.5638   -4.5170 O.3       1 <0>        -0.1171
     11 N2          0.4575    0.1583   -3.6342 N.2       1 <0>        -0.3006
     12 C8         -0.0412   -0.4253   -2.5974 C.2       1 <0>         0.2703
     13 C9          0.8508   -0.9376   -1.4876 C.3       1 <0>         0.1858
     14 H1          0.9461   -2.0328   -1.5252 H         1 <0>         0.1094
     15 C10         0.2853   -0.4446   -0.1496 C.3       1 <0>         0.0956
     16 H2          0.8506   -0.8468    0.7040 H         1 <0>         0.0846
     17 C11        -1.1982   -0.8183   -0.0701 C.3       1 <0>         0.0603
     18 H3         -1.6317   -0.5334    0.8999 H         1 <0>         0.0784
     19 C12        -1.9508   -0.1613   -1.2302 C.3       1 <0>         0.0681
     20 H4         -1.8374    0.9327   -1.2123 H         1 <0>         0.0881
     21 O3         -1.3828   -0.5985   -2.4700 O.3       1 <0>        -0.3274
     22 C13        -3.4264   -0.5618   -1.1749 C.3       1 <0>         0.0921
     23 O4         -4.1485    0.1394   -2.1892 O.3       1 <0>        -0.5907
     24 O5         -1.3373   -2.2380   -0.1548 O.3       1 <0>        -0.5821
     25 O6          0.4265    0.9748   -0.0642 O.3       1 <0>        -0.5726
     26 O7          2.1772   -0.4360   -1.6641 O.3       1 <0>        -0.5623
     27 H5          1.7835    4.3367  -10.4863 H         1 <0>         0.1254
     28 H6         -0.1635    2.9019  -10.9420 H         1 <0>         0.1289
     29 H7         -1.2141    1.6323   -9.1141 H         1 <0>         0.1287
     30 H8          1.6359    3.2482   -6.3661 H         1 <0>         0.1348
     31 H9          2.6861    4.5054   -8.2029 H         1 <0>         0.1278
     32 H10        -1.5334    1.4528   -6.5894 H         1 <0>         0.4454
     33 H11        -3.5188   -1.6452   -1.3415 H         1 <0>         0.0572
     34 H12        -3.8390   -0.3061   -0.1878 H         1 <0>         0.0646
     35 H13        -5.2307   -0.0204   -2.3041 H         1 <0>         0.4154
     36 H14        -2.3366   -2.6961   -0.1150 H         1 <0>         0.4145
     37 H15         0.0747    1.5097    0.8303 H         1 <0>         0.4120
     38 H16         2.9670   -0.7056   -0.9475 H         1 <0>         0.4154
@<TRIPOS>BOND
     1    1    6 ar
     2    1    2 ar
     3    1   27 1
     4    2    3 ar
     5    2   28 1
     6    3    4 ar
     7    3   29 1
     8    4    5 ar
     9    4    7 1
    10    5    6 ar
    11    5   30 1
    12    6   31 1
    13    7    8 am
    14    7   32 1
    15    8    9 2
    16    8   10 1
    17   10   11 1
    18   11   12 2
    19   12   21 1
    20   12   13 1
    21   13   14 1
    22   13   15 1
    23   13   26 1
    24   15   16 1
    25   15   17 1
    26   15   25 1
    27   17   18 1
    28   17   19 1
    29   17   24 1
    30   19   20 1
    31   19   21 1
    32   19   22 1
    33   22   23 1
    34   22   33 1
    35   22   34 1
    36   23   35 1
    37   24   36 1
    38   25   37 1
    39   26   38 1
@<TRIPOS>MOLECULE
ZINC36323386
   38    39     0     0     0
SMALL
USER_CHARGES

@<TRIPOS>ATOM
      1 C1         -0.0153    1.3805    0.0310 C.ar      1 <0>        -0.1322
      2 C2          0.1397    0.2185    0.7645 C.ar      1 <0>        -0.0984
      3 C3          1.3441   -0.4573    0.7440 C.ar      1 <0>        -0.1206
      4 C4          2.3999    0.0314   -0.0141 C.ar      1 <0>         0.1587
      5 C5          2.2411    1.1986   -0.7495 C.ar      1 <0>        -0.1412
      6 C6          1.0342    1.8696   -0.7249 C.ar      1 <0>        -0.0990
      7 N1          3.6217   -0.6507   -0.0365 N.am      1 <0>        -0.6508
      8 C7          3.6448   -1.9950    0.0577 C.2       1 <0>         0.6535
      9 O1          2.6035   -2.6216    0.0649 O.2       1 <0>        -0.5241
     10 O2          4.8210   -2.6434    0.1439 O.3       1 <0>        -0.2007
     11 N2          4.6972   -4.0509    0.2375 N.2       1 <0>        -0.2760
     12 C8          5.7531   -4.7868    0.3256 C.2       1 <0>         0.2779
     13 C9          5.6469   -6.2933    0.4202 C.3       1 <0>         0.1275
     14 H1          4.6264   -6.6045    0.1968 H         1 <0>         0.0991
     15 C10         6.6108   -6.9087   -0.6022 C.3       1 <0>         0.0801
     16 H2          6.2605   -6.6910   -1.6111 H         1 <0>         0.0893
     17 C11         8.0025   -6.3015   -0.4000 C.3       1 <0>         0.0849
     18 H3          8.6947   -6.7292   -1.1253 H         1 <0>         0.0871
     19 C12         7.9290   -4.7851   -0.5970 C.3       1 <0>         0.1094
     20 H4          7.6025   -4.5655   -1.6135 H         1 <0>         0.0930
     21 O3          6.9936   -4.2324    0.3304 O.3       1 <0>        -0.3158
     22 C13         9.3105   -4.1716   -0.3604 C.3       1 <0>         0.0880
     23 O4          9.2685   -2.7744   -0.6573 O.3       1 <0>        -0.5679
     24 O5          8.4604   -6.5890    0.9228 O.3       1 <0>        -0.5328
     25 O6          6.6712   -8.3237   -0.4115 O.3       1 <0>        -0.5414
     26 O7          6.0031   -6.7196    1.7368 O.3       1 <0>        -0.5145
     27 H5         -0.9594    1.9047    0.0451 H         1 <0>         0.1257
     28 H6         -0.6817   -0.1608    1.3541 H         1 <0>         0.1281
     29 H7          1.4646   -1.3646    1.3173 H         1 <0>         0.1359
     30 H8          3.0605    1.5813   -1.3398 H         1 <0>         0.1283
     31 H9          0.9099    2.7772   -1.2969 H         1 <0>         0.1293
     32 H10         4.4519   -0.1561   -0.1200 H         1 <0>         0.4181
     33 H11         9.5974   -4.3132    0.6816 H         1 <0>         0.0726
     34 H12        10.0400   -4.6588   -1.0075 H         1 <0>         0.0720
     35 H13        10.1122   -2.3196   -0.5293 H         1 <0>         0.3868
     36 H14         8.5302   -7.5334    1.1183 H         1 <0>         0.3911
     37 H15         5.8206   -8.7714   -0.5170 H         1 <0>         0.3915
     38 H16         5.4434   -6.3518    2.4342 H         1 <0>         0.3875
@<TRIPOS>BOND
     1    1    6 ar
     2    1    2 ar
     3    1   27 1
     4    2    3 ar
     5    2   28 1
     6    3    4 ar
     7    3   29 1
     8    4    5 ar
     9    4    7 1
    10    5    6 ar
    11    5   30 1
    12    6   31 1
    13    7    8 am
    14    7   32 1
    15    8    9 2
    16    8   10 1
    17   10   11 1
    18   11   12 2
    19   12   21 1
    20   12   13 1
    21   13   14 1
    22   13   15 1
    23   13   26 1
    24   15   16 1
    25   15   17 1
    26   15   25 1
    27   17   18 1
    28   17   19 1
    29   17   24 1
    30   19   20 1
    31   19   21 1
    32   19   22 1
    33   22   23 1
    34   22   33 1
    35   22   34 1
    36   23   35 1
    37   24   36 1
    38   25   37 1
    39   26   38 1
@<TRIPOS>MOLECULE
ZINC36323390
   38    39     0     0     0
SMALL
USER_CHARGES

@<TRIPOS>ATOM
      1 C1         -0.0153    1.3805    0.0310 C.ar      1 <0>        -0.1324
      2 C2          0.1397    0.2185    0.7645 C.ar      1 <0>        -0.0984
      3 C3          1.3441   -0.4573    0.7440 C.ar      1 <0>        -0.1205
      4 C4          2.3999    0.0314   -0.0141 C.ar      1 <0>         0.1590
      5 C5          2.2411    1.1986   -0.7495 C.ar      1 <0>        -0.1415
      6 C6          1.0342    1.8696   -0.7249 C.ar      1 <0>        -0.0990
      7 N1          3.6217   -0.6507   -0.0365 N.am      1 <0>        -0.6512
      8 C7          3.6448   -1.9950    0.0577 C.2       1 <0>         0.6535
      9 O1          2.6035   -2.6216    0.0649 O.2       1 <0>        -0.5231
     10 O2          4.8210   -2.6434    0.1439 O.3       1 <0>        -0.2006
     11 N2          4.6972   -4.0509    0.2375 N.2       1 <0>        -0.2791
     12 C8          5.7531   -4.7868    0.3256 C.2       1 <0>         0.2794
     13 C9          5.6469   -6.2933    0.4202 C.3       1 <0>         0.1267
     14 H1          5.9193   -6.6185    1.4242 H         1 <0>         0.1162
     15 C10         6.6108   -6.9087   -0.6022 C.3       1 <0>         0.0847
     16 H2          6.2605   -6.6910   -1.6111 H         1 <0>         0.0853
     17 C11         8.0025   -6.3015   -0.4000 C.3       1 <0>         0.0843
     18 H3          8.6947   -6.7292   -1.1253 H         1 <0>         0.0974
     19 C12         7.9290   -4.7851   -0.5970 C.3       1 <0>         0.1072
     20 H4          7.6025   -4.5655   -1.6135 H         1 <0>         0.0965
     21 O3          6.9936   -4.2324    0.3304 O.3       1 <0>        -0.3184
     22 C13         9.3105   -4.1716   -0.3604 C.3       1 <0>         0.0879
     23 O4          9.2685   -2.7744   -0.6573 O.3       1 <0>        -0.5670
     24 O5          8.4604   -6.5890    0.9228 O.3       1 <0>        -0.5476
     25 O6          6.6712   -8.3237   -0.4115 O.3       1 <0>        -0.5502
     26 O7          4.3088   -6.7012    0.1282 O.3       1 <0>        -0.5426
     27 H5         -0.9594    1.9047    0.0451 H         1 <0>         0.1256
     28 H6         -0.6817   -0.1608    1.3541 H         1 <0>         0.1281
     29 H7          1.4646   -1.3646    1.3173 H         1 <0>         0.1360
     30 H8          3.0605    1.5813   -1.3398 H         1 <0>         0.1281
     31 H9          0.9099    2.7772   -1.2969 H         1 <0>         0.1292
     32 H10         4.4519   -0.1561   -0.1200 H         1 <0>         0.4178
     33 H11         9.5974   -4.3132    0.6816 H         1 <0>         0.0726
     34 H12        10.0400   -4.6588   -1.0075 H         1 <0>         0.0732
     35 H13        10.1122   -2.3196   -0.5293 H         1 <0>         0.3874
     36 H14         8.5302   -7.5334    1.1183 H         1 <0>         0.3939
     37 H15         5.8206   -8.7714   -0.5170 H         1 <0>         0.3996
     38 H16         3.6456   -6.3323    0.7275 H         1 <0>         0.4017
@<TRIPOS>BOND
     1    1    6 ar
     2    1    2 ar
     3    1   27 1
     4    2    3 ar
     5    2   28 1
     6    3    4 ar
     7    3   29 1
     8    4    5 ar
     9    4    7 1
    10    5    6 ar
    11    5   30 1
    12    6   31 1
    13    7    8 am
    14    7   32 1
    15    8    9 2
    16    8   10 1
    17   10   11 1
    18   11   12 2
    19   12   21 1
    20   12   13 1
    21   13   14 1
    22   13   15 1
    23   13   26 1
    24   15   16 1
    25   15   17 1
    26   15   25 1
    27   17   18 1
    28   17   19 1
    29   17   24 1
    30   19   20 1
    31   19   21 1
    32   19   22 1
    33   22   23 1
    34   22   33 1
    35   22   34 1
    36   23   35 1
    37   24   36 1
    38   25   37 1
    39   26   38 1
@<TRIPOS>MOLECULE
ZINC36323394
   38    39     0     0     0
SMALL
USER_CHARGES

@<TRIPOS>ATOM
      1 C1         -0.0153    1.3805    0.0310 C.ar      1 <0>        -0.1327
      2 C2          0.1397    0.2185    0.7645 C.ar      1 <0>        -0.0985
      3 C3          1.3441   -0.4573    0.7440 C.ar      1 <0>        -0.1208
      4 C4          2.3999    0.0314   -0.0141 C.ar      1 <0>         0.1595
      5 C5          2.2411    1.1986   -0.7495 C.ar      1 <0>        -0.1416
      6 C6          1.0342    1.8696   -0.7249 C.ar      1 <0>        -0.0989
      7 N1          3.6217   -0.6507   -0.0365 N.am      1 <0>        -0.6514
      8 C7          3.6448   -1.9950    0.0577 C.2       1 <0>         0.6539
      9 O1          2.6035   -2.6216    0.0649 O.2       1 <0>        -0.5252
     10 O2          4.8210   -2.6434    0.1439 O.3       1 <0>        -0.2012
     11 N2          4.6972   -4.0509    0.2375 N.2       1 <0>        -0.2793
     12 C8          5.7531   -4.7868    0.3256 C.2       1 <0>         0.2862
     13 C9          5.6469   -6.2933    0.4202 C.3       1 <0>         0.1271
     14 H1          4.6264   -6.6045    0.1968 H         1 <0>         0.0995
     15 C10         6.6108   -6.9087   -0.6022 C.3       1 <0>         0.0775
     16 H2          6.6584   -7.9878   -0.4553 H         1 <0>         0.0966
     17 C11         8.0025   -6.3015   -0.4000 C.3       1 <0>         0.0840
     18 H3          8.6947   -6.7292   -1.1253 H         1 <0>         0.0898
     19 C12         7.9290   -4.7851   -0.5970 C.3       1 <0>         0.1133
     20 H4          7.6025   -4.5655   -1.6135 H         1 <0>         0.0989
     21 O3          6.9936   -4.2324    0.3304 O.3       1 <0>        -0.3185
     22 C13         9.3105   -4.1716   -0.3604 C.3       1 <0>         0.0859
     23 O4          9.2685   -2.7744   -0.6573 O.3       1 <0>        -0.5673
     24 O5          8.4604   -6.5890    0.9228 O.3       1 <0>        -0.5281
     25 O6          6.1501   -6.6256   -1.9249 O.3       1 <0>        -0.5475
     26 O7          6.0031   -6.7196    1.7368 O.3       1 <0>        -0.5236
     27 H5         -0.9594    1.9047    0.0451 H         1 <0>         0.1255
     28 H6         -0.6817   -0.1608    1.3541 H         1 <0>         0.1279
     29 H7          1.4646   -1.3646    1.3173 H         1 <0>         0.1358
     30 H8          3.0605    1.5813   -1.3398 H         1 <0>         0.1282
     31 H9          0.9099    2.7772   -1.2969 H         1 <0>         0.1291
     32 H10         4.4519   -0.1561   -0.1200 H         1 <0>         0.4180
     33 H11         9.5974   -4.3132    0.6816 H         1 <0>         0.0699
     34 H12        10.0400   -4.6588   -1.0075 H         1 <0>         0.0701
     35 H13        10.1122   -2.3196   -0.5293 H         1 <0>         0.3852
     36 H14         8.5302   -7.5334    1.1183 H         1 <0>         0.3856
     37 H15         5.2694   -6.9752   -2.1180 H         1 <0>         0.3939
     38 H16         5.4434   -6.3518    2.4342 H         1 <0>         0.3934
@<TRIPOS>BOND
     1    1    6 ar
     2    1    2 ar
     3    1   27 1
     4    2    3 ar
     5    2   28 1
     6    3    4 ar
     7    3   29 1
     8    4    5 ar
     9    4    7 1
    10    5    6 ar
    11    5   30 1
    12    6   31 1
    13    7    8 am
    14    7   32 1
    15    8    9 2
    16    8   10 1
    17   10   11 1
    18   11   12 2
    19   12   21 1
    20   12   13 1
    21   13   14 1
    22   13   15 1
    23   13   26 1
    24   15   16 1
    25   15   17 1
    26   15   25 1
    27   17   18 1
    28   17   19 1
    29   17   24 1
    30   19   20 1
    31   19   21 1
    32   19   22 1
    33   22   23 1
    34   22   33 1
    35   22   34 1
    36   23   35 1
    37   24   36 1
    38   25   37 1
    39   26   38 1
@<TRIPOS>MOLECULE
ZINC16052012
   22    22     0     0     0
SMALL
USER_CHARGES

@<TRIPOS>ATOM
      1 C1         -0.0127    1.0858    0.0080 C.3       1 <0>         0.0332
      2 H1          0.0021   -0.0041    0.0020 H         1 <0>         0.0905
      3 C2         -0.6154    1.6125    1.3341 C.3       1 <0>         0.0386
      4 H2         -1.4383    0.9780    1.6633 H         1 <0>         0.0884
      5 C3          0.5793    1.5151    2.3150 C.3       1 <0>         0.1006
      6 H3          0.6897    0.4945    2.6816 H         1 <0>         0.0993
      7 C4          1.8013    1.9183    1.4641 C.3       1 <0>         0.0281
      8 C5          1.4249    1.6453   -0.0027 C.3       1 <0>         0.1071
      9 H4          2.1075    0.9127   -0.4332 H         1 <0>         0.0857
     10 O1          1.4719    2.8598   -0.7543 O.3       1 <0>        -0.5335
     11 N1          2.9674    1.1094    1.8433 N.4       1 <0>        -0.6295
     12 O2          0.4055    2.4212    3.4063 O.3       1 <0>        -0.5407
     13 O3         -1.0487    2.9667    1.1908 O.3       1 <0>        -0.5284
     14 O4         -0.7504    1.5809   -1.1112 O.3       1 <0>        -0.5450
     15 H5          2.0198    2.9771    1.6027 H         1 <0>         0.1750
     16 H6          1.2238    2.7573   -1.6833 H         1 <0>         0.4092
     17 H7          2.7639    0.1332    1.6897 H         1 <0>         0.4323
     18 H8          3.7612    1.3798    1.2820 H         1 <0>         0.4434
     19 H9         -0.3815    2.2471    3.9405 H         1 <0>         0.4077
     20 H10        -1.7424    3.0897    0.5284 H         1 <0>         0.3933
     21 H11        -1.6701    1.2833   -1.1389 H         1 <0>         0.3988
     22 H12         3.1782    1.2596    2.8185 H         1 <0>         0.4458
@<TRIPOS>BOND
     1    1    2 1
     2    1    8 1
     3    1    3 1
     4    1   14 1
     5    3    4 1
     6    3    5 1
     7    3   13 1
     8    5    6 1
     9    5    7 1
    10    5   12 1
    11    7    8 1
    12    7   11 1
    13    7   15 1
    14    8    9 1
    15    8   10 1
    16   10   16 1
    17   11   17 1
    18   11   18 1
    19   11   22 1
    20   12   19 1
    21   13   20 1
    22   14   21 1
@<TRIPOS>MOLECULE
ZINC26577522
   22    22     0     0     0
SMALL
USER_CHARGES

@<TRIPOS>ATOM
      1 C1         -0.0127    1.0858    0.0080 C.3       1 <0>         0.0380
      2 H1          0.0021   -0.0041    0.0020 H         1 <0>         0.0874
      3 C2         -0.6154    1.6125    1.3341 C.3       1 <0>         0.0407
      4 H2         -0.2943    0.9981    2.1752 H         1 <0>         0.0969
      5 C3         -0.0203    3.0388    1.4373 C.3       1 <0>         0.0998
      6 H3         -0.0110    3.3741    2.4744 H         1 <0>         0.1048
      7 C4          1.4201    2.8870    0.9061 C.3       1 <0>         0.0422
      8 C5          1.4249    1.6453   -0.0027 C.3       1 <0>         0.0950
      9 H4          1.7087    1.9261   -1.0170 H         1 <0>         0.0959
     10 O1          2.3342    0.6684    0.5080 O.3       1 <0>        -0.5462
     11 N1          1.7995    4.0775    0.1335 N.4       1 <0>        -0.6199
     12 O2         -0.7624    3.9504    0.6248 O.3       1 <0>        -0.5622
     13 O3         -2.0417    1.6591    1.2588 O.3       1 <0>        -0.5496
     14 O4         -0.7504    1.5809   -1.1112 O.3       1 <0>        -0.5442
     15 H5          2.1113    2.7445    1.7367 H         1 <0>         0.1698
     16 H6          2.3668   -0.1474   -0.0101 H         1 <0>         0.4090
     17 H7          1.7485    4.8930    0.7256 H         1 <0>         0.4432
     18 H8          2.7421    3.9694   -0.2096 H         1 <0>         0.4374
     19 H9         -1.6907    4.0393    0.8807 H         1 <0>         0.4204
     20 H10        -2.4563    0.7975    1.1143 H         1 <0>         0.3987
     21 H11        -1.6701    1.2833   -1.1389 H         1 <0>         0.3974
     22 H12         1.1683    4.1878   -0.6460 H         1 <0>         0.4454
@<TRIPOS>BOND
     1    1    2 1
     2    1    8 1
     3    1    3 1
     4    1   14 1
     5    3    4 1
     6    3    5 1
     7    3   13 1
     8    5    6 1
     9    5    7 1
    10    5   12 1
    11    7    8 1
    12    7   11 1
    13    7   15 1
    14    8    9 1
    15    8   10 1
    16   10   16 1
    17   11   17 1
    18   11   18 1
    19   11   22 1
    20   12   19 1
    21   13   20 1
    22   14   21 1
@<TRIPOS>MOLECULE
ZINC34173976
   22    22     0     0     0
SMALL
USER_CHARGES

@<TRIPOS>ATOM
      1 C1         -0.0127    1.0858    0.0080 C.3       1 <0>         0.0350
      2 H1          0.0021   -0.0041    0.0020 H         1 <0>         0.0973
      3 C2         -0.6406    1.6266   -1.3006 C.3       1 <0>         0.0382
      4 H2         -0.9659    2.6593   -1.1749 H         1 <0>         0.0986
      5 C3          0.5352    1.5399   -2.3051 C.3       1 <0>         0.0927
      6 H3          0.3880    2.2416   -3.1262 H         1 <0>         0.1088
      7 C4          1.7732    1.9341   -1.4734 C.3       1 <0>         0.0501
      8 C5          1.4249    1.6453   -0.0027 C.3       1 <0>         0.0923
      9 H4          1.4717    2.5655    0.5797 H         1 <0>         0.1131
     10 O1          2.3303    0.6789    0.5342 O.3       1 <0>        -0.5758
     11 N1          2.9319    1.1294   -1.8834 N.4       1 <0>        -0.6116
     12 O2          0.6686    0.2079   -2.8050 O.3       1 <0>        -0.5672
     13 O3         -1.7302    0.8018   -1.7181 O.3       1 <0>        -0.5510
     14 O4         -0.7289    1.5688    1.1464 O.3       1 <0>        -0.5538
     15 H5          1.9892    2.9943   -1.6048 H         1 <0>         0.1684
     16 H6          2.1496    0.4387    1.4533 H         1 <0>         0.4213
     17 H7          3.1240    1.2901   -2.8608 H         1 <0>         0.4374
     18 H8          3.7362    1.3939   -1.3346 H         1 <0>         0.4406
     19 H9         -0.1066   -0.1107   -3.2874 H         1 <0>         0.4228
     20 H10        -2.4585    0.7610   -1.0832 H         1 <0>         0.3994
     21 H11        -1.6479    1.2708    1.1884 H         1 <0>         0.3962
     22 H12         2.7312    0.1516   -1.7365 H         1 <0>         0.4472
@<TRIPOS>BOND
     1    1    2 1
     2    1    8 1
     3    1    3 1
     4    1   14 1
     5    3    4 1
     6    3    5 1
     7    3   13 1
     8    5    6 1
     9    5    7 1
    10    5   12 1
    11    7    8 1
    12    7   11 1
    13    7   15 1
    14    8    9 1
    15    8   10 1
    16   10   16 1
    17   11   17 1
    18   11   18 1
    19   11   22 1
    20   12   19 1
    21   13   20 1
    22   14   21 1
@<TRIPOS>MOLECULE
ZINC34173977
   22    22     0     0     0
SMALL
USER_CHARGES

@<TRIPOS>ATOM
      1 C1         -0.0127    1.0858    0.0080 C.3       1 <0>         0.0399
      2 H1          0.0021   -0.0041    0.0020 H         1 <0>         0.0980
      3 C2         -0.6380    1.6245   -1.2953 C.3       1 <0>         0.0410
      4 H2         -1.1959    2.5385   -1.0918 H         1 <0>         0.0923
      5 C3          0.5292    1.9215   -2.2529 C.3       1 <0>         0.1011
      6 H3          0.5379    2.9797   -2.5142 H         1 <0>         0.0929
      7 C4          1.8232    1.5529   -1.4981 C.3       1 <0>         0.0363
      8 C5          1.4307    1.6476   -0.0028 C.3       1 <0>         0.0979
      9 H4          2.0895    1.0316    0.6093 H         1 <0>         0.1094
     10 O1          1.4487    3.0060    0.4406 O.3       1 <0>        -0.5663
     11 N1          2.8916    2.5114   -1.8109 N.4       1 <0>        -0.6236
     12 O2          0.4074    1.1269   -3.4344 O.3       1 <0>        -0.5448
     13 O3         -1.5028    0.6406   -1.8664 O.3       1 <0>        -0.5486
     14 O4         -0.7289    1.5688    1.1464 O.3       1 <0>        -0.5534
     15 H5          2.1344    0.5385   -1.7473 H         1 <0>         0.1737
     16 H6          1.1339    3.1282    1.3467 H         1 <0>         0.4228
     17 H7          2.6035    3.4381   -1.5347 H         1 <0>         0.4425
     18 H8          3.7295    2.2563   -1.3100 H         1 <0>         0.4418
     19 H9         -0.3977    1.2978   -3.9420 H         1 <0>         0.4103
     20 H10        -2.2475    0.3954   -1.3005 H         1 <0>         0.3954
     21 H11        -1.6479    1.2708    1.1884 H         1 <0>         0.4001
     22 H12         3.0755    2.4980   -2.8029 H         1 <0>         0.4412
@<TRIPOS>BOND
     1    1    2 1
     2    1    8 1
     3    1    3 1
     4    1   14 1
     5    3    4 1
     6    3    5 1
     7    3   13 1
     8    5    6 1
     9    5    7 1
    10    5   12 1
    11    7    8 1
    12    7   11 1
    13    7   15 1
    14    8    9 1
    15    8   10 1
    16   10   16 1
    17   11   17 1
    18   11   18 1
    19   11   22 1
    20   12   19 1
    21   13   20 1
    22   14   21 1
