@<TRIPOS>MOLECULE
ZINC17995199
   21    22     0     0     0
SMALL
USER_CHARGES
(1S,2R,3S,4S,5R,6R)-7-oxabicyclo[4.1.0]heptane-2,3,4,5-tetrol
@<TRIPOS>ATOM
      1 C1          0.0021   -0.0041    0.0020 C.3       1 <0>         0.1307
      2 H1          0.5448   -0.3468   -0.8913 H         1 <0>         0.0625
      3 C2         -0.0184    1.5083    0.0103 C.3       1 <0>         0.1056
      4 H2         -0.5525    1.8518    0.9085 H         1 <0>         0.0674
      5 C3          1.3684    2.1160    0.0004 C.3       1 <0>         0.0651
      6 H3          1.7959    2.0230   -1.0089 H         1 <0>         0.0743
      7 C4          2.2950    1.4541    1.0093 C.3       1 <0>        -0.0246
      8 H4          2.5901    2.4098    1.4671 H         1 <0>         0.1620
      9 C5          1.9775    0.0758    1.5659 C.3       1 <0>        -0.0309
     10 H5          1.9884   -0.4053    2.5550 H         1 <0>         0.1590
     11 C6          0.6592   -0.5911    1.2332 C.3       1 <0>         0.1094
     12 H6         -0.0232   -0.4844    2.0893 H         1 <0>         0.0854
     13 O1          0.8893   -1.9843    1.0135 O.3       1 <0>        -0.5769
     14 O2          2.9574    0.2866    0.5592 O.3       1 <0>        -0.2985
     15 O3          1.2668    3.5078    0.3079 O.3       1 <0>        -0.5885
     16 O4         -0.7299    1.9656   -1.1415 O.3       1 <0>        -0.5924
     17 O5         -1.3425   -0.4824   -0.0721 O.3       1 <0>        -0.5802
     18 H7          1.3624   -2.5939    1.7974 H         1 <0>         0.4124
     19 H8          2.1733    4.1295    0.3494 H         1 <0>         0.4182
     20 H9         -0.8559    3.0440   -1.3179 H         1 <0>         0.4228
     21 H10        -1.9930   -0.1686   -0.9018 H         1 <0>         0.4172
@<TRIPOS>BOND
     1    1    2 1
     2    1   11 1
     3    1    3 1
     4    1   17 1
     5    3    4 1
     6    3    5 1
     7    3   16 1
     8    5    6 1
     9    5    7 1
    10    5   15 1
    11    7    8 1
    12    7   14 1
    13    7    9 1
    14    9   10 1
    15    9   11 1
    16    9   14 1
    17   11   12 1
    18   11   13 1
    19   13   18 1
    20   15   19 1
    21   16   20 1
    22   17   21 1
