@<TRIPOS>MOLECULE
ZINC02560264
   37    42     0     0     0
SMALL
USER_CHARGES

@<TRIPOS>ATOM
      1 C1         -0.0166    1.3740    0.0096 C.ar      1 <0>        -0.1440
      2 C2          1.1716    2.0886    0.0021 C.ar      1 <0>        -0.0817
      3 C3          2.3839    1.4333   -0.0130 C.ar      1 <0>        -0.1381
      4 C4          2.4234    0.0421   -0.0208 C.ar      1 <0>         0.1368
      5 C5          1.2204   -0.6789   -0.0132 C.ar      1 <0>        -0.0962
      6 C6          0.0021   -0.0041    0.0020 C.ar      1 <0>        -0.0609
      7 C7          1.5891   -2.1077   -0.0244 C.ar      1 <0>        -0.0649
      8 C8          0.8454   -3.2819   -0.0236 C.ar      1 <0>        -0.0450
      9 C9          1.4816   -4.5185   -0.0365 C.ar      1 <0>        -0.1358
     10 C10         2.8940   -4.5714   -0.0501 C.ar      1 <0>        -0.0059
     11 C11         3.8569   -5.6841   -0.0662 C.ar      1 <0>        -0.1090
     12 C12         3.7202   -7.0720   -0.0736 C.ar      1 <0>        -0.0448
     13 C13         4.8431   -7.8694   -0.0897 C.ar      1 <0>        -0.1554
     14 C14         6.1070   -7.2977   -0.0979 C.ar      1 <0>        -0.0739
     15 C15         6.2575   -5.9282   -0.0907 C.ar      1 <0>        -0.1504
     16 C16         5.1356   -5.1043   -0.0750 C.ar      1 <0>         0.1441
     17 N1          4.9880   -3.7311   -0.0653 N.pl3     1 <0>        -0.6105
     18 H1          5.7195   -3.0941   -0.0687 H         1 <0>         0.4165
     19 C17         3.6443   -3.3949   -0.0504 C.ar      1 <0>         0.1138
     20 C18         2.9910   -2.1538   -0.0381 C.ar      1 <0>         0.1603
     21 N2          3.4713   -0.8601   -0.0356 N.pl3     1 <0>        -0.6071
     22 H2          4.4105   -0.6179   -0.0435 H         1 <0>         0.4182
     23 C19         0.4534   -5.5701   -0.0322 C.2       1 <0>         0.5671
     24 O1          0.6821   -6.7645   -0.0405 O.2       1 <0>        -0.5235
     25 N3         -0.7748   -5.0244   -0.0172 N.am      1 <0>        -0.7239
     26 C20        -0.6370   -3.5635   -0.0107 C.3       1 <0>         0.1438
     27 H3         -0.9602    1.8992    0.0259 H         1 <0>         0.1299
     28 H4          1.1469    3.1683    0.0077 H         1 <0>         0.1312
     29 H5          3.3035    1.9995   -0.0190 H         1 <0>         0.1253
     30 H6         -0.9246   -0.5587    0.0075 H         1 <0>         0.1280
     31 H7          2.7375   -7.5198   -0.0665 H         1 <0>         0.1456
     32 H8          4.7391   -8.9443   -0.0955 H         1 <0>         0.1286
     33 H9          6.9811   -7.9319   -0.1098 H         1 <0>         0.1300
     34 H10         7.2462   -5.4938   -0.0972 H         1 <0>         0.1240
     35 H11        -1.6120   -5.5143   -0.0117 H         1 <0>         0.4271
     36 H12        -1.0897   -3.1483    0.8897 H         1 <0>         0.1004
     37 H13        -1.1071   -3.1386   -0.8976 H         1 <0>         0.1004
@<TRIPOS>BOND
     1    1    6 ar
     2    1    2 ar
     3    1   27 1
     4    2    3 ar
     5    2   28 1
     6    3    4 ar
     7    3   29 1
     8    4   21 1
     9    4    5 ar
    10    5    6 ar
    11    5    7 1
    12    6   30 1
    13    7   20 ar
    14    7    8 ar
    15    8   26 1
    16    8    9 ar
    17    9   10 ar
    18    9   23 1
    19   10   19 ar
    20   10   11 1
    21   11   16 ar
    22   11   12 ar
    23   12   13 ar
    24   12   31 1
    25   13   14 ar
    26   13   32 1
    27   14   15 ar
    28   14   33 1
    29   15   16 ar
    30   15   34 1
    31   16   17 1
    32   17   18 1
    33   17   19 1
    34   19   20 ar
    35   20   21 1
    36   21   22 1
    37   23   24 2
    38   23   25 am
    39   25   26 1
    40   25   35 1
    41   26   36 1
    42   26   37 1
@<TRIPOS>MOLECULE
ZINC14855753
   38    43     0     0     0
SMALL
USER_CHARGES
dihydroxyBLAHdione
@<TRIPOS>ATOM
      1 C1         -0.0168    1.3874    0.0097 C.ar      1 <0>        -0.1709
      2 C2          1.1635    2.0964    0.0022 C.ar      1 <0>        -0.0288
      3 C3          2.3810    1.4165   -0.0130 C.ar      1 <0>        -0.1156
      4 C4          2.4042    0.0122   -0.0208 C.ar      1 <0>         0.1627
      5 C5          1.2042   -0.6896   -0.0131 C.ar      1 <0>        -0.1741
      6 C6          0.0021   -0.0041    0.0020 C.ar      1 <0>         0.1548
      7 O1         -1.1680   -0.6945    0.0099 O.3       1 <0>        -0.4951
      8 N1          3.7235   -0.4015   -0.0356 N.pl3     1 <0>        -0.6052
      9 H1          4.0141   -1.3269   -0.0428 H         1 <0>         0.4215
     10 C7          4.5690    0.6920   -0.0378 C.ar      1 <0>         0.1476
     11 C8          3.7855    1.8583   -0.0241 C.ar      1 <0>        -0.0069
     12 C9          4.3965    3.1181   -0.0223 C.ar      1 <0>        -0.1086
     13 C10         5.8005    3.2156   -0.0356 C.ar      1 <0>        -0.1087
     14 C11         6.5797    2.0524   -0.0497 C.ar      1 <0>        -0.0069
     15 C12         5.9649    0.7890   -0.0506 C.ar      1 <0>         0.1476
     16 N2          6.9535   -0.1770   -0.0652 N.pl3     1 <0>        -0.6052
     17 H2          6.7936   -1.1337   -0.0691 H         1 <0>         0.4215
     18 C13         8.2029    0.4152   -0.0740 C.ar      1 <0>         0.1627
     19 C14         8.0317    1.8092   -0.0649 C.ar      1 <0>        -0.1157
     20 C15         9.1435    2.6510   -0.0707 C.ar      1 <0>        -0.0288
     21 C16        10.4104    2.1123   -0.0853 C.ar      1 <0>        -0.1709
     22 C17        10.5840    0.7316   -0.0943 C.ar      1 <0>         0.1548
     23 C18         9.4883   -0.1136   -0.0887 C.ar      1 <0>        -0.1741
     24 O2         11.8383    0.2096   -0.1082 O.3       1 <0>        -0.4951
     25 C19         6.1059    4.6565   -0.0302 C.2       1 <0>         0.5843
     26 O3          7.2183    5.1457   -0.0377 O.2       1 <0>        -0.4583
     27 N3          4.9477    5.3403   -0.0147 N.am      1 <0>        -0.6805
     28 C20         3.8950    4.5030   -0.0092 C.2       1 <0>         0.5844
     29 O4          2.7257    4.8338    0.0039 O.2       1 <0>        -0.4583
     30 H3         -0.9603    1.9129    0.0170 H         1 <0>         0.1386
     31 H4          1.1464    3.1763    0.0078 H         1 <0>         0.1478
     32 H5          1.2100   -1.7695   -0.0193 H         1 <0>         0.1339
     33 H6         -1.5155   -0.8897   -0.8711 H         1 <0>         0.3965
     34 H7          9.0110    3.7228   -0.0640 H         1 <0>         0.1478
     35 H8         11.2721    2.7633   -0.0901 H         1 <0>         0.1386
     36 H9          9.6319   -1.1840   -0.0954 H         1 <0>         0.1339
     37 H10        12.1935    0.0630   -0.9956 H         1 <0>         0.3966
     38 H11         4.8806    6.3080   -0.0091 H         1 <0>         0.4323
@<TRIPOS>BOND
     1    1    6 ar
     2    1    2 ar
     3    1   30 1
     4    2    3 ar
     5    2   31 1
     6    3   11 1
     7    3    4 ar
     8    4    5 ar
     9    4    8 1
    10    5    6 ar
    11    5   32 1
    12    6    7 1
    13    7   33 1
    14    8    9 1
    15    8   10 1
    16   10   15 ar
    17   10   11 ar
    18   11   12 ar
    19   12   28 1
    20   12   13 ar
    21   13   14 ar
    22   13   25 1
    23   14   19 1
    24   14   15 ar
    25   15   16 1
    26   16   17 1
    27   16   18 1
    28   18   23 ar
    29   18   19 ar
    30   19   20 ar
    31   20   21 ar
    32   20   34 1
    33   21   22 ar
    34   21   35 1
    35   22   23 ar
    36   22   24 1
    37   23   36 1
    38   24   37 1
    39   25   26 2
    40   25   27 am
    41   27   28 am
    42   27   38 1
    43   28   29 2
