@<TRIPOS>MOLECULE
ZINC28951019
   36    37     0     0     0
SMALL
USER_CHARGES
N-tert-butyl-6,7-dichloro-3-methylsulfonyl-quinoxalin-2-amine
@<TRIPOS>ATOM
      1 C1         -5.6286    3.5674    1.1293 C.3       1 <0>        -0.1664
      2 C2         -4.6503    3.4050   -0.0358 C.3       1 <0>         0.1751
      3 C3         -4.2678    4.7842   -0.5765 C.3       1 <0>        -0.1610
      4 C4         -5.3117    2.5871   -1.1469 C.3       1 <0>        -0.1709
      5 N1         -3.4466    2.7122    0.4302 N.pl3     1 <0>        -0.7007
      6 C5         -3.5443    1.4365    0.9660 C.ar      1 <0>         0.4445
      7 C6         -2.4066    0.8234    1.5201 C.ar      1 <0>        -0.4971
      8 N2         -2.4810   -0.3797    2.0359 N.ar      1 <0>        -0.2706
      9 C7         -3.6483   -1.0359    2.0318 C.ar      1 <0>         0.0036
     10 C8         -3.7539   -2.3258    2.5790 C.ar      1 <0>        -0.0132
     11 C9         -4.9533   -2.9709    2.5623 C.ar      1 <0>        -0.0548
     12 C10        -6.0839   -2.3681    2.0085 C.ar      1 <0>         0.0250
     13 C11        -6.0170   -1.1191    1.4693 C.ar      1 <0>        -0.0994
     14 C12        -4.7959   -0.4242    1.4693 C.ar      1 <0>         0.1978
     15 N3         -4.7027    0.8051    0.9467 N.ar      1 <0>        -0.4953
     16 Cl1        -7.5953   -3.2220    2.0063 Cl        1 <0>        -0.0244
     17 Cl2        -5.0778   -4.5644    3.2397 Cl        1 <0>        -0.0304
     18 S1         -0.8684    1.6828    1.5277 S.o2      1 <0>         2.5021
     19 O1         -0.0729    0.9938    2.4825 O.2       1 <0>        -0.9005
     20 O2         -1.2160    3.0466    1.7233 O.2       1 <0>        -0.9227
     21 C13        -0.1922    1.4431   -0.1384 C.3       1 <0>        -0.6511
     22 H1         -5.9036    2.5758    1.5181 H         1 <0>         0.0753
     23 H2         -6.5324    4.0877    0.7794 H         1 <0>         0.0685
     24 H3         -5.1531    4.1555    1.9281 H         1 <0>         0.0578
     25 H4         -3.5644    4.6675   -1.4142 H         1 <0>         0.0637
     26 H5         -3.7923    5.3722    0.2223 H         1 <0>         0.0692
     27 H6         -5.1716    5.3044   -0.9264 H         1 <0>         0.0794
     28 H7         -4.6083    2.4704   -1.9845 H         1 <0>         0.0527
     29 H8         -6.2155    3.1074   -1.4968 H         1 <0>         0.0668
     30 H9         -5.5868    1.5955   -0.7581 H         1 <0>         0.0883
     31 H10        -2.4653    3.2036    0.3552 H         1 <0>         0.4377
     32 H11        -2.8874   -2.8038    3.0114 H         1 <0>         0.1638
     33 H12        -6.8993   -0.6646    1.0434 H         1 <0>         0.1624
     34 H13         0.7785    1.9545   -0.2172 H         1 <0>         0.1481
     35 H14        -0.8883    1.8614   -0.8803 H         1 <0>         0.1336
     36 H15        -0.0567    0.3681   -0.3279 H         1 <0>         0.1429
@<TRIPOS>BOND
     1    1    2 1
     2    1   22 1
     3    1   23 1
     4    1   24 1
     5    2    3 1
     6    2    4 1
     7    2    5 1
     8    3   25 1
     9    3   26 1
    10    3   27 1
    11    4   28 1
    12    4   29 1
    13    4   30 1
    14    5    6 1
    15    5   31 1
    16    6   15 ar
    17    6    7 ar
    18    7    8 ar
    19    7   18 1
    20    8    9 ar
    21    9   14 ar
    22    9   10 ar
    23   10   11 ar
    24   10   32 1
    25   11   12 ar
    26   11   17 1
    27   12   13 ar
    28   12   16 1
    29   13   14 ar
    30   13   33 1
    31   14   15 ar
    32   18   19 2
    33   18   20 2
    34   18   21 1
    35   21   34 1
    36   21   35 1
    37   21   36 1
