@<TRIPOS>MOLECULE
ZINC03779708
   53    55     0     0     0
SMALL
USER_CHARGES
N'-(6,7-dichloro-3-styryl-quinoxalin-2-yl)-N,N,N'-trimethyl-propane-1,3-diamine
@<TRIPOS>ATOM
      1 C1          6.2443    7.4226    3.4105 C.3       1 <0>        -0.0427
      2 C2          6.1319    7.5984    0.9982 C.3       1 <0>        -0.0474
      3 C3          5.5298    5.5229    2.0901 C.3       1 <0>        -0.0054
      4 C4          4.5857    5.1003    0.9626 C.3       1 <0>        -0.1495
      5 C5          4.5745    3.5744    0.8519 C.3       1 <0>         0.0599
      6 N1          3.6681    3.1687   -0.2306 N.pl3     1 <0>        -0.4768
      7 C6          4.1765    3.6100   -1.5362 C.3       1 <0>         0.0198
      8 C7          3.4595    1.8004   -0.2163 C.ar      1 <0>         0.2858
      9 C8          2.1187    1.2636    0.0205 C.ar      1 <0>         0.1944
     10 N2          1.9317   -0.0468    0.0379 N.ar      1 <0>        -0.4257
     11 C9          2.9643   -0.8710   -0.1709 C.ar      1 <0>         0.1026
     12 C10         2.7745   -2.2652   -0.1595 C.ar      1 <0>        -0.0614
     13 C11         3.8340   -3.0949   -0.3677 C.ar      1 <0>        -0.0118
     14 C12         5.1114   -2.5809   -0.5941 C.ar      1 <0>        -0.0171
     15 C13         5.3310   -1.2363   -0.6117 C.ar      1 <0>        -0.0594
     16 C14         4.2617   -0.3499   -0.4004 C.ar      1 <0>         0.0883
     17 N3          4.4673    0.9752   -0.4153 N.ar      1 <0>        -0.4483
     18 Cl1         6.4385   -3.6691   -0.8562 Cl        1 <0>        -0.0232
     19 Cl2         3.5923   -4.8139   -0.3518 Cl        1 <0>        -0.0205
     20 C15         0.9868    2.1746    0.2438 C.2       1 <0>        -0.1325
     21 C16        -0.2606    1.6834    0.3520 C.2       1 <0>        -0.0290
     22 C17        -1.3955    2.5968    0.5697 C.ar      1 <0>        -0.0787
     23 C18        -1.1787    3.9736    0.6759 C.ar      1 <0>        -0.1032
     24 C19        -2.2469    4.8230    0.8739 C.ar      1 <0>        -0.1241
     25 C20        -3.5297    4.3144    0.9790 C.ar      1 <0>        -0.1058
     26 C21        -3.7516    2.9519    0.8807 C.ar      1 <0>        -0.1195
     27 C22        -2.6941    2.0905    0.6769 C.ar      1 <0>        -0.0930
     28 H1          7.2741    7.0667    3.3806 H         1 <0>         0.1230
     29 H2          6.2374    8.5112    3.4644 H         1 <0>         0.1235
     30 H3          5.7433    7.0122    4.2873 H         1 <0>         0.1221
     31 H4          5.5494    7.3159    0.1213 H         1 <0>         0.1220
     32 H5          6.1275    8.6833    1.1033 H         1 <0>         0.1235
     33 H6          7.1577    7.2489    0.8809 H         1 <0>         0.1233
     34 H7          5.1871    5.0928    3.0312 H         1 <0>         0.1315
     35 H8          6.5369    5.1669    1.8733 H         1 <0>         0.1319
     36 H9          4.9284    5.5304    0.0215 H         1 <0>         0.0919
     37 H10         3.5786    5.4563    1.1794 H         1 <0>         0.0999
     38 H11         4.2318    3.1443    1.7931 H         1 <0>         0.0869
     39 H12         5.5816    3.2184    0.6351 H         1 <0>         0.0634
     40 H13         3.5012    3.2721   -2.3222 H         1 <0>         0.0785
     41 H14         4.2382    4.6982   -1.5531 H         1 <0>         0.0810
     42 H15         5.1675    3.1874   -1.7020 H         1 <0>         0.0502
     43 H16         1.7909   -2.6762    0.0138 H         1 <0>         0.1636
     44 H17         6.3252   -0.8527   -0.7874 H         1 <0>         0.1586
     45 H18         1.1569    3.2383    0.3210 H         1 <0>         0.1460
     46 H19        -0.4307    0.6196    0.2748 H         1 <0>         0.1355
     47 H20        -0.1776    4.3715    0.5989 H         1 <0>         0.1250
     48 H21        -2.0816    5.8875    0.9513 H         1 <0>         0.1243
     49 H22        -4.3618    4.9841    1.1382 H         1 <0>         0.1259
     50 H23        -4.7553    2.5623    0.9640 H         1 <0>         0.1285
     51 H24        -2.8688    1.0275    0.6000 H         1 <0>         0.1289
     52 N4          5.5134    6.9969    2.1983 N.4       1 <0>        -0.3971
     53 H25         4.5397    7.3154    2.2669 H         1 <0>         0.4321
@<TRIPOS>BOND
     1    1   28 1
     2    1   29 1
     3    1   30 1
     4    1   52 1
     5    2   31 1
     6    2   32 1
     7    2   33 1
     8    2   52 1
     9    3    4 1
    10    3   34 1
    11    3   35 1
    12    3   52 1
    13    4    5 1
    14    4   36 1
    15    4   37 1
    16    5    6 1
    17    5   38 1
    18    5   39 1
    19    6    7 1
    20    6    8 1
    21    7   40 1
    22    7   41 1
    23    7   42 1
    24    8   17 ar
    25    8    9 ar
    26    9   10 ar
    27    9   20 1
    28   10   11 ar
    29   11   16 ar
    30   11   12 ar
    31   12   13 ar
    32   12   43 1
    33   13   14 ar
    34   13   19 1
    35   14   15 ar
    36   14   18 1
    37   15   16 ar
    38   15   44 1
    39   16   17 ar
    40   20   21 2
    41   20   45 1
    42   21   22 1
    43   21   46 1
    44   22   27 ar
    45   22   23 ar
    46   23   24 ar
    47   23   47 1
    48   24   25 ar
    49   24   48 1
    50   25   26 ar
    51   25   49 1
    52   26   27 ar
    53   26   50 1
    54   27   51 1
    55   52   53 1
