@<TRIPOS>MOLECULE
ZINC04245650
   53    58     0     0     0
SMALL
USER_CHARGES

@<TRIPOS>ATOM
      1 C1          0.1201    0.7816   -2.9630 C.3       1 <0>        -0.1341
      2 C2          0.1859   -0.6957   -2.5730 C.3       1 <0>        -0.1824
      3 H1          0.9654   -1.2009   -3.1441 H         1 <0>         0.1400
      4 C3         -1.1586   -1.3642   -2.8248 C.2       1 <0>         0.4844
      5 O1         -1.5495   -1.8240   -3.8717 O.2       1 <0>        -0.4143
      6 O2         -1.8236   -1.3494   -1.6477 O.3       1 <0>        -0.3351
      7 C4         -0.8630   -1.6347   -0.6125 C.3       1 <0>         0.0551
      8 H2         -1.2110   -1.3722    0.3863 H         1 <0>         0.1608
      9 C5          0.4065   -0.8436   -1.0541 C.3       1 <0>         0.1231
     10 C6          1.5998   -1.7515   -0.7657 C.3       1 <0>         0.0665
     11 C7          2.4199   -1.2618    0.3978 C.2       1 <0>         0.5032
     12 O3          3.3854   -0.5463    0.3176 O.2       1 <0>        -0.4051
     13 O4          1.9032   -1.7631    1.5305 O.3       1 <0>        -0.3214
     14 C8          1.1676   -2.9737    1.2947 C.3       1 <0>         0.1023
     15 H3          0.2092   -2.9840    1.8220 H         1 <0>         0.1425
     16 C9          1.0043   -3.0850   -0.2280 C.3       1 <0>        -0.1077
     17 C10        -0.4245   -3.1192   -0.7290 C.3       1 <0>        -0.1131
     18 C11         1.9793   -4.1458   -0.7239 C.3       1 <0>        -0.0924
     19 C12         2.9657   -4.3598    0.4238 C.3       1 <0>        -0.0720
     20 H4          3.7306   -3.5767    0.4097 H         1 <0>         0.0917
     21 C13         2.0643   -4.1811    1.6784 C.3       1 <0>        -0.1336
     22 C14         3.6289   -5.7252    0.4107 C.3       1 <0>        -0.0580
     23 C15         4.2291   -5.9874   -0.9720 C.3       1 <0>        -0.1655
     24 C16         4.7382   -5.7635    1.4638 C.3       1 <0>        -0.1425
     25 C17         2.5879   -6.8008    0.7271 C.3       1 <0>        -0.1747
     26 C18         1.3352   -5.3741   -1.3364 C.3       1 <0>         0.0564
     27 H5          1.9896   -6.2418   -1.3057 H         1 <0>         0.1426
     28 C19         1.1554   -4.9570   -2.7935 C.2       1 <0>         0.4481
     29 O5          0.2817   -5.3261   -3.5301 O.2       1 <0>        -0.4108
     30 O6          2.1452   -4.1072   -3.0970 O.3       1 <0>        -0.3381
     31 C20         2.6847   -3.4737   -1.9303 C.3       1 <0>         0.2453
     32 H6          3.7672   -3.6293   -1.8764 H         1 <0>         0.1649
     33 O7          2.3589   -2.0824   -1.9157 O.3       1 <0>        -0.3109
     34 O8          0.0796   -5.6881   -0.7421 O.3       1 <0>        -0.5230
     35 O9          0.5225    0.4215   -0.4000 O.3       1 <0>        -0.5205
     36 H7          1.0753    1.2584   -2.7430 H         1 <0>         0.0867
     37 H8         -0.0917    0.8670   -4.0288 H         1 <0>         0.0754
     38 H9         -0.6703    1.2724   -2.3950 H         1 <0>         0.0637
     39 H10        -1.0375   -3.7436   -0.0787 H         1 <0>         0.1239
     40 H11        -0.4724   -3.4588   -1.7574 H         1 <0>         0.0877
     41 H12         2.6650   -3.9582    2.5579 H         1 <0>         0.1005
     42 H13         1.4607   -5.0742    1.8390 H         1 <0>         0.1106
     43 H14         4.9707   -5.2211   -1.1975 H         1 <0>         0.0651
     44 H15         4.7052   -6.9678   -0.9814 H         1 <0>         0.0730
     45 H16         3.4388   -5.9601   -1.7223 H         1 <0>         0.0528
     46 H17         4.3106   -5.5767    2.4488 H         1 <0>         0.0620
     47 H18         5.2143   -6.7439    1.4543 H         1 <0>         0.0640
     48 H19         5.4798   -4.9972    1.2383 H         1 <0>         0.0590
     49 H20         1.6626   -6.5785    0.1956 H         1 <0>         0.0791
     50 H21         2.9635   -7.7741    0.4113 H         1 <0>         0.0622
     51 H22         2.3959   -6.8162    1.8000 H         1 <0>         0.0667
     52 H23        -0.3492   -6.4690   -1.1182 H         1 <0>         0.3993
     53 H24        -0.2460    0.9966   -0.5169 H         1 <0>         0.3968
@<TRIPOS>BOND
     1    1    2 1
     2    1   36 1
     3    1   37 1
     4    1   38 1
     5    2    3 1
     6    2    9 1
     7    2    4 1
     8    4    5 2
     9    4    6 1
    10    6    7 1
    11    7    8 1
    12    7   17 1
    13    7    9 1
    14    9   10 1
    15    9   35 1
    16   10   16 1
    17   10   33 1
    18   10   11 1
    19   11   12 2
    20   11   13 1
    21   13   14 1
    22   14   15 1
    23   14   21 1
    24   14   16 1
    25   16   17 1
    26   16   18 1
    27   17   39 1
    28   17   40 1
    29   18   31 1
    30   18   19 1
    31   18   26 1
    32   19   20 1
    33   19   21 1
    34   19   22 1
    35   21   41 1
    36   21   42 1
    37   22   23 1
    38   22   24 1
    39   22   25 1
    40   23   43 1
    41   23   44 1
    42   23   45 1
    43   24   46 1
    44   24   47 1
    45   24   48 1
    46   25   49 1
    47   25   50 1
    48   25   51 1
    49   26   27 1
    50   26   28 1
    51   26   34 1
    52   28   29 2
    53   28   30 1
    54   30   31 1
    55   31   32 1
    56   31   33 1
    57   34   52 1
    58   35   53 1
@<TRIPOS>MOLECULE
ZINC08552017
   54    59     0     0     0
SMALL
USER_CHARGES
trihydroxy-methyl-tert-butyl-BLAHtrione
@<TRIPOS>ATOM
      1 C1         -8.4621   -0.9705    1.0432 C.3       1 <0>        -0.1423
      2 C2         -6.9316   -0.9351    1.0934 C.3       1 <0>        -0.1819
      3 H1         -6.5366   -0.6751    0.1112 H         1 <0>         0.1443
      4 C3         -6.3933   -2.2758    1.5369 C.2       1 <0>         0.5005
      5 O1         -6.4782   -3.2988    0.8932 O.2       1 <0>        -0.4377
      6 O2         -5.8057   -2.1718    2.7296 O.3       1 <0>        -0.3216
      7 C4         -5.9300   -0.8402    3.2936 C.3       1 <0>         0.0199
      8 H2         -6.6018   -0.8388    4.1652 H         1 <0>         0.1367
      9 C5         -6.4549    0.0699    2.1612 C.3       1 <0>         0.1191
     10 C6         -5.2670    0.8697    1.6390 C.3       1 <0>         0.0662
     11 C7         -5.5666    2.3472    1.6185 C.2       1 <0>         0.5144
     12 O3         -6.2676    2.8955    0.7935 O.2       1 <0>        -0.4153
     13 O4         -4.9513    2.9596    2.6323 O.3       1 <0>        -0.3159
     14 C8         -3.9000    2.1328    3.2110 C.3       1 <0>         0.1143
     15 H3         -3.8980    2.1708    4.2962 H         1 <0>         0.1567
     16 C9         -4.1125    0.7177    2.6564 C.3       1 <0>        -0.0855
     17 C10        -4.5324   -0.3147    3.6763 C.3       1 <0>         0.1301
     18 H4         -3.8441   -1.1640    3.6842 H         1 <0>         0.0994
     19 O5         -4.5802    0.2512    4.9899 O.3       1 <0>        -0.5369
     20 C11        -2.8923    0.3779    1.7988 C.3       1 <0>        -0.0856
     21 C12        -2.2352    1.6943    1.4474 C.3       1 <0>        -0.0668
     22 H5         -2.6913    2.1034    0.5436 H         1 <0>         0.0966
     23 C13        -2.5508    2.6243    2.6397 C.3       1 <0>        -0.1423
     24 C14        -0.7288    1.5792    1.2668 C.3       1 <0>        -0.0597
     25 C15        -0.4240    0.5781    0.1507 C.3       1 <0>        -0.1630
     26 C16        -0.0940    1.0963    2.5725 C.3       1 <0>        -0.1628
     27 C17        -0.1537    2.9476    0.8956 C.3       1 <0>        -0.1426
     28 C18        -2.0221   -0.7560    2.2991 C.3       1 <0>         0.0559
     29 H6         -1.0575   -0.7956    1.7784 H         1 <0>         0.1384
     30 C19        -2.8006   -2.0018    1.8901 C.2       1 <0>         0.4484
     31 O6         -2.5644   -3.1253    2.2643 O.2       1 <0>        -0.4175
     32 O7         -3.7930   -1.6468    1.0474 O.3       1 <0>        -0.3546
     33 C20        -3.5547   -0.2921    0.5513 C.3       1 <0>         0.2345
     34 H7         -2.9204   -0.2662   -0.3293 H         1 <0>         0.1796
     35 O8         -4.7903    0.4143    0.3759 O.3       1 <0>        -0.2903
     36 O9         -1.7989   -0.7011    3.7021 O.3       1 <0>        -0.5144
     37 O10        -7.5199    0.9301    2.5975 O.3       1 <0>        -0.5173
     38 H8         -8.8521   -1.2273    2.0281 H         1 <0>         0.0601
     39 H9         -8.8386    0.0087    0.7472 H         1 <0>         0.0879
     40 H10        -8.7846   -1.7180    0.3184 H         1 <0>         0.0819
     41 H11        -4.8451   -0.3743    5.6782 H         1 <0>         0.3931
     42 H12        -1.7764    2.5376    3.3939 H         1 <0>         0.1116
     43 H13        -2.6500    3.6481    2.2927 H         1 <0>         0.0996
     44 H14        -0.9979   -0.3341    0.3141 H         1 <0>         0.0475
     45 H15         0.6404    0.3432    0.1540 H         1 <0>         0.0719
     46 H16        -0.6973    1.0119   -0.8112 H         1 <0>         0.0683
     47 H17         0.9254    1.4756    2.6429 H         1 <0>         0.0609
     48 H18        -0.6772    1.4628    3.4173 H         1 <0>         0.0785
     49 H19        -0.0781    0.0066    2.5874 H         1 <0>         0.0614
     50 H20        -0.6060    3.2916   -0.0345 H         1 <0>         0.0589
     51 H21        -0.3709    3.6608    1.6908 H         1 <0>         0.0626
     52 H22         0.9254    2.8652    0.7663 H         1 <0>         0.0632
     53 H23        -1.2448   -1.4177    4.0405 H         1 <0>         0.3967
     54 H24        -8.2929    0.4582    2.9363 H         1 <0>         0.3947
@<TRIPOS>BOND
     1    1    2 1
     2    1   38 1
     3    1   39 1
     4    1   40 1
     5    2    3 1
     6    2    9 1
     7    2    4 1
     8    4    5 2
     9    4    6 1
    10    6    7 1
    11    7    8 1
    12    7   17 1
    13    7    9 1
    14    9   10 1
    15    9   37 1
    16   10   16 1
    17   10   35 1
    18   10   11 1
    19   11   12 2
    20   11   13 1
    21   13   14 1
    22   14   15 1
    23   14   23 1
    24   14   16 1
    25   16   17 1
    26   16   20 1
    27   17   18 1
    28   17   19 1
    29   19   41 1
    30   20   33 1
    31   20   21 1
    32   20   28 1
    33   21   22 1
    34   21   23 1
    35   21   24 1
    36   23   42 1
    37   23   43 1
    38   24   25 1
    39   24   26 1
    40   24   27 1
    41   25   44 1
    42   25   45 1
    43   25   46 1
    44   26   47 1
    45   26   48 1
    46   26   49 1
    47   27   50 1
    48   27   51 1
    49   27   52 1
    50   28   29 1
    51   28   30 1
    52   28   36 1
    53   30   31 2
    54   30   32 1
    55   32   33 1
    56   33   34 1
    57   33   35 1
    58   36   53 1
    59   37   54 1
