@<TRIPOS>MOLECULE
ZINC19796130
   20    21     0     0     0
SMALL
USER_CHARGES

@<TRIPOS>ATOM
      1 C1         -0.0168    1.3873    0.0097 C.ar      1 <0>        -0.1736
      2 C2          1.1692    2.0908    0.0021 C.ar      1 <0>         0.0367
      3 C3          2.3892    1.4254   -0.0135 C.ar      1 <0>        -0.1663
      4 C4          2.4321    0.0486   -0.0218 C.ar      1 <0>         0.0638
      5 C5          1.2385   -0.6785   -0.0139 C.ar      1 <0>        -0.2058
      6 C6          0.0021   -0.0041    0.0020 C.ar      1 <0>         0.2316
      7 N1         -1.1676   -0.7266    0.0088 N.pl3     1 <0>        -0.5818
      8 H1         -2.0149   -0.2546    0.0194 H         1 <0>         0.4278
      9 C7         -1.1664   -2.0925    0.0006 C.2       1 <0>         0.1417
     10 C8         -0.0188   -2.8151   -0.0138 C.2       1 <0>        -0.2806
     11 C9          1.2392   -2.1492   -0.0222 C.2       1 <0>         0.4127
     12 O1          2.2837   -2.7778   -0.0360 O.2       1 <0>        -0.4868
     13 C10        -2.4631   -2.8092    0.0081 C.2       1 <0>         0.5240
     14 O2         -2.4860   -4.0311    0.0010 O.co2     1 <0>        -0.6455
     15 O3         -3.5098   -2.1784    0.0215 O.co2     1 <0>        -0.6718
     16 Cl1         3.9586   -0.7779   -0.0425 Cl        1 <0>        -0.0235
     17 Cl2         1.1379    3.8265    0.0117 Cl        1 <0>        -0.0561
     18 H2         -0.9588    1.9154    0.0260 H         1 <0>         0.1482
     19 H3          3.3091    1.9912   -0.0196 H         1 <0>         0.1458
     20 H4         -0.0593   -3.8944   -0.0192 H         1 <0>         0.1596
@<TRIPOS>BOND
     1    1    6 ar
     2    1    2 ar
     3    1   18 1
     4    2    3 ar
     5    2   17 1
     6    3    4 ar
     7    3   19 1
     8    4    5 ar
     9    4   16 1
    10    5   11 1
    11    5    6 ar
    12    6    7 1
    13    7    8 1
    14    7    9 1
    15    9   10 2
    16    9   13 1
    17   10   11 1
    18   10   20 1
    19   11   12 2
    20   13   14 2
    21   13   15 1
@<TRIPOS>MOLECULE
ZINC04658552
   10     9     0     0     0
SMALL
USER_CHARGES

@<TRIPOS>ATOM
      1 C1         -0.0184    1.5028    0.0103 C.3       1 <0>        -0.0856
      2 C2          0.0021   -0.0041    0.0020 C.2       1 <0>         0.4796
      3 O1          1.0661   -0.5992   -0.0113 O.co2     1 <0>        -0.6772
      4 O2         -1.0454   -0.6280    0.0087 O.co2     1 <0>        -0.6399
      5 N1          1.3598    2.0112   -0.0001 N.4       1 <0>        -0.6124
      6 H1         -0.5455    1.8639   -0.8728 H         1 <0>         0.1272
      7 H2         -0.5286    1.8543    0.9071 H         1 <0>         0.1272
      8 H3          1.8478    1.6770    0.8173 H         1 <0>         0.4322
      9 H4          1.8321    1.6858   -0.8303 H         1 <0>         0.4322
     10 H5          1.3461    3.0201    0.0054 H         1 <0>         0.4167
@<TRIPOS>BOND
     1    1    2 1
     2    1    5 1
     3    1    6 1
     4    1    7 1
     5    2    3 2
     6    2    4 1
     7    5    8 1
     8    5    9 1
     9    5   10 1
