@<TRIPOS>MOLECULE
ZINC06716969
   61    64     0     0     0
SMALL
USER_CHARGES
3-(2-amino-2-phenyl-ethyl)-1-[(2,6-difluorophenyl)methyl]-5-(2-fluoro-3-methoxy-phenyl)-6-methyl-pyrimidine-2,4-dione
@<TRIPOS>ATOM
      1 C1         -2.2959    4.3007   -0.3759 C.3       1 <0>        -0.1440
      2 C2         -1.0623    3.4632   -0.1568 C.2       1 <0>         0.2414
      3 C3         -1.1622    2.1079   -0.0500 C.2       1 <0>        -0.2390
      4 C4          0.0668    1.3336    0.1681 C.2       1 <0>         0.5474
      5 O1          0.0263    0.1216    0.2739 O.2       1 <0>        -0.5034
      6 N1          1.2425    1.9921    0.2431 N.am      1 <0>        -0.5731
      7 C5          1.2791    3.3310    0.1244 C.2       1 <0>         0.6861
      8 O2          2.3506    3.9014    0.1951 O.2       1 <0>        -0.4980
      9 N2          0.1654    4.0558   -0.0697 N.am      1 <0>        -0.5177
     10 C6          0.2693    5.5120   -0.1911 C.3       1 <0>         0.1449
     11 C7          0.4413    5.8843   -1.6412 C.ar      1 <0>        -0.2041
     12 C8          1.6925    5.8181   -2.2295 C.ar      1 <0>         0.1500
     13 C9          1.8482    6.1545   -3.5638 C.ar      1 <0>        -0.1682
     14 C10         0.7572    6.5679   -4.3046 C.ar      1 <0>        -0.0421
     15 C11        -0.4915    6.6398   -3.7167 C.ar      1 <0>        -0.1621
     16 C12        -0.6508    6.2980   -2.3843 C.ar      1 <0>         0.1483
     17 F1         -1.8716    6.3679   -1.8100 F         1 <0>        -0.1217
     18 F2          2.7603    5.4203   -1.5038 F         1 <0>        -0.1080
     19 C13         2.4846    1.2447    0.4544 C.3       1 <0>         0.0904
     20 C14         3.0812    0.8539   -0.8991 C.3       1 <0>         0.0789
     21 H1          3.3745    1.7535   -1.4403 H         1 <0>         0.1530
     22 C15         4.2907   -0.0185   -0.6819 C.ar      1 <0>        -0.1459
     23 C16         4.1319   -1.3618   -0.3970 C.ar      1 <0>        -0.1156
     24 C17         5.2414   -2.1629   -0.2021 C.ar      1 <0>        -0.1046
     25 C18         6.5096   -1.6187   -0.2826 C.ar      1 <0>        -0.0852
     26 C19         6.6683   -0.2744   -0.5628 C.ar      1 <0>        -0.1062
     27 C20         5.5589    0.5258   -0.7620 C.ar      1 <0>        -0.0796
     28 C21        -2.4792    1.4328   -0.1457 C.ar      1 <0>        -0.0193
     29 C22        -3.1012    1.2854   -1.3849 C.ar      1 <0>        -0.1157
     30 C23        -4.3265    0.6564   -1.4714 C.ar      1 <0>        -0.0840
     31 C24        -4.9415    0.1705   -0.3318 C.ar      1 <0>        -0.1716
     32 C25        -4.3306    0.3119    0.9056 C.ar      1 <0>         0.1022
     33 C26        -3.0968    0.9384    1.0024 C.ar      1 <0>         0.0923
     34 F3         -2.4976    1.0731    2.2058 F         1 <0>        -0.1252
     35 O3         -4.9388   -0.1681    2.0228 O.3       1 <0>        -0.3072
     36 C27        -6.2053   -0.8065    1.8485 C.3       1 <0>         0.0235
     37 H2         -2.4655    4.4248   -1.4454 H         1 <0>         0.1121
     38 H3         -3.1563    3.8047    0.0733 H         1 <0>         0.1042
     39 H4         -2.1581    5.2783    0.0859 H         1 <0>         0.0972
     40 H5         -0.6379    5.9746    0.1977 H         1 <0>         0.1239
     41 H6          1.1293    5.8637    0.3788 H         1 <0>         0.1283
     42 H7          2.8234    6.0980   -4.0244 H         1 <0>         0.1479
     43 H8          0.8805    6.8346   -5.3439 H         1 <0>         0.1513
     44 H9         -1.3434    6.9629   -4.2966 H         1 <0>         0.1516
     45 H10         3.1950    1.8670    0.9986 H         1 <0>         0.1484
     46 H11         2.2733    0.3447    1.0318 H         1 <0>         0.1304
     47 H12         3.1410   -1.7861   -0.3300 H         1 <0>         0.1232
     48 H13         5.1174   -3.2133    0.0165 H         1 <0>         0.1376
     49 H14         7.3764   -2.2439   -0.1270 H         1 <0>         0.1375
     50 H15         7.6591    0.1508   -0.6258 H         1 <0>         0.1391
     51 H16         5.6829    1.5762   -0.9806 H         1 <0>         0.1367
     52 H17         2.4273   -0.0968   -2.6041 H         1 <0>         0.4410
     53 H18         1.7915   -0.7223   -1.2004 H         1 <0>         0.4406
     54 H19        -2.6242    1.6637   -2.2770 H         1 <0>         0.1325
     55 H20        -4.8065    0.5428   -2.4321 H         1 <0>         0.1392
     56 H21        -5.9004   -0.3208   -0.4057 H         1 <0>         0.1436
     57 H22        -6.5792   -1.1421    2.8158 H         1 <0>         0.1087
     58 H23        -6.9111   -0.1003    1.4113 H         1 <0>         0.0619
     59 H24        -6.0917   -1.6642    1.1855 H         1 <0>         0.0609
     60 N3          2.0613    0.1339   -1.6819 N.4       1 <0>        -0.6436
     61 H25         1.2340    0.7324   -1.7899 H         1 <0>         0.4290
@<TRIPOS>BOND
     1    1    2 1
     2    1   37 1
     3    1   38 1
     4    1   39 1
     5    2    9 1
     6    2    3 2
     7    3    4 1
     8    3   28 1
     9    4    5 2
    10    4    6 am
    11    6    7 am
    12    6   19 1
    13    7    8 2
    14    7    9 am
    15    9   10 1
    16   10   11 1
    17   10   40 1
    18   10   41 1
    19   11   16 ar
    20   11   12 ar
    21   12   13 ar
    22   12   18 1
    23   13   14 ar
    24   13   42 1
    25   14   15 ar
    26   14   43 1
    27   15   16 ar
    28   15   44 1
    29   16   17 1
    30   19   20 1
    31   19   45 1
    32   19   46 1
    33   20   21 1
    34   20   22 1
    35   20   60 1
    36   22   27 ar
    37   22   23 ar
    38   23   24 ar
    39   23   47 1
    40   24   25 ar
    41   24   48 1
    42   25   26 ar
    43   25   49 1
    44   26   27 ar
    45   26   50 1
    46   27   51 1
    47   28   33 ar
    48   28   29 ar
    49   29   30 ar
    50   29   54 1
    51   30   31 ar
    52   30   55 1
    53   31   32 ar
    54   31   56 1
    55   32   33 ar
    56   32   35 1
    57   33   34 1
    58   35   36 1
    59   36   57 1
    60   36   58 1
    61   36   59 1
    62   52   60 1
    63   53   60 1
    64   60   61 1
@<TRIPOS>MOLECULE
ZINC35923465
   68    73     0     0     0
SMALL
USER_CHARGES

@<TRIPOS>ATOM
      1 C1         -0.0187    1.5258    0.0104 C.3       1 <0>        -0.1399
      2 C2          0.0021   -0.0041    0.0020 C.3       1 <0>        -0.0330
      3 C3          0.7421   -0.5109    1.2415 C.3       1 <0>        -0.1400
      4 C4         -1.4333   -0.5336    0.0129 C.3       1 <0>        -0.1471
      5 C5          0.7074   -0.4901   -1.2379 C.ar      1 <0>        -0.0514
      6 C6          0.0327   -1.2849   -2.1473 C.ar      1 <0>        -0.1208
      7 C7          0.6729   -1.7334   -3.2842 C.ar      1 <0>        -0.0652
      8 C8          2.0037   -1.3835   -3.5159 C.ar      1 <0>        -0.0350
      9 C9          2.6784   -0.5812   -2.5949 C.ar      1 <0>        -0.0996
     10 C10         2.0252   -0.1349   -1.4646 C.ar      1 <0>        -0.1136
     11 C11         2.6963   -1.8613   -4.7323 C.2       1 <0>         0.3203
     12 N1          3.9979   -1.5854   -5.0581 N.pl3     1 <0>        -0.5983
     13 H1          4.6200   -1.0504   -4.5407 H         1 <0>         0.4215
     14 C12         4.2591   -2.2118   -6.2610 C.ar      1 <0>         0.0575
     15 C13         5.3795   -2.2966   -7.0783 C.ar      1 <0>        -0.1201
     16 C14         5.3243   -3.0198   -8.2508 C.ar      1 <0>        -0.0895
     17 C15         4.1560   -3.6667   -8.6256 C.ar      1 <0>        -0.1364
     18 C16         3.0289   -3.5956   -7.8280 C.ar      1 <0>         0.2275
     19 C17         3.0707   -2.8631   -6.6299 C.ar      1 <0>         0.0438
     20 N2          2.1593   -2.6168   -5.6579 N.2       1 <0>        -0.4644
     21 N3          1.8559   -4.2490   -8.2106 N.pl3     1 <0>        -0.6713
     22 C18         0.8508   -3.5703   -9.0427 C.3       1 <0>         0.1563
     23 C19        -0.5173   -3.7136   -8.3675 C.3       1 <0>         0.0421
     24 N4         -0.7843   -5.1342   -8.1059 N.3       1 <0>        -0.5277
     25 C20         0.1951   -5.6962   -7.1663 C.3       1 <0>         0.0363
     26 C21         1.5953   -5.6362   -7.7974 C.3       1 <0>         0.1574
     27 C22        -2.1556   -5.3309   -7.6171 C.3       1 <0>         0.0905
     28 C23        -2.4742   -6.8036   -7.5939 C.ar      1 <0>        -0.0510
     29 C24        -3.0298   -7.4040   -8.7228 C.ar      1 <0>        -0.0750
     30 C25        -3.3287   -8.7313   -8.7346 C.ar      1 <0>        -0.0847
     31 C26        -3.0752   -9.5128   -7.5937 C.ar      1 <0>         0.0786
     32 C27        -2.5101   -8.9022   -6.4455 C.ar      1 <0>         0.0801
     33 C28        -2.2102   -7.5289   -6.4734 C.ar      1 <0>        -0.0799
     34 N5         -2.2668   -9.6405   -5.3575 N.ar      1 <0>        -0.4256
     35 C29        -2.5533  -10.9225   -5.3632 C.ar      1 <0>         0.0746
     36 C30        -3.1094  -11.5239   -6.4940 C.ar      1 <0>         0.0742
     37 N6         -3.3577  -10.8197   -7.5748 N.ar      1 <0>        -0.4252
     38 H2          1.0039    1.9031    0.0027 H         1 <0>         0.0574
     39 H3         -0.5459    1.8868   -0.8726 H         1 <0>         0.0575
     40 H4         -0.5289    1.8773    0.9072 H         1 <0>         0.0612
     41 H5          0.2319   -0.1594    2.1383 H         1 <0>         0.0612
     42 H6          0.7568   -1.6008    1.2356 H         1 <0>         0.0576
     43 H7          1.7647   -0.1336    1.2338 H         1 <0>         0.0574
     44 H8         -1.9605   -0.1726   -0.8702 H         1 <0>         0.0601
     45 H9         -1.4185   -1.6235    0.0069 H         1 <0>         0.0602
     46 H10        -1.9435   -0.1821    0.9097 H         1 <0>         0.0609
     47 H11        -0.9973   -1.5550   -1.9668 H         1 <0>         0.1343
     48 H12         0.1454   -2.3544   -3.9930 H         1 <0>         0.1354
     49 H13         3.7086   -0.3071   -2.7684 H         1 <0>         0.1190
     50 H14         2.5450    0.4897   -0.7531 H         1 <0>         0.1280
     51 H15         6.2935   -1.7957   -6.7953 H         1 <0>         0.1230
     52 H16         6.1978   -3.0827   -8.8828 H         1 <0>         0.1326
     53 H17         4.1264   -4.2295   -9.5469 H         1 <0>         0.1310
     54 H18         1.1046   -2.5143   -9.1353 H         1 <0>         0.0688
     55 H19         0.8217   -4.0307  -10.0303 H         1 <0>         0.0580
     56 H20        -0.5177   -3.1640   -7.4262 H         1 <0>         0.0438
     57 H21        -1.2904   -3.3130   -9.0233 H         1 <0>         0.0781
     58 H22         0.1848   -5.1191   -6.2417 H         1 <0>         0.0439
     59 H23        -0.0612   -6.7335   -6.9509 H         1 <0>         0.0782
     60 H24         1.6364   -6.2914   -8.6675 H         1 <0>         0.0570
     61 H25         2.3415   -5.9468   -7.0661 H         1 <0>         0.0673
     62 H26        -2.2441   -4.9240   -6.6098 H         1 <0>         0.0477
     63 H27        -2.8541   -4.8184   -8.2787 H         1 <0>         0.0893
     64 H28        -3.2262   -6.8066   -9.6009 H         1 <0>         0.1379
     65 H29        -3.7592   -9.1824   -9.6164 H         1 <0>         0.1408
     66 H30        -1.7755   -7.0510   -5.6080 H         1 <0>         0.1361
     67 H31        -2.3564  -11.5178   -4.4839 H         1 <0>         0.1750
     68 H32        -3.3379  -12.5793   -6.4799 H         1 <0>         0.1752
@<TRIPOS>BOND
     1    1    2 1
     2    1   38 1
     3    1   39 1
     4    1   40 1
     5    2    3 1
     6    2    4 1
     7    2    5 1
     8    3   41 1
     9    3   42 1
    10    3   43 1
    11    4   44 1
    12    4   45 1
    13    4   46 1
    14    5   10 ar
    15    5    6 ar
    16    6    7 ar
    17    6   47 1
    18    7    8 ar
    19    7   48 1
    20    8    9 ar
    21    8   11 1
    22    9   10 ar
    23    9   49 1
    24   10   50 1
    25   11   20 2
    26   11   12 1
    27   12   13 1
    28   12   14 1
    29   14   19 ar
    30   14   15 ar
    31   15   16 ar
    32   15   51 1
    33   16   17 ar
    34   16   52 1
    35   17   18 ar
    36   17   53 1
    37   18   19 ar
    38   18   21 1
    39   19   20 1
    40   21   26 1
    41   21   22 1
    42   22   23 1
    43   22   54 1
    44   22   55 1
    45   23   24 1
    46   23   56 1
    47   23   57 1
    48   24   25 1
    49   24   27 1
    50   25   26 1
    51   25   58 1
    52   25   59 1
    53   26   60 1
    54   26   61 1
    55   27   28 1
    56   27   62 1
    57   27   63 1
    58   28   33 ar
    59   28   29 ar
    60   29   30 ar
    61   29   64 1
    62   30   31 ar
    63   30   65 1
    64   31   37 ar
    65   31   32 ar
    66   32   33 ar
    67   32   34 ar
    68   33   66 1
    69   34   35 ar
    70   35   36 ar
    71   35   67 1
    72   36   37 ar
    73   36   68 1
@<TRIPOS>MOLECULE
ZINC35923465
   69    74     0     0     0
SMALL
USER_CHARGES

@<TRIPOS>ATOM
      1 C1         -0.0187    1.5258    0.0104 C.3       1 <0>        -0.1403
      2 C2          0.0021   -0.0041    0.0020 C.3       1 <0>        -0.0351
      3 C3          0.7421   -0.5109    1.2415 C.3       1 <0>        -0.1402
      4 C4         -1.4333   -0.5336    0.0129 C.3       1 <0>        -0.1497
      5 C5          0.7074   -0.4901   -1.2379 C.ar      1 <0>        -0.0422
      6 C6          0.0327   -1.2848   -2.1473 C.ar      1 <0>        -0.1174
      7 C7          0.6729   -1.7330   -3.2844 C.ar      1 <0>        -0.0606
      8 C8          2.0035   -1.3831   -3.5161 C.ar      1 <0>        -0.0474
      9 C9          2.6784   -0.5813   -2.5950 C.ar      1 <0>        -0.1000
     10 C10         2.0252   -0.1349   -1.4646 C.ar      1 <0>        -0.1148
     11 C11         2.6961   -1.8605   -4.7329 C.2       1 <0>         0.3383
     12 N1          2.1566   -2.6110   -5.6621 N.2       1 <0>        -0.4727
     13 C12         3.0688   -2.8617   -6.6323 C.ar      1 <0>         0.0600
     14 C13         3.0260   -3.5919   -7.8266 C.ar      1 <0>        -0.0496
     15 C14         4.1339   -3.6674   -8.6214 C.ar      1 <0>        -0.1207
     16 C15         5.3106   -3.0272   -8.2607 C.ar      1 <0>        -0.0893
     17 C16         5.3796   -2.2990   -7.0845 C.ar      1 <0>         0.1463
     18 C17         4.2570   -2.2113   -6.2624 C.ar      1 <0>         0.0494
     19 N2          3.9943   -1.5804   -5.0607 N.pl3     1 <0>        -0.5967
     20 N3          6.5677   -1.6558   -6.7239 N.pl3     1 <0>        -0.6741
     21 C18         7.5854   -2.3447   -5.9152 C.3       1 <0>         0.1173
     22 C19         7.9673   -1.4384   -4.7402 C.3       1 <0>        -0.0239
     23 N4          8.3849   -0.1266   -5.2507 N.4       1 <0>        -0.3792
     24 C20         7.2529    0.5370   -5.9098 C.3       1 <0>        -0.0315
     25 C21         6.8381   -0.2733   -7.1475 C.3       1 <0>         0.1204
     26 C22         8.8549    0.7044   -4.1342 C.3       1 <0>         0.0416
     27 C23         9.3979    2.0043   -4.6694 C.ar      1 <0>        -0.1373
     28 C24        10.7463    2.0964   -5.0115 C.ar      1 <0>        -0.0999
     29 C25        11.2677    3.2552   -5.4977 C.ar      1 <0>        -0.0580
     30 C26        10.4383    4.3790   -5.6592 C.ar      1 <0>         0.0932
     31 C27         9.0669    4.2853   -5.3112 C.ar      1 <0>         0.0685
     32 C28         8.5638    3.0691   -4.8168 C.ar      1 <0>        -0.0437
     33 N5          8.2732    5.3507   -5.4627 N.ar      1 <0>        -0.4213
     34 C29         8.7713    6.4721   -5.9317 C.ar      1 <0>         0.0937
     35 C30        10.1217    6.5642   -6.2748 C.ar      1 <0>         0.1030
     36 N6         10.9214    5.5315   -6.1350 N.ar      1 <0>        -0.4231
     37 H1          1.0039    1.9031    0.0027 H         1 <0>         0.0558
     38 H2         -0.5459    1.8868   -0.8726 H         1 <0>         0.0584
     39 H3         -0.5289    1.8773    0.9072 H         1 <0>         0.0641
     40 H4          0.2319   -0.1594    2.1383 H         1 <0>         0.0641
     41 H5          0.7568   -1.6008    1.2356 H         1 <0>         0.0584
     42 H6          1.7647   -0.1336    1.2338 H         1 <0>         0.0558
     43 H7         -1.9605   -0.1726   -0.8702 H         1 <0>         0.0615
     44 H8         -1.4185   -1.6235    0.0069 H         1 <0>         0.0615
     45 H9         -1.9435   -0.1821    0.9097 H         1 <0>         0.0638
     46 H10        -0.9971   -1.5553   -1.9667 H         1 <0>         0.1393
     47 H11         0.1452   -2.3537   -3.9935 H         1 <0>         0.1409
     48 H12         3.7084   -0.3069   -2.7686 H         1 <0>         0.1105
     49 H13         2.5451    0.4894   -0.7530 H         1 <0>         0.1285
     50 H14         2.1165   -4.0957   -8.1190 H         1 <0>         0.1375
     51 H15         4.0937   -4.2322   -9.5411 H         1 <0>         0.1385
     52 H16         6.1779   -3.0972   -8.9004 H         1 <0>         0.1336
     53 H17         7.1794   -3.2830   -5.5372 H         1 <0>         0.1174
     54 H18         8.4660   -2.5430   -6.5261 H         1 <0>         0.0835
     55 H19         7.1074   -1.3153   -4.0818 H         1 <0>         0.1240
     56 H20         8.7889   -1.8905   -4.1846 H         1 <0>         0.1419
     57 H21         6.4147    0.6004   -5.2160 H         1 <0>         0.1244
     58 H22         7.5481    1.5406   -6.2160 H         1 <0>         0.1369
     59 H23         7.6446   -0.2659   -7.8807 H         1 <0>         0.0829
     60 H24         5.9378    0.1586   -7.5846 H         1 <0>         0.1157
     61 H25         8.0243    0.9083   -3.4584 H         1 <0>         0.1372
     62 H26         9.6413    0.1768   -3.5946 H         1 <0>         0.1452
     63 H27        11.3864    1.2353   -4.8884 H         1 <0>         0.1444
     64 H28        12.3143    3.3118   -5.7581 H         1 <0>         0.1528
     65 H29         7.5205    2.9815   -4.5517 H         1 <0>         0.1464
     66 H30         8.1293    7.3320   -6.0536 H         1 <0>         0.1875
     67 H31        10.5129    7.4946   -6.6591 H         1 <0>         0.1880
     68 H32         4.6149   -1.0417   -4.5454 H         1 <0>         0.4118
     69 H33         9.1347   -0.2486   -5.9148 H         1 <0>         0.4248
@<TRIPOS>BOND
     1    1    2 1
     2    1   37 1
     3    1   38 1
     4    1   39 1
     5    2    3 1
     6    2    4 1
     7    2    5 1
     8    3   40 1
     9    3   41 1
    10    3   42 1
    11    4   43 1
    12    4   44 1
    13    4   45 1
    14    5   10 ar
    15    5    6 ar
    16    6    7 ar
    17    6   46 1
    18    7    8 ar
    19    7   47 1
    20    8    9 ar
    21    8   11 1
    22    9   10 ar
    23    9   48 1
    24   10   49 1
    25   11   19 1
    26   11   12 2
    27   12   13 1
    28   13   18 ar
    29   13   14 ar
    30   14   15 ar
    31   14   50 1
    32   15   16 ar
    33   15   51 1
    34   16   17 ar
    35   16   52 1
    36   17   18 ar
    37   17   20 1
    38   18   19 1
    39   19   68 1
    40   20   25 1
    41   20   21 1
    42   21   22 1
    43   21   53 1
    44   21   54 1
    45   22   23 1
    46   22   55 1
    47   22   56 1
    48   23   24 1
    49   23   26 1
    50   23   69 1
    51   24   25 1
    52   24   57 1
    53   24   58 1
    54   25   59 1
    55   25   60 1
    56   26   27 1
    57   26   61 1
    58   26   62 1
    59   27   32 ar
    60   27   28 ar
    61   28   29 ar
    62   28   63 1
    63   29   30 ar
    64   29   64 1
    65   30   36 ar
    66   30   31 ar
    67   31   32 ar
    68   31   33 ar
    69   32   65 1
    70   33   34 ar
    71   34   35 ar
    72   34   66 1
    73   35   36 ar
    74   35   67 1
@<TRIPOS>MOLECULE
ZINC01910570
   73    76     0     0     0
SMALL
USER_CHARGES

@<TRIPOS>ATOM
      1 C1         -4.5211   -1.7565    4.2529 C.3       1 <0>        -0.1221
      2 C2         -5.5194   -1.7081    5.3807 C.ar      1 <0>        -0.0727
      3 C3         -6.8604   -1.9114    5.1274 C.ar      1 <0>        -0.1181
      4 C4         -7.7881   -1.8680    6.1598 C.ar      1 <0>        -0.0526
      5 C5         -7.3646   -1.6251    7.4474 C.ar      1 <0>        -0.0655
      6 C6         -6.0141   -1.4242    7.7008 C.ar      1 <0>        -0.1009
      7 C7         -5.0949   -1.4593    6.6724 C.ar      1 <0>        -0.0933
      8 C8         -3.6325   -1.2333    6.9574 C.3       1 <0>        -0.0031
      9 C9         -3.2929    0.2159    6.7217 C.2       1 <0>         0.0339
     10 C10        -3.3547    1.1990    7.6466 C.2       1 <0>        -0.2147
     11 C11        -2.9577    2.3873    7.0136 C.2       1 <0>        -0.1127
     12 C12        -2.6702    2.0649    5.7182 C.2       1 <0>        -0.0773
     13 O1         -2.8856    0.7426    5.5595 O.3       1 <0>        -0.1588
     14 C13        -2.2134    2.9943    4.6799 C.2       1 <0>         0.6139
     15 O2         -2.0596    4.1728    4.9429 O.2       1 <0>        -0.5090
     16 N1         -1.9637    2.5435    3.4345 N.am      1 <0>        -0.6497
     17 C14        -1.4284    3.4107    2.4680 C.ar      1 <0>         0.0269
     18 C15        -2.2761    4.1300    1.6312 C.ar      1 <0>         0.2160
     19 C16        -1.7454    4.9847    0.6779 C.ar      1 <0>        -0.2736
     20 C17        -0.3707    5.1234    0.5577 C.ar      1 <0>         0.2145
     21 C18         0.4762    4.4119    1.3944 C.ar      1 <0>        -0.3283
     22 C19        -0.0495    3.5515    2.3455 C.ar      1 <0>         0.2152
     23 O3          0.7814    2.8500    3.1617 O.3       1 <0>        -0.3009
     24 C20         2.1854    3.0438    2.9799 C.3       1 <0>         0.0250
     25 O4          0.1475    5.9621   -0.3785 O.3       1 <0>        -0.3090
     26 C21         1.5717    6.0568   -0.4475 C.3       1 <0>         0.0245
     27 O5         -3.6240    3.9941    1.7482 O.3       1 <0>        -0.2990
     28 C22        -4.4334    4.7630    0.8563 C.3       1 <0>         0.0236
     29 C23        -8.3128   -1.5742    8.6167 C.3       1 <0>        -0.0226
     30 C24        -9.7491   -1.3795    8.1349 C.3       1 <0>        -0.1126
     31 C25       -10.0451   -2.4313    7.0593 C.3       1 <0>        -0.1120
     32 C26        -9.2373   -2.0844    5.8104 C.3       1 <0>        -0.0243
     33 C27        -9.8011   -0.8077    5.1834 C.3       1 <0>        -0.1396
     34 C28        -9.3476   -3.2311    4.8035 C.3       1 <0>        -0.1423
     35 C29        -8.2171   -2.8841    9.4014 C.3       1 <0>        -0.1394
     36 C30        -7.9250   -0.4100    9.5305 C.3       1 <0>        -0.1425
     37 H1         -4.1560   -2.7767    4.1344 H         1 <0>         0.0713
     38 H2         -5.0004   -1.4325    3.3292 H         1 <0>         0.0662
     39 H3         -3.6846   -1.0954    4.4795 H         1 <0>         0.0720
     40 H4         -7.1913   -2.1056    4.1178 H         1 <0>         0.1221
     41 H5         -5.6810   -1.2349    8.7106 H         1 <0>         0.1230
     42 H6         -3.0326   -1.8592    6.2966 H         1 <0>         0.0956
     43 H7         -3.4202   -1.4922    7.9947 H         1 <0>         0.1062
     44 H8         -3.6537    1.0909    8.6788 H         1 <0>         0.1554
     45 H9         -2.8929    3.3669    7.4637 H         1 <0>         0.1595
     46 H10        -2.1538    1.6203    3.2057 H         1 <0>         0.4092
     47 H11        -2.4029    5.5429    0.0279 H         1 <0>         0.1446
     48 H12         1.5462    4.5249    1.3019 H         1 <0>         0.1420
     49 H13         2.7327    2.4270    3.6927 H         1 <0>         0.1050
     50 H14         2.4315    4.0931    3.1433 H         1 <0>         0.0587
     51 H15         2.4630    2.7594    1.9649 H         1 <0>         0.0588
     52 H16         1.8516    6.7577   -1.2340 H         1 <0>         0.1049
     53 H17         1.9592    6.4095    0.5083 H         1 <0>         0.0587
     54 H18         1.9908    5.0753   -0.6695 H         1 <0>         0.0584
     55 H19        -4.1999    4.4903   -0.1729 H         1 <0>         0.0612
     56 H20        -5.4859    4.5615    1.0556 H         1 <0>         0.1042
     57 H21        -4.2319    5.8237    1.0057 H         1 <0>         0.0613
     58 H22       -10.4370   -1.5056    8.9709 H         1 <0>         0.0677
     59 H23        -9.8627   -0.3807    7.7135 H         1 <0>         0.0688
     60 H24        -9.7558   -3.4179    7.4213 H         1 <0>         0.0691
     61 H25       -11.1090   -2.4247    6.8225 H         1 <0>         0.0676
     62 H26        -9.2395   -0.5677    4.2806 H         1 <0>         0.0555
     63 H27       -10.8499   -0.9604    4.9291 H         1 <0>         0.0590
     64 H28        -9.7155    0.0144    5.8939 H         1 <0>         0.0582
     65 H29        -8.9379   -4.1408    5.2426 H         1 <0>         0.0565
     66 H30       -10.3952   -3.3908    4.5481 H         1 <0>         0.0587
     67 H31        -8.7884   -2.9787    3.9026 H         1 <0>         0.0583
     68 H32        -7.1976   -3.0171    9.7635 H         1 <0>         0.0556
     69 H33        -8.9021   -2.8510   10.2487 H         1 <0>         0.0586
     70 H34        -8.4834   -3.7175    8.7513 H         1 <0>         0.0581
     71 H35        -7.9825    0.5246    8.9726 H         1 <0>         0.0565
     72 H36        -8.6091   -0.3699   10.3781 H         1 <0>         0.0586
     73 H37        -6.9069   -0.5553    9.8919 H         1 <0>         0.0582
@<TRIPOS>BOND
     1    1    2 1
     2    1   37 1
     3    1   38 1
     4    1   39 1
     5    2    7 ar
     6    2    3 ar
     7    3    4 ar
     8    3   40 1
     9    4   32 1
    10    4    5 ar
    11    5    6 ar
    12    5   29 1
    13    6    7 ar
    14    6   41 1
    15    7    8 1
    16    8    9 1
    17    8   42 1
    18    8   43 1
    19    9   13 1
    20    9   10 2
    21   10   11 1
    22   10   44 1
    23   11   12 2
    24   11   45 1
    25   12   13 1
    26   12   14 1
    27   14   15 2
    28   14   16 am
    29   16   17 1
    30   16   46 1
    31   17   22 ar
    32   17   18 ar
    33   18   19 ar
    34   18   27 1
    35   19   20 ar
    36   19   47 1
    37   20   21 ar
    38   20   25 1
    39   21   22 ar
    40   21   48 1
    41   22   23 1
    42   23   24 1
    43   24   49 1
    44   24   50 1
    45   24   51 1
    46   25   26 1
    47   26   52 1
    48   26   53 1
    49   26   54 1
    50   27   28 1
    51   28   55 1
    52   28   56 1
    53   28   57 1
    54   29   30 1
    55   29   35 1
    56   29   36 1
    57   30   31 1
    58   30   58 1
    59   30   59 1
    60   31   32 1
    61   31   60 1
    62   31   61 1
    63   32   33 1
    64   32   34 1
    65   33   62 1
    66   33   63 1
    67   33   64 1
    68   34   65 1
    69   34   66 1
    70   34   67 1
    71   35   68 1
    72   35   69 1
    73   35   70 1
    74   36   71 1
    75   36   72 1
    76   36   73 1
@<TRIPOS>MOLECULE
ZINC04424097
   85    89     0     0     0
SMALL
USER_CHARGES
isopropyl 9-[(benzyl-methyl-amino)methyl]-5-[(2,6-difluorophenyl)methyl]-8-[4-(2-methylpropanoylamino)phenyl]-2-oxo-7-thia-5-azabicyclo[4.3.0]nona-3,8,10-triene-3-carboxylate
@<TRIPOS>ATOM
      1 C1         -5.0797    1.9357    1.2943 C.3       1 <0>        -0.1370
      2 C2         -4.4826    1.9299   -0.1144 C.3       1 <0>        -0.1141
      3 C3         -4.7815    3.2644   -0.8005 C.3       1 <0>        -0.1486
      4 C4         -2.9911    1.7331   -0.0270 C.2       1 <0>         0.5211
      5 O1         -2.4581    1.6095    1.0555 O.2       1 <0>        -0.5124
      6 N1         -2.2494    1.6943   -1.1516 N.am      1 <0>        -0.6786
      7 C5         -0.8826    1.4060   -1.0785 C.ar      1 <0>         0.1785
      8 C6         -0.4108    0.5231   -0.1142 C.ar      1 <0>        -0.1156
      9 C7          0.9358    0.2402   -0.0365 C.ar      1 <0>        -0.0717
     10 C8          1.8251    0.8338   -0.9344 C.ar      1 <0>        -0.0590
     11 C9          1.3472    1.7165   -1.9049 C.ar      1 <0>        -0.0774
     12 C10        -0.0000    1.9990   -1.9736 C.ar      1 <0>        -0.1423
     13 C11         3.2693    0.5288   -0.8574 C.2       1 <0>        -0.0979
     14 C12         4.3162    1.3904   -0.8162 C.2       1 <0>        -0.1187
     15 C13         5.6296    0.8923   -0.7384 C.2       1 <0>        -0.2252
     16 C14         6.9002    1.6543   -0.6789 C.2       1 <0>         0.4513
     17 O2          6.9016    2.8743   -0.6881 O.2       1 <0>        -0.4753
     18 C15         8.1554    0.8984   -0.6081 C.2       1 <0>        -0.2923
     19 C16         8.1197   -0.4806   -0.5990 C.2       1 <0>         0.2381
     20 N2          6.9499   -1.1386   -0.6548 N.pl3     1 <0>        -0.4257
     21 C17         5.7551   -0.5029   -0.7209 C.2       1 <0>         0.0803
     22 S1          4.0704   -1.0645   -0.8034 S.3       1 <0>         0.2427
     23 C18         6.9665   -2.6034   -0.6417 C.3       1 <0>         0.1247
     24 C19         6.9204   -3.1190   -2.0570 C.ar      1 <0>        -0.2115
     25 C20         5.7018   -3.3744   -2.6618 C.ar      1 <0>         0.1442
     26 C21         5.6606   -3.8422   -3.9645 C.ar      1 <0>        -0.1560
     27 C22         6.8358   -4.0657   -4.6566 C.ar      1 <0>        -0.0383
     28 C23         8.0533   -3.8164   -4.0518 C.ar      1 <0>        -0.1564
     29 C24         8.0968   -3.3427   -2.7513 C.ar      1 <0>         0.1547
     30 F1          9.2870   -3.0987   -2.1605 F         1 <0>        -0.1216
     31 F2          4.5530   -3.1622   -1.9833 F         1 <0>        -0.1158
     32 C25         9.4425    1.6056   -0.5477 C.2       1 <0>         0.5221
     33 O3          9.4693    2.8209   -0.5564 O.2       1 <0>        -0.4799
     34 O4         10.5933    0.9065   -0.4828 O.3       1 <0>        -0.3597
     35 C26        11.8265    1.6708   -0.4257 C.3       1 <0>         0.0867
     36 C27        12.1856    1.9512    1.0350 C.3       1 <0>        -0.1712
     37 C28        12.9530    0.8712   -1.0833 C.3       1 <0>        -0.1522
     38 C29         4.0727    2.8772   -0.8490 C.3       1 <0>         0.0531
     39 C30         2.8876    2.9997    1.2589 C.3       1 <0>        -0.0486
     40 C31         4.2377    4.8684    0.5188 C.3       1 <0>         0.0489
     41 C32         4.4982    5.3494    1.9230 C.ar      1 <0>        -0.1577
     42 C33         3.4401    5.6939    2.7431 C.ar      1 <0>        -0.0965
     43 C34         3.6789    6.1305    4.0327 C.ar      1 <0>        -0.1171
     44 C35         4.9762    6.2321    4.4990 C.ar      1 <0>        -0.0866
     45 C36         6.0347    5.8930    3.6770 C.ar      1 <0>        -0.1147
     46 C37         5.7956    5.4514    2.3891 C.ar      1 <0>        -0.0891
     47 H1         -4.6392    2.7481    1.8723 H         1 <0>         0.0638
     48 H2         -6.1585    2.0781    1.2311 H         1 <0>         0.0691
     49 H3         -4.8667    0.9850    1.7831 H         1 <0>         0.0642
     50 H4         -4.9230    1.1175   -0.6924 H         1 <0>         0.1055
     51 H5         -5.8603    3.4068   -0.8637 H         1 <0>         0.0768
     52 H6         -4.3411    4.0768   -0.2224 H         1 <0>         0.0632
     53 H7         -4.3561    3.2603   -1.8040 H         1 <0>         0.0593
     54 H8         -2.6634    1.8663   -2.0118 H         1 <0>         0.4170
     55 H9         -1.0998    0.0612    0.5775 H         1 <0>         0.1451
     56 H10         1.3022   -0.4433    0.7151 H         1 <0>         0.1336
     57 H11         2.0324    2.1770   -2.6012 H         1 <0>         0.1343
     58 H12        -0.3704    2.6817   -2.7241 H         1 <0>         0.1380
     59 H13         9.0434   -1.0379   -0.5468 H         1 <0>         0.1957
     60 H14         7.8786   -2.9521   -0.1575 H         1 <0>         0.1335
     61 H15         6.0999   -2.9717   -0.0925 H         1 <0>         0.1194
     62 H16         4.7097   -4.0368   -4.4383 H         1 <0>         0.1530
     63 H17         6.8028   -4.4352   -5.6709 H         1 <0>         0.1550
     64 H18         8.9710   -3.9914   -4.5935 H         1 <0>         0.1542
     65 H19        11.6940    2.6145   -0.9548 H         1 <0>         0.0875
     66 H20        13.1114    2.5249    1.0778 H         1 <0>         0.0790
     67 H21        11.3831    2.5208    1.5035 H         1 <0>         0.0604
     68 H22        12.3181    1.0075    1.5641 H         1 <0>         0.0672
     69 H23        12.6972    0.6714   -2.1239 H         1 <0>         0.0653
     70 H24        13.8788    1.4449   -1.0405 H         1 <0>         0.0829
     71 H25        13.0855   -0.0725   -0.5542 H         1 <0>         0.0692
     72 H26         4.8539    3.3605   -1.4357 H         1 <0>         0.1473
     73 H27         3.1018    3.0765   -1.3026 H         1 <0>         0.1365
     74 H28         2.8437    1.9118    1.3106 H         1 <0>         0.1163
     75 H29         2.9239    3.4102    2.2680 H         1 <0>         0.1214
     76 H30         2.0023    3.3750    0.7456 H         1 <0>         0.1225
     77 H31         5.0736    5.1485   -0.1222 H         1 <0>         0.1393
     78 H32         3.3223    5.3248    0.1423 H         1 <0>         0.1344
     79 H33         2.4267    5.6184    2.3774 H         1 <0>         0.1297
     80 H34         2.8520    6.3958    4.6748 H         1 <0>         0.1340
     81 H35         5.1630    6.5768    5.5053 H         1 <0>         0.1337
     82 H36         7.0483    5.9727    4.0412 H         1 <0>         0.1341
     83 H37         6.6226    5.1864    1.7469 H         1 <0>         0.1351
     84 N3          4.1137    3.3956    0.5346 N.4       1 <0>        -0.3853
     85 H38         4.9286    2.9974    1.0159 H         1 <0>         0.4271
@<TRIPOS>BOND
     1    1    2 1
     2    1   47 1
     3    1   48 1
     4    1   49 1
     5    2    3 1
     6    2    4 1
     7    2   50 1
     8    3   51 1
     9    3   52 1
    10    3   53 1
    11    4    5 2
    12    4    6 am
    13    6    7 1
    14    6   54 1
    15    7   12 ar
    16    7    8 ar
    17    8    9 ar
    18    8   55 1
    19    9   10 ar
    20    9   56 1
    21   10   11 ar
    22   10   13 1
    23   11   12 ar
    24   11   57 1
    25   12   58 1
    26   13   22 1
    27   13   14 2
    28   14   15 1
    29   14   38 1
    30   15   21 2
    31   15   16 1
    32   16   17 2
    33   16   18 1
    34   18   19 2
    35   18   32 1
    36   19   20 1
    37   19   59 1
    38   20   21 1
    39   20   23 1
    40   21   22 1
    41   23   24 1
    42   23   60 1
    43   23   61 1
    44   24   29 ar
    45   24   25 ar
    46   25   26 ar
    47   25   31 1
    48   26   27 ar
    49   26   62 1
    50   27   28 ar
    51   27   63 1
    52   28   29 ar
    53   28   64 1
    54   29   30 1
    55   32   33 2
    56   32   34 1
    57   34   35 1
    58   35   36 1
    59   35   37 1
    60   35   65 1
    61   36   66 1
    62   36   67 1
    63   36   68 1
    64   37   69 1
    65   37   70 1
    66   37   71 1
    67   38   72 1
    68   38   73 1
    69   38   84 1
    70   39   74 1
    71   39   75 1
    72   39   76 1
    73   39   84 1
    74   40   41 1
    75   40   77 1
    76   40   78 1
    77   40   84 1
    78   41   46 ar
    79   41   42 ar
    80   42   43 ar
    81   42   79 1
    82   43   44 ar
    83   43   80 1
    84   44   45 ar
    85   44   81 1
    86   45   46 ar
    87   45   82 1
    88   46   83 1
    89   84   85 1
@<TRIPOS>MOLECULE
ZINC00643138
   65    69     0     0     0
SMALL
USER_CHARGES

@<TRIPOS>ATOM
      1 H1          1.6079    1.9820    1.9526 H         1 <0>         0.0703
      2 C1          1.9730    1.5011    1.0451 C.3       1 <0>         0.1083
      3 C2          2.1165   -0.0071    1.2838 C.3       1 <0>         0.0963
      4 N1          0.7741   -0.5946    1.3963 N.am      1 <0>        -0.6170
      5 C3         -0.1862   -0.3812    0.3044 C.3       1 <0>         0.0857
      6 C4         -0.3297    1.1270    0.0658 C.3       1 <0>         0.1045
      7 N2          1.0127    1.7145   -0.0467 N.pl3     1 <0>        -0.6286
      8 C5          1.3700    2.4640   -1.1731 C.ar      1 <0>         0.1978
      9 C6          0.4180    2.7640   -2.1385 C.ar      1 <0>        -0.1556
     10 C7          0.7714    3.5042   -3.2497 C.ar      1 <0>        -0.0889
     11 C8          2.0767    3.9479   -3.4015 C.ar      1 <0>         0.0597
     12 C9          3.0283    3.6483   -2.4379 C.ar      1 <0>        -0.1602
     13 C10         2.6753    2.9131   -1.3233 C.ar      1 <0>        -0.1639
     14 O1          2.4238    4.6768   -4.4960 O.3       1 <0>        -0.3025
     15 C11         3.7853    5.1010   -4.5878 C.3       1 <0>         0.0716
     16 C12         3.9841    5.9018   -5.8762 C.3       1 <0>         0.0420
     17 H2          3.2697    6.7231   -5.9318 H         1 <0>         0.1182
     18 C13         5.4365    6.4322   -5.9725 C.3       1 <0>         0.0170
     19 O2          5.6082    6.5610   -7.4044 O.3       1 <0>        -0.3351
     20 C14         4.8830    5.4525   -7.9627 C.3       1 <0>         0.2894
     21 O3          3.8680    5.0463   -7.0310 O.3       1 <0>        -0.3428
     22 C15         5.8420    4.2889   -8.2219 C.3       1 <0>         0.0735
     23 N3          6.4757    3.8887   -6.9631 N.pl3     1 <0>        -0.4078
     24 C16         7.6416    4.3862   -6.4467 C.2       1 <0>         0.0277
     25 C17         7.8564    3.7456   -5.2817 C.2       1 <0>         0.0033
     26 N4          6.8490    2.8806   -5.0920 N.pl3     1 <0>        -0.4770
     27 C18         6.0155    2.9645   -6.0927 C.cat     1 <0>         0.2937
     28 C19         4.2377    5.8710   -9.2587 C.ar      1 <0>        -0.1041
     29 C20         4.5460    5.2057  -10.4306 C.ar      1 <0>        -0.0827
     30 C21         3.9547    5.5889  -11.6195 C.ar      1 <0>        -0.1016
     31 C22         3.0531    6.6385  -11.6374 C.ar      1 <0>        -0.0035
     32 C23         2.7439    7.3042  -10.4651 C.ar      1 <0>        -0.1013
     33 C24         3.3326    6.9170   -9.2744 C.ar      1 <0>         0.0199
     34 Cl1         2.9404    7.7480   -7.8016 Cl        1 <0>        -0.0376
     35 Cl2         2.3108    7.1201  -13.1310 Cl        1 <0>        -0.0329
     36 H3         -0.8834    1.3003   -0.8570 H         1 <0>         0.0971
     37 H4         -0.8588    1.5812    0.9035 H         1 <0>         0.0720
     38 H5          0.1789   -0.8621   -0.6031 H         1 <0>         0.0755
     39 H6         -1.1533   -0.8016    0.5805 H         1 <0>         0.1068
     40 C25         0.4300   -1.3165    2.4812 C.2       1 <0>         0.5145
     41 O4          1.2581   -1.5654    3.3316 O.2       1 <0>        -0.5401
     42 C26        -0.9838   -1.8144    2.6375 C.3       1 <0>        -0.1811
     43 H7          2.6456   -0.4613    0.4460 H         1 <0>         0.0694
     44 H8          2.6702   -0.1804    2.2066 H         1 <0>         0.1035
     45 H9          2.9392    1.9241    0.7704 H         1 <0>         0.0931
     46 H10        -0.5984    2.4183   -2.0207 H         1 <0>         0.1344
     47 H11         0.0312    3.7373   -4.0008 H         1 <0>         0.1336
     48 H12         4.0446    3.9939   -2.5571 H         1 <0>         0.1170
     49 H13         3.4153    2.6840   -0.5708 H         1 <0>         0.1270
     50 H14         4.0295    5.7270   -3.7295 H         1 <0>         0.0839
     51 H15         4.4380    4.2281   -4.5982 H         1 <0>         0.0478
     52 H16         5.5321    7.3996   -5.4795 H         1 <0>         0.1310
     53 H17         6.1428    5.7130   -5.5579 H         1 <0>         0.0712
     54 H18         5.2873    3.4457   -8.6335 H         1 <0>         0.1446
     55 H19         6.6084    4.6008   -8.9314 H         1 <0>         0.1499
     56 H20         8.2690    5.1460   -6.8887 H         1 <0>         0.2268
     57 H21         8.6931    3.9010   -4.6168 H         1 <0>         0.2279
     58 H22         5.1093    2.3882   -6.2070 H         1 <0>         0.2603
     59 H23         5.2496    4.3864  -10.4172 H         1 <0>         0.1442
     60 H24         4.1965    5.0692  -12.5349 H         1 <0>         0.1520
     61 H25         2.0403    8.1235  -10.4786 H         1 <0>         0.1548
     62 H26        -1.5536   -1.5784    1.7388 H         1 <0>         0.0829
     63 H27        -0.9742   -2.8938    2.7886 H         1 <0>         0.0983
     64 H28        -1.4461   -1.3311    3.4982 H         1 <0>         0.0992
     65 H29         6.7531    2.2888   -4.3295 H         1 <0>         0.4665
@<TRIPOS>BOND
     1    1    2 1
     2    2    7 1
     3    2    3 1
     4    2   45 1
     5    3    4 1
     6    3   43 1
     7    3   44 1
     8    4    5 1
     9    4   40 am
    10    5    6 1
    11    5   38 1
    12    5   39 1
    13    6    7 1
    14    6   36 1
    15    6   37 1
    16    7    8 1
    17    8   13 ar
    18    8    9 ar
    19    9   10 ar
    20    9   46 1
    21   10   11 ar
    22   10   47 1
    23   11   12 ar
    24   11   14 1
    25   12   13 ar
    26   12   48 1
    27   13   49 1
    28   14   15 1
    29   15   16 1
    30   15   50 1
    31   15   51 1
    32   16   17 1
    33   16   21 1
    34   16   18 1
    35   18   19 1
    36   18   52 1
    37   18   53 1
    38   19   20 1
    39   20   21 1
    40   20   22 1
    41   20   28 1
    42   22   23 1
    43   22   54 1
    44   22   55 1
    45   23   27 1
    46   23   24 1
    47   24   25 2
    48   24   56 1
    49   25   26 1
    50   25   57 1
    51   26   27 2
    52   26   65 1
    53   27   58 1
    54   28   33 ar
    55   28   29 ar
    56   29   30 ar
    57   29   59 1
    58   30   31 ar
    59   30   60 1
    60   31   32 ar
    61   31   35 1
    62   32   33 ar
    63   32   61 1
    64   33   34 1
    65   40   41 2
    66   40   42 1
    67   42   62 1
    68   42   63 1
    69   42   64 1
