@<TRIPOS>MOLECULE
ZINC13520815
   44    47     0     0     0
SMALL
USER_CHARGES

@<TRIPOS>ATOM
      1 C1         -0.0187    1.5258    0.0104 C.3       1 <0>        -0.1354
      2 C2          0.0021   -0.0041    0.0020 C.3       1 <0>        -0.0564
      3 C3         -1.4142   -0.5425    0.0489 C.3       1 <0>        -0.1016
      4 C4         -2.0973    0.0441    1.2987 C.3       1 <0>        -0.1130
      5 C5         -1.3125   -0.3073    2.5542 C.3       1 <0>        -0.0424
      6 H1         -1.3075   -1.3927    2.6533 H         1 <0>         0.0765
      7 C6         -1.9424    0.2651    3.7900 C.ar      1 <0>        -0.0773
      8 C7         -3.3273    0.3484    3.8443 C.ar      1 <0>        -0.1030
      9 C8         -3.9576    0.8569    4.9598 C.ar      1 <0>        -0.1472
     10 C9         -3.2003    1.2884    6.0396 C.ar      1 <0>         0.1024
     11 C10        -1.8198    1.2087    5.9840 C.ar      1 <0>        -0.1480
     12 C11        -1.1856    0.7013    4.8579 C.ar      1 <0>        -0.0577
     13 C12         0.3200    0.6669    4.8604 C.3       1 <0>        -0.0825
     14 C13         0.8561   -0.2331    3.7476 C.3       1 <0>        -0.1135
     15 C14         0.1446    0.1628    2.4542 C.3       1 <0>        -0.0739
     16 H2          0.1741    1.2443    2.3212 H         1 <0>         0.0865
     17 C15         0.7512   -0.5345    1.2564 C.3       1 <0>        -0.0835
     18 H3          0.6224   -1.6140    1.3350 H         1 <0>         0.0754
     19 C16         2.2091   -0.2046    0.9567 C.3       1 <0>        -0.1120
     20 C17         2.3296   -0.2454   -0.5872 C.3       1 <0>        -0.1564
     21 C18         0.8992   -0.5108   -1.1319 C.3       1 <0>         0.1090
     22 H4          0.7424   -1.5760   -1.3012 H         1 <0>         0.0609
     23 O1          0.6684    0.2327   -2.3302 O.3       1 <0>        -0.5588
     24 O2         -3.8114    1.7874    7.1461 O.3       1 <0>        -0.5003
     25 H5          1.0039    1.9031    0.0027 H         1 <0>         0.0539
     26 H6         -0.5459    1.8868   -0.8726 H         1 <0>         0.0599
     27 H7         -0.5289    1.8773    0.9072 H         1 <0>         0.0606
     28 H8         -1.9557   -0.2363   -0.8462 H         1 <0>         0.0693
     29 H9         -1.3938   -1.6303    0.1152 H         1 <0>         0.0628
     30 H10        -2.1534    1.1283    1.2019 H         1 <0>         0.0698
     31 H11        -3.1059   -0.3612    1.3804 H         1 <0>         0.0659
     32 H12        -3.9166    0.0119    3.0041 H         1 <0>         0.1276
     33 H13        -5.0353    0.9194    4.9932 H         1 <0>         0.1275
     34 H14        -1.2303    1.5447    6.8243 H         1 <0>         0.1259
     35 H15         0.7005    1.6781    4.7162 H         1 <0>         0.0774
     36 H16         0.6668    0.2900    5.8226 H         1 <0>         0.0749
     37 H17         1.9304   -0.0841    3.6397 H         1 <0>         0.0720
     38 H18         0.6512   -1.2764    3.9877 H         1 <0>         0.0665
     39 H19         2.4554    0.7900    1.3285 H         1 <0>         0.0683
     40 H20         2.8651   -0.9498    1.4065 H         1 <0>         0.0656
     41 H21         2.7000    0.7100   -0.9588 H         1 <0>         0.0739
     42 H22         3.0000   -1.0500   -0.8889 H         1 <0>         0.0643
     43 H23         1.2119   -0.0490   -3.0787 H         1 <0>         0.3759
     44 H24        -4.0214    1.1203    7.8140 H         1 <0>         0.3901
@<TRIPOS>BOND
     1    1    2 1
     2    1   25 1
     3    1   26 1
     4    1   27 1
     5    2   17 1
     6    2   21 1
     7    2    3 1
     8    3    4 1
     9    3   28 1
    10    3   29 1
    11    4    5 1
    12    4   30 1
    13    4   31 1
    14    5    6 1
    15    5   15 1
    16    5    7 1
    17    7   12 ar
    18    7    8 ar
    19    8    9 ar
    20    8   32 1
    21    9   10 ar
    22    9   33 1
    23   10   11 ar
    24   10   24 1
    25   11   12 ar
    26   11   34 1
    27   12   13 1
    28   13   14 1
    29   13   35 1
    30   13   36 1
    31   14   15 1
    32   14   37 1
    33   14   38 1
    34   15   16 1
    35   15   17 1
    36   17   18 1
    37   17   19 1
    38   19   20 1
    39   19   39 1
    40   19   40 1
    41   20   21 1
    42   20   41 1
    43   20   42 1
    44   21   22 1
    45   21   23 1
    46   23   43 1
    47   24   44 1
@<TRIPOS>MOLECULE
ZINC04172149
   44    48     0     0     0
SMALL
USER_CHARGES

@<TRIPOS>ATOM
      1 C1         -0.0184    1.5028    0.0103 C.3       1 <0>        -0.2009
      2 C2          0.0021   -0.0041    0.0020 C.2       1 <0>         0.3978
      3 O1          1.0607   -0.5962   -0.0113 O.2       1 <0>        -0.4703
      4 C3         -1.2587   -0.7551    0.0100 C.ar      1 <0>        -0.2339
      5 C4         -2.4831   -0.0735    0.0196 C.ar      1 <0>        -0.0237
      6 C5         -3.6488   -0.7812    0.0332 C.ar      1 <0>        -0.2072
      7 C6         -3.6272   -2.1781    0.0357 C.ar      1 <0>         0.2586
      8 C7         -2.4190   -2.8600    0.0146 C.ar      1 <0>        -0.1585
      9 C8         -1.2427   -2.1534    0.0024 C.ar      1 <0>        -0.0032
     10 C9         -2.3452   -4.3610   -0.0206 C.3       1 <0>        -0.0065
     11 H1         -1.9612   -4.7435    0.9251 H         1 <0>         0.0898
     12 C10        -1.4242   -4.7545   -1.1646 C.2       1 <0>        -0.1564
     13 C11        -2.1182   -5.1421   -2.2028 C.2       1 <0>        -0.1598
     14 C12        -3.6036   -5.0802   -1.9143 C.3       1 <0>        -0.0915
     15 C13        -3.6814   -5.0183   -0.3559 C.3       1 <0>        -0.0962
     16 H2         -3.6866   -6.0338    0.0403 H         1 <0>         0.0990
     17 C14        -4.9053   -4.3097    0.1428 C.3       1 <0>         0.2102
     18 H3         -5.0838   -4.6141    1.1741 H         1 <0>         0.0924
     19 N1         -4.8278   -2.8641    0.0657 N.pl3     1 <0>        -0.7245
     20 C15        -6.0820   -4.7457   -0.6916 C.ar      1 <0>        -0.0611
     21 C16        -6.4717   -3.9908   -1.7826 C.ar      1 <0>        -0.0856
     22 C17        -7.5532   -4.3892   -2.5508 C.ar      1 <0>         0.0551
     23 C18        -8.2464   -5.5519   -2.2218 C.ar      1 <0>         0.0421
     24 C19        -7.8510   -6.3037   -1.1279 C.ar      1 <0>        -0.0694
     25 C20        -6.7664   -5.9030   -0.3681 C.ar      1 <0>        -0.0782
     26 Br1        -6.2238   -6.9354    1.1205 Br        1 <0>        -0.0198
     27 O2         -9.2585   -5.7255   -3.1211 O.3       1 <0>        -0.3016
     28 C21        -9.4314   -4.4454   -3.7572 C.3       1 <0>         0.2119
     29 O3         -8.1313   -3.8348   -3.6562 O.3       1 <0>        -0.3020
     30 H4          1.0042    1.8801    0.0026 H         1 <0>         0.0824
     31 H5         -0.5455    1.8639   -0.8728 H         1 <0>         0.0913
     32 H6         -0.5286    1.8543    0.9071 H         1 <0>         0.0917
     33 H7         -2.5034    1.0063    0.0165 H         1 <0>         0.1315
     34 H8         -4.5940   -0.2587    0.0425 H         1 <0>         0.1275
     35 H9         -0.2997   -2.6799   -0.0090 H         1 <0>         0.1311
     36 H10        -0.3455   -4.7188   -1.1252 H         1 <0>         0.1302
     37 H11        -1.6895   -5.4633   -3.1405 H         1 <0>         0.1271
     38 H12        -4.0422   -4.1850   -2.3552 H         1 <0>         0.0779
     39 H13        -4.1032   -5.9751   -2.2854 H         1 <0>         0.0722
     40 H14        -5.6531   -2.3545    0.0586 H         1 <0>         0.4050
     41 H15        -5.9328   -3.0898   -2.0357 H         1 <0>         0.1473
     42 H16        -8.3868   -7.2054   -0.8704 H         1 <0>         0.1496
     43 H17        -9.7149   -4.5721   -4.8020 H         1 <0>         0.1380
     44 H18       -10.1757   -3.8515   -3.2267 H         1 <0>         0.0905
@<TRIPOS>BOND
     1    1    2 1
     2    1   30 1
     3    1   31 1
     4    1   32 1
     5    2    3 2
     6    2    4 1
     7    4    9 ar
     8    4    5 ar
     9    5    6 ar
    10    5   33 1
    11    6    7 ar
    12    6   34 1
    13    7   19 1
    14    7    8 ar
    15    8    9 ar
    16    8   10 1
    17    9   35 1
    18   10   11 1
    19   10   15 1
    20   10   12 1
    21   12   13 2
    22   12   36 1
    23   13   14 1
    24   13   37 1
    25   14   15 1
    26   14   38 1
    27   14   39 1
    28   15   16 1
    29   15   17 1
    30   17   18 1
    31   17   19 1
    32   17   20 1
    33   19   40 1
    34   20   25 ar
    35   20   21 ar
    36   21   22 ar
    37   21   41 1
    38   22   29 1
    39   22   23 ar
    40   23   24 ar
    41   23   27 1
    42   24   25 ar
    43   24   42 1
    44   25   26 1
    45   27   28 1
    46   28   29 1
    47   28   43 1
    48   28   44 1
@<TRIPOS>MOLECULE
ZINC04959591
   39    43     0     0     0
SMALL
USER_CHARGES

@<TRIPOS>ATOM
      1 C1         -0.0166    1.3761    0.0096 C.ar      1 <0>        -0.1735
      2 C2          1.1700    2.0866    0.0021 C.ar      1 <0>        -0.0756
      3 C3          2.3732    1.4121   -0.0195 C.ar      1 <0>        -0.1920
      4 C4          2.3939    0.0198   -0.0312 C.ar      1 <0>         0.2218
      5 C5          1.2076   -0.6912   -0.0121 C.ar      1 <0>        -0.1424
      6 C6          0.0021   -0.0041    0.0020 C.ar      1 <0>        -0.0689
      7 C7          1.1722   -2.1934    0.0122 C.3       1 <0>        -0.0067
      8 H1          0.7971   -2.5785   -0.9360 H         1 <0>         0.0867
      9 C8          0.2622   -2.6186    1.1538 C.2       1 <0>        -0.1547
     10 C9          0.9666   -2.9971    2.1883 C.2       1 <0>        -0.1614
     11 C10         2.4498   -2.8963    1.8992 C.3       1 <0>        -0.0914
     12 C11         2.5242   -2.8202    0.3418 C.3       1 <0>        -0.0948
     13 H2          2.5532   -3.8323   -0.0618 H         1 <0>         0.0957
     14 C12         3.7311   -2.0804   -0.1527 C.3       1 <0>         0.2146
     15 H3          3.9170   -2.3748   -1.1856 H         1 <0>         0.0872
     16 N1          3.6188   -0.6372   -0.0684 N.pl3     1 <0>        -0.7375
     17 C13         4.9176   -2.4928    0.6798 C.ar      1 <0>        -0.0589
     18 C14         5.2892   -1.7346    1.7748 C.ar      1 <0>        -0.0846
     19 C15         6.3796   -2.1113    2.5412 C.ar      1 <0>         0.0542
     20 C16         7.1002   -3.2555    2.2065 C.ar      1 <0>         0.0403
     21 C17         6.7229   -4.0108    1.1085 C.ar      1 <0>        -0.0699
     22 C18         5.6292   -3.6319    0.3505 C.ar      1 <0>        -0.0793
     23 Br1         5.1116   -4.6691   -1.1436 Br        1 <0>        -0.0213
     24 O1          8.1160   -3.4097    3.1051 O.3       1 <0>        -0.3022
     25 C19         8.2584   -2.1292    3.7480 C.3       1 <0>         0.2120
     26 O2          6.9443   -1.5490    3.6497 O.3       1 <0>        -0.3025
     27 H4         -0.9597    1.9021    0.0259 H         1 <0>         0.1178
     28 H5          1.1546    3.1665    0.0127 H         1 <0>         0.1206
     29 H6          3.3009    1.9649   -0.0276 H         1 <0>         0.1194
     30 H7         -0.9280   -0.5530    0.0071 H         1 <0>         0.1191
     31 H8         -0.8170   -2.6093    1.1154 H         1 <0>         0.1282
     32 H9          0.5468   -3.3362    3.1238 H         1 <0>         0.1258
     33 H10         2.8667   -1.9940    2.3467 H         1 <0>         0.0781
     34 H11         2.9718   -3.7814    2.2628 H         1 <0>         0.0706
     35 H12         4.4310   -0.1068   -0.0609 H         1 <0>         0.4014
     36 H13         4.7290   -0.8479    2.0324 H         1 <0>         0.1477
     37 H14         7.2800   -4.8982    0.8466 H         1 <0>         0.1489
     38 H15         8.5446   -2.2546    4.7922 H         1 <0>         0.1375
     39 H16         8.9885   -1.5152    3.2208 H         1 <0>         0.0900
@<TRIPOS>BOND
     1    1    6 ar
     2    1    2 ar
     3    1   27 1
     4    2    3 ar
     5    2   28 1
     6    3    4 ar
     7    3   29 1
     8    4   16 1
     9    4    5 ar
    10    5    6 ar
    11    5    7 1
    12    6   30 1
    13    7    8 1
    14    7   12 1
    15    7    9 1
    16    9   10 2
    17    9   31 1
    18   10   11 1
    19   10   32 1
    20   11   12 1
    21   11   33 1
    22   11   34 1
    23   12   13 1
    24   12   14 1
    25   14   15 1
    26   14   16 1
    27   14   17 1
    28   16   35 1
    29   17   22 ar
    30   17   18 ar
    31   18   19 ar
    32   18   36 1
    33   19   26 1
    34   19   20 ar
    35   20   21 ar
    36   20   24 1
    37   21   22 ar
    38   21   37 1
    39   22   23 1
    40   24   25 1
    41   25   26 1
    42   25   38 1
    43   25   39 1
